MODEL 1
REMARK VINA RESULT:      -6.2      0.000      0.000
REMARK  8 active torsions:
REMARK  status: ('A' for Active; 'I' for Inactive)
REMARK    1  A    between atoms: C_2  and  C_4 
REMARK    2  A    between atoms: C_4  and  C_23 
REMARK    3  A    between atoms: C_4  and  N_16 
REMARK       I    between atoms: N_16  and  C_17 
REMARK    4  A    between atoms: C_17  and  C_18 
REMARK    5  A    between atoms: C_18  and  C_19 
REMARK    6  A    between atoms: C_18  and  N_21 
REMARK    7  A    between atoms: C_19  and  Se_20 
REMARK    8  A    between atoms: C_23  and  C_24 
ROOT
HETATM    1  C           1     -29.750  -7.140 -17.333  0.00  0.00     0.191 C 
ENDROOT
BRANCH   1   2
HETATM    2  C           1     -30.354  -7.852 -18.519  0.00  0.00     0.197 C 
HETATM    3  O           1     -29.644  -8.601 -19.226  0.00  0.00    -0.646 OA
HETATM    4  O           1     -31.563  -7.694 -18.794  0.00  0.00    -0.646 OA
ENDBRANCH   1   2
BRANCH   1   5
HETATM    5  C           1     -29.468  -5.689 -17.702  0.00  0.00     0.094 C 
BRANCH   5   6
HETATM    6  C           1     -30.680  -4.858 -17.418  0.00  0.00     0.028 A 
HETATM    7  C           1     -30.828  -3.541 -17.785  0.00  0.00     0.114 A 
HETATM    8  N           1     -32.067  -3.185 -17.330  0.00  0.00    -0.360 N 
HETATM    9  H           1     -32.519  -2.243 -17.432  0.00  0.00     0.166 HD
HETATM   10  C           1     -32.610  -4.277 -16.716  0.00  0.00     0.180 A 
HETATM   11  N           1     -31.793  -5.304 -16.753  0.00  0.00    -0.354 N 
ATOM     12  HN          1     -31.952  -6.236 -16.369  1.00  0.00     0.166 HD
ENDBRANCH   5   6
ENDBRANCH   1   5
BRANCH   1  13
HETATM   13  N           1     -28.511  -7.792 -16.958  0.00  0.00    -0.344 N 
HETATM   14  H           1     -28.243  -8.662 -17.400  0.00  0.00     0.163 HD
HETATM   15  C           1     -27.704  -7.232 -16.005  0.00  0.00     0.249 C 
HETATM   16  O           1     -27.853  -7.518 -14.841  0.00  0.00    -0.271 OA
BRANCH  15  17
HETATM   17  C           1     -26.626  -6.255 -16.409  0.00  0.00     0.274 C 
BRANCH  17  18
HETATM   18  C           1     -26.246  -6.489 -17.865  0.00  0.00     0.045 C 
BRANCH  18  19
HETATM   19 Se           1     -24.377  -7.030 -17.972  0.00  0.00     0.000 Se
HETATM   20  H           1     -24.347  -7.606 -16.617  0.00  0.00     0.000 HD
ENDBRANCH  18  19
ENDBRANCH  17  18
BRANCH  17  21
HETATM   21  N           1     -25.419  -6.456 -15.540  0.00  0.00    -0.067 N 
HETATM   22  H           1     -24.581  -6.042 -16.007  0.00  0.00     0.275 HD
HETATM   23  H           1     -25.265  -7.479 -15.390  0.00  0.00     0.275 HD
HETATM   24  H           1     -25.571  -5.989 -14.618  0.00  0.00     0.275 HD
ENDBRANCH  17  21
ENDBRANCH  15  17
ENDBRANCH   1  13
TORSDOF 8
ENDMDL
MODEL 2
REMARK VINA RESULT:      -6.2      8.922     10.533
REMARK  8 active torsions:
REMARK  status: ('A' for Active; 'I' for Inactive)
REMARK    1  A    between atoms: C_2  and  C_4 
REMARK    2  A    between atoms: C_4  and  C_23 
REMARK    3  A    between atoms: C_4  and  N_16 
REMARK       I    between atoms: N_16  and  C_17 
REMARK    4  A    between atoms: C_17  and  C_18 
REMARK    5  A    between atoms: C_18  and  C_19 
REMARK    6  A    between atoms: C_18  and  N_21 
REMARK    7  A    between atoms: C_19  and  Se_20 
REMARK    8  A    between atoms: C_23  and  C_24 
ROOT
HETATM    1  C           1     -36.167  -0.237 -11.040  0.00  0.00     0.191 C 
ENDROOT
BRANCH   1   2
HETATM    2  C           1     -36.890   0.611 -10.022  0.00  0.00     0.197 C 
HETATM    3  O           1     -36.311   0.949  -8.965  0.00  0.00    -0.646 OA
HETATM    4  O           1     -38.066   0.975 -10.233  0.00  0.00    -0.646 OA
ENDBRANCH   1   2
BRANCH   1   5
HETATM    5  C           1     -37.051  -0.421 -12.266  0.00  0.00     0.094 C 
BRANCH   5   6
HETATM    6  C           1     -36.320   0.056 -13.483  0.00  0.00     0.028 A 
HETATM    7  C           1     -34.957   0.213 -13.565  0.00  0.00     0.114 A 
HETATM    8  N           1     -34.728   0.661 -14.836  0.00  0.00    -0.360 N 
HETATM    9  H           1     -33.794   0.891 -15.255  0.00  0.00     0.166 HD
HETATM   10  C           1     -35.938   0.756 -15.463  0.00  0.00     0.180 A 
HETATM   11  N           1     -36.920   0.397 -14.668  0.00  0.00    -0.354 N 
ATOM     12  HN          1     -37.916   0.376 -14.886  1.00  0.00     0.166 HD
ENDBRANCH   5   6
ENDBRANCH   1   5
BRANCH   1  13
HETATM   13  N           1     -35.867  -1.533 -10.462  0.00  0.00    -0.344 N 
HETATM   14  H           1     -36.593  -2.057  -9.990  0.00  0.00     0.163 HD
HETATM   15  C           1     -34.602  -2.047 -10.555  0.00  0.00     0.249 C 
HETATM   16  O           1     -33.788  -1.813  -9.694  0.00  0.00    -0.271 OA
BRANCH  15  17
HETATM   17  C           1     -34.223  -2.908 -11.736  0.00  0.00     0.274 C 
BRANCH  17  18
HETATM   18  C           1     -35.111  -4.145 -11.770  0.00  0.00     0.045 C 
BRANCH  18  19
HETATM   19 Se           1     -34.217  -5.613 -10.850  0.00  0.00     0.000 Se
HETATM   20  H           1     -32.877  -5.012 -10.951  0.00  0.00     0.000 HD
ENDBRANCH  18  19
ENDBRANCH  17  18
BRANCH  17  21
HETATM   21  N           1     -32.788  -3.327 -11.609  0.00  0.00    -0.067 N 
HETATM   22  H           1     -32.513  -3.886 -12.447  0.00  0.00     0.275 HD
HETATM   23  H           1     -32.671  -3.909 -10.747  0.00  0.00     0.275 HD
HETATM   24  H           1     -32.182  -2.479 -11.540  0.00  0.00     0.275 HD
ENDBRANCH  17  21
ENDBRANCH  15  17
ENDBRANCH   1  13
TORSDOF 8
ENDMDL
MODEL 3
REMARK VINA RESULT:      -6.0      3.115      5.950
REMARK  8 active torsions:
REMARK  status: ('A' for Active; 'I' for Inactive)
REMARK    1  A    between atoms: C_2  and  C_4 
REMARK    2  A    between atoms: C_4  and  C_23 
REMARK    3  A    between atoms: C_4  and  N_16 
REMARK       I    between atoms: N_16  and  C_17 
REMARK    4  A    between atoms: C_17  and  C_18 
REMARK    5  A    between atoms: C_18  and  C_19 
REMARK    6  A    between atoms: C_18  and  N_21 
REMARK    7  A    between atoms: C_19  and  Se_20 
REMARK    8  A    between atoms: C_23  and  C_24 
ROOT
HETATM    1  C           1     -25.934  -6.923 -17.328  0.00  0.00     0.191 C 
ENDROOT
BRANCH   1   2
HETATM    2  C           1     -25.113  -7.155 -16.084  0.00  0.00     0.197 C 
HETATM    3  O           1     -25.181  -6.349 -15.130  0.00  0.00    -0.646 OA
HETATM    4  O           1     -24.364  -8.153 -16.006  0.00  0.00    -0.646 OA
ENDBRANCH   1   2
BRANCH   1   5
HETATM    5  C           1     -25.032  -6.408 -18.443  0.00  0.00     0.094 C 
BRANCH   5   6
HETATM    6  C           1     -25.271  -7.207 -19.686  0.00  0.00     0.028 A 
HETATM    7  C           1     -24.282  -7.773 -20.454  0.00  0.00     0.114 A 
HETATM    8  N           1     -24.941  -8.399 -21.476  0.00  0.00    -0.360 N 
HETATM    9  H           1     -24.500  -8.940 -22.260  0.00  0.00     0.166 HD
HETATM   10  C           1     -26.278  -8.191 -21.290  0.00  0.00     0.180 A 
HETATM   11  N           1     -26.508  -7.473 -20.215  0.00  0.00    -0.354 N 
ATOM     12  HN          1     -27.414  -7.176 -19.852  1.00  0.00     0.166 HD
ENDBRANCH   5   6
ENDBRANCH   1   5
BRANCH   1  13
HETATM   13  N           1     -26.965  -5.941 -17.049  0.00  0.00    -0.344 N 
HETATM   14  H           1     -26.758  -4.954 -17.128  0.00  0.00     0.163 HD
HETATM   15  C           1     -28.217  -6.350 -16.679  0.00  0.00     0.249 C 
HETATM   16  O           1     -28.480  -6.513 -15.511  0.00  0.00    -0.271 OA
BRANCH  15  17
HETATM   17  C           1     -29.271  -6.600 -17.730  0.00  0.00     0.274 C 
BRANCH  17  18
HETATM   18  C           1     -30.559  -5.887 -17.339  0.00  0.00     0.045 C 
BRANCH  18  19
HETATM   19 Se           1     -30.338  -3.966 -17.585  0.00  0.00     0.000 Se
HETATM   20  H           1     -28.952  -4.071 -18.071  0.00  0.00     0.000 HD
ENDBRANCH  18  19
ENDBRANCH  17  18
BRANCH  17  21
HETATM   21  N           1     -29.530  -8.074 -17.838  0.00  0.00    -0.067 N 
HETATM   22  H           1     -28.816  -8.594 -17.280  0.00  0.00     0.275 HD
HETATM   23  H           1     -29.469  -8.366 -18.840  0.00  0.00     0.275 HD
HETATM   24  H           1     -30.484  -8.289 -17.471  0.00  0.00     0.275 HD
ENDBRANCH  17  21
ENDBRANCH  15  17
ENDBRANCH   1  13
TORSDOF 8
ENDMDL
MODEL 4
REMARK VINA RESULT:      -6.0      8.544     10.349
REMARK  8 active torsions:
REMARK  status: ('A' for Active; 'I' for Inactive)
REMARK    1  A    between atoms: C_2  and  C_4 
REMARK    2  A    between atoms: C_4  and  C_23 
REMARK    3  A    between atoms: C_4  and  N_16 
REMARK       I    between atoms: N_16  and  C_17 
REMARK    4  A    between atoms: C_17  and  C_18 
REMARK    5  A    between atoms: C_18  and  C_19 
REMARK    6  A    between atoms: C_18  and  N_21 
REMARK    7  A    between atoms: C_19  and  Se_20 
REMARK    8  A    between atoms: C_23  and  C_24 
ROOT
HETATM    1  C           1     -34.988  -2.423 -11.756  0.00  0.00     0.191 C 
ENDROOT
BRANCH   1   2
HETATM    2  C           1     -35.804  -1.659 -10.742  0.00  0.00     0.197 C 
HETATM    3  O           1     -35.231  -1.040  -9.818  0.00  0.00    -0.646 OA
HETATM    4  O           1     -37.051  -1.645 -10.825  0.00  0.00    -0.646 OA
ENDBRANCH   1   2
BRANCH   1   5
HETATM    5  C           1     -33.708  -2.928 -11.102  0.00  0.00     0.094 C 
BRANCH   5   6
HETATM    6  C           1     -33.754  -4.420 -11.003  0.00  0.00     0.028 A 
HETATM    7  C           1     -32.784  -5.266 -11.488  0.00  0.00     0.114 A 
HETATM    8  N           1     -33.228  -6.523 -11.186  0.00  0.00    -0.360 N 
HETATM    9  H           1     -32.738  -7.425 -11.408  0.00  0.00     0.166 HD
HETATM   10  C           1     -34.426  -6.394 -10.544  0.00  0.00     0.180 A 
HETATM   11  N           1     -34.770  -5.132 -10.419  0.00  0.00    -0.354 N 
ATOM     12  HN          1     -35.613  -4.762  -9.981  1.00  0.00     0.166 HD
ENDBRANCH   5   6
ENDBRANCH   1   5
BRANCH   1  13
HETATM   13  N           1     -34.652  -1.548 -12.863  0.00  0.00    -0.344 N 
HETATM   14  H           1     -33.878  -1.778 -13.473  0.00  0.00     0.163 HD
HETATM   15  C           1     -35.382  -0.411 -13.082  0.00  0.00     0.249 C 
HETATM   16  O           1     -35.056   0.627 -12.557  0.00  0.00    -0.271 OA
BRANCH  15  17
HETATM   17  C           1     -36.595  -0.454 -13.979  0.00  0.00     0.274 C 
BRANCH  17  18
HETATM   18  C           1     -36.292   0.279 -15.279  0.00  0.00     0.045 C 
BRANCH  18  19
HETATM   19 Se           1     -35.775  -1.011 -16.646  0.00  0.00     0.000 Se
HETATM   20  H           1     -36.370  -0.247 -17.755  0.00  0.00     0.000 HD
ENDBRANCH  18  19
ENDBRANCH  17  18
BRANCH  17  21
HETATM   21  N           1     -37.750   0.211 -13.289  0.00  0.00    -0.067 N 
HETATM   22  H           1     -37.995  -0.325 -12.426  0.00  0.00     0.275 HD
HETATM   23  H           1     -38.574   0.232 -13.932  0.00  0.00     0.275 HD
HETATM   24  H           1     -37.486   1.188 -13.030  0.00  0.00     0.275 HD
ENDBRANCH  17  21
ENDBRANCH  15  17
ENDBRANCH   1  13
TORSDOF 8
ENDMDL
MODEL 5
REMARK VINA RESULT:      -5.9      8.354      9.610
REMARK  8 active torsions:
REMARK  status: ('A' for Active; 'I' for Inactive)
REMARK    1  A    between atoms: C_2  and  C_4 
REMARK    2  A    between atoms: C_4  and  C_23 
REMARK    3  A    between atoms: C_4  and  N_16 
REMARK       I    between atoms: N_16  and  C_17 
REMARK    4  A    between atoms: C_17  and  C_18 
REMARK    5  A    between atoms: C_18  and  C_19 
REMARK    6  A    between atoms: C_18  and  N_21 
REMARK    7  A    between atoms: C_19  and  Se_20 
REMARK    8  A    between atoms: C_23  and  C_24 
ROOT
HETATM    1  C           1     -34.653  -1.255 -11.463  0.00  0.00     0.191 C 
ENDROOT
BRANCH   1   2
HETATM    2  C           1     -35.836  -1.277 -10.526  0.00  0.00     0.197 C 
HETATM    3  O           1     -36.863  -1.924 -10.831  0.00  0.00    -0.646 OA
HETATM    4  O           1     -35.792  -0.649  -9.447  0.00  0.00    -0.646 OA
ENDBRANCH   1   2
BRANCH   1   5
HETATM    5  C           1     -35.076  -1.785 -12.827  0.00  0.00     0.094 C 
BRANCH   5   6
HETATM    6  C           1     -35.469  -0.639 -13.706  0.00  0.00     0.028 A 
HETATM    7  C           1     -36.765  -0.275 -13.985  0.00  0.00     0.114 A 
HETATM    8  N           1     -36.660   0.806 -14.815  0.00  0.00    -0.360 N 
HETATM    9  H           1     -37.455   1.349 -15.232  0.00  0.00     0.166 HD
HETATM   10  C           1     -35.330   1.050 -15.005  0.00  0.00     0.180 A 
HETATM   11  N           1     -34.585   0.192 -14.347  0.00  0.00    -0.354 N 
ATOM     12  HN          1     -33.566   0.151 -14.318  1.00  0.00     0.166 HD
ENDBRANCH   5   6
ENDBRANCH   1   5
BRANCH   1  13
HETATM   13  N           1     -33.598  -2.093 -10.926  0.00  0.00    -0.344 N 
HETATM   14  H           1     -32.941  -1.713 -10.257  0.00  0.00     0.163 HD
HETATM   15  C           1     -33.489  -3.397 -11.326  0.00  0.00     0.249 C 
HETATM   16  O           1     -32.813  -3.682 -12.286  0.00  0.00    -0.271 OA
BRANCH  15  17
HETATM   17  C           1     -34.217  -4.482 -10.568  0.00  0.00     0.274 C 
BRANCH  17  18
HETATM   18  C           1     -33.609  -5.836 -10.911  0.00  0.00     0.045 C 
BRANCH  18  19
HETATM   19 Se           1     -34.684  -7.252 -10.110  0.00  0.00     0.000 Se
HETATM   20  H           1     -33.628  -7.685  -9.180  0.00  0.00     0.000 HD
ENDBRANCH  18  19
ENDBRANCH  17  18
BRANCH  17  21
HETATM   21  N           1     -35.667  -4.473 -10.952  0.00  0.00    -0.067 N 
HETATM   22  H           1     -36.137  -3.648 -10.516  0.00  0.00     0.275 HD
HETATM   23  H           1     -36.121  -5.353 -10.614  0.00  0.00     0.275 HD
HETATM   24  H           1     -35.752  -4.415 -11.991  0.00  0.00     0.275 HD
ENDBRANCH  17  21
ENDBRANCH  15  17
ENDBRANCH   1  13
TORSDOF 8
ENDMDL
MODEL 6
REMARK VINA RESULT:      -5.8     11.312     13.609
REMARK  8 active torsions:
REMARK  status: ('A' for Active; 'I' for Inactive)
REMARK    1  A    between atoms: C_2  and  C_4 
REMARK    2  A    between atoms: C_4  and  C_23 
REMARK    3  A    between atoms: C_4  and  N_16 
REMARK       I    between atoms: N_16  and  C_17 
REMARK    4  A    between atoms: C_17  and  C_18 
REMARK    5  A    between atoms: C_18  and  C_19 
REMARK    6  A    between atoms: C_18  and  N_21 
REMARK    7  A    between atoms: C_19  and  Se_20 
REMARK    8  A    between atoms: C_23  and  C_24 
ROOT
HETATM    1  C           1     -21.252  -5.891  -7.234  0.00  0.00     0.191 C 
ENDROOT
BRANCH   1   2
HETATM    2  C           1     -19.761  -5.826  -7.006  0.00  0.00     0.197 C 
HETATM    3  O           1     -19.169  -4.726  -7.057  0.00  0.00    -0.646 OA
HETATM    4  O           1     -19.120  -6.871  -6.766  0.00  0.00    -0.646 OA
ENDBRANCH   1   2
BRANCH   1   5
HETATM    5  C           1     -21.861  -4.514  -7.004  0.00  0.00     0.094 C 
BRANCH   5   6
HETATM    6  C           1     -22.642  -4.105  -8.214  0.00  0.00     0.028 A 
HETATM    7  C           1     -22.095  -3.854  -9.450  0.00  0.00     0.114 A 
HETATM    8  N           1     -23.155  -3.517 -10.245  0.00  0.00    -0.360 N 
HETATM    9  H           1     -23.112  -3.260 -11.261  0.00  0.00     0.166 HD
HETATM   10  C           1     -24.281  -3.575  -9.474  0.00  0.00     0.180 A 
HETATM   11  N           1     -24.001  -3.927  -8.240  0.00  0.00    -0.354 N 
ATOM     12  HN          1     -24.656  -4.044  -7.467  1.00  0.00     0.166 HD
ENDBRANCH   5   6
ENDBRANCH   1   5
BRANCH   1  13
HETATM   13  N           1     -21.841  -6.840  -6.310  0.00  0.00    -0.344 N 
HETATM   14  H           1     -21.890  -7.821  -6.554  0.00  0.00     0.163 HD
HETATM   15  C           1     -22.332  -6.409  -5.107  0.00  0.00     0.249 C 
HETATM   16  O           1     -23.486  -6.063  -5.014  0.00  0.00    -0.271 OA
BRANCH  15  17
HETATM   17  C           1     -21.432  -6.365  -3.896  0.00  0.00     0.274 C 
BRANCH  17  18
HETATM   18  C           1     -20.799  -7.734  -3.684  0.00  0.00     0.045 C 
BRANCH  18  19
HETATM   19 Se           1     -20.583  -8.062  -1.774  0.00  0.00     0.000 Se
HETATM   20  H           1     -19.642  -9.179  -1.955  0.00  0.00     0.000 HD
ENDBRANCH  18  19
ENDBRANCH  17  18
BRANCH  17  21
HETATM   21  N           1     -22.239  -5.995  -2.687  0.00  0.00    -0.067 N 
HETATM   22  H           1     -21.601  -5.862  -1.870  0.00  0.00     0.275 HD
HETATM   23  H           1     -22.921  -6.759  -2.476  0.00  0.00     0.275 HD
HETATM   24  H           1     -22.758  -5.108  -2.872  0.00  0.00     0.275 HD
ENDBRANCH  17  21
ENDBRANCH  15  17
ENDBRANCH   1  13
TORSDOF 8
ENDMDL
MODEL 7
REMARK VINA RESULT:      -5.6      2.986      5.875
REMARK  8 active torsions:
REMARK  status: ('A' for Active; 'I' for Inactive)
REMARK    1  A    between atoms: C_2  and  C_4 
REMARK    2  A    between atoms: C_4  and  C_23 
REMARK    3  A    between atoms: C_4  and  N_16 
REMARK       I    between atoms: N_16  and  C_17 
REMARK    4  A    between atoms: C_17  and  C_18 
REMARK    5  A    between atoms: C_18  and  C_19 
REMARK    6  A    between atoms: C_18  and  N_21 
REMARK    7  A    between atoms: C_19  and  Se_20 
REMARK    8  A    between atoms: C_23  and  C_24 
ROOT
HETATM    1  C           1     -28.105  -6.856 -16.946  0.00  0.00     0.191 C 
ENDROOT
BRANCH   1   2
HETATM    2  C           1     -28.354  -6.944 -15.460  0.00  0.00     0.197 C 
HETATM    3  O           1     -27.870  -7.890 -14.801  0.00  0.00    -0.646 OA
HETATM    4  O           1     -29.046  -6.074 -14.889  0.00  0.00    -0.646 OA
ENDBRANCH   1   2
BRANCH   1   5
HETATM    5  C           1     -27.041  -5.801 -17.220  0.00  0.00     0.094 C 
BRANCH   5   6
HETATM    6  C           1     -25.733  -6.473 -17.500  0.00  0.00     0.028 A 
HETATM    7  C           1     -24.866  -6.929 -16.536  0.00  0.00     0.114 A 
HETATM    8  N           1     -23.816  -7.464 -17.228  0.00  0.00    -0.360 N 
HETATM    9  H           1     -22.960  -7.909 -16.813  0.00  0.00     0.166 HD
HETATM   10  C           1     -24.081  -7.314 -18.559  0.00  0.00     0.180 A 
HETATM   11  N           1     -25.235  -6.717 -18.754  0.00  0.00    -0.354 N 
ATOM     12  HN          1     -25.667  -6.484 -19.648  1.00  0.00     0.166 HD
ENDBRANCH   5   6
ENDBRANCH   1   5
BRANCH   1  13
HETATM   13  N           1     -29.335  -6.487 -17.620  0.00  0.00    -0.344 N 
HETATM   14  H           1     -30.056  -7.180 -17.772  0.00  0.00     0.163 HD
HETATM   15  C           1     -29.519  -5.201 -18.053  0.00  0.00     0.249 C 
HETATM   16  O           1     -29.169  -4.880 -19.164  0.00  0.00    -0.271 OA
BRANCH  15  17
HETATM   17  C           1     -30.159  -4.183 -17.140  0.00  0.00     0.274 C 
BRANCH  17  18
HETATM   18  C           1     -31.524  -4.688 -16.692  0.00  0.00     0.045 C 
BRANCH  18  19
HETATM   19 Se           1     -32.910  -3.481 -17.341  0.00  0.00     0.000 Se
HETATM   20  H           1     -31.970  -2.602 -18.056  0.00  0.00     0.000 HD
ENDBRANCH  18  19
ENDBRANCH  17  18
BRANCH  17  21
HETATM   21  N           1     -30.324  -2.886 -17.877  0.00  0.00    -0.067 N 
HETATM   22  H           1     -31.261  -2.479 -17.660  0.00  0.00     0.275 HD
HETATM   23  H           1     -30.248  -3.059 -18.906  0.00  0.00     0.275 HD
HETATM   24  H           1     -29.576  -2.219 -17.581  0.00  0.00     0.275 HD
ENDBRANCH  17  21
ENDBRANCH  15  17
ENDBRANCH   1  13
TORSDOF 8
ENDMDL
MODEL 8
REMARK VINA RESULT:      -5.3      3.267      5.943
REMARK  8 active torsions:
REMARK  status: ('A' for Active; 'I' for Inactive)
REMARK    1  A    between atoms: C_2  and  C_4 
REMARK    2  A    between atoms: C_4  and  C_23 
REMARK    3  A    between atoms: C_4  and  N_16 
REMARK       I    between atoms: N_16  and  C_17 
REMARK    4  A    between atoms: C_17  and  C_18 
REMARK    5  A    between atoms: C_18  and  C_19 
REMARK    6  A    between atoms: C_18  and  N_21 
REMARK    7  A    between atoms: C_19  and  Se_20 
REMARK    8  A    between atoms: C_23  and  C_24 
ROOT
HETATM    1  C           1     -27.171  -6.947 -17.560  0.00  0.00     0.191 C 
ENDROOT
BRANCH   1   2
HETATM    2  C           1     -26.744  -6.647 -16.144  0.00  0.00     0.197 C 
HETATM    3  O           1     -26.052  -5.634 -15.902  0.00  0.00    -0.646 OA
HETATM    4  O           1     -27.080  -7.411 -15.215  0.00  0.00    -0.646 OA
ENDBRANCH   1   2
BRANCH   1   5
HETATM    5  C           1     -26.408  -6.046 -18.523  0.00  0.00     0.094 C 
BRANCH   5   6
HETATM    6  C           1     -25.576  -6.887 -19.440  0.00  0.00     0.028 A 
HETATM    7  C           1     -24.243  -7.164 -19.253  0.00  0.00     0.114 A 
HETATM    8  N           1     -23.893  -7.953 -20.313  0.00  0.00    -0.360 N 
HETATM    9  H           1     -22.942  -8.357 -20.500  0.00  0.00     0.166 HD
HETATM   10  C           1     -25.006  -8.120 -21.087  0.00  0.00     0.180 A 
HETATM   11  N           1     -26.040  -7.486 -20.583  0.00  0.00    -0.354 N 
ATOM     12  HN          1     -26.986  -7.447 -20.962  1.00  0.00     0.166 HD
ENDBRANCH   5   6
ENDBRANCH   1   5
BRANCH   1  13
HETATM   13  N           1     -28.594  -6.704 -17.697  0.00  0.00    -0.344 N 
HETATM   14  H           1     -29.254  -7.452 -17.530  0.00  0.00     0.163 HD
HETATM   15  C           1     -29.044  -5.461 -18.053  0.00  0.00     0.249 C 
HETATM   16  O           1     -29.192  -5.182 -19.219  0.00  0.00    -0.271 OA
BRANCH  15  17
HETATM   17  C           1     -29.356  -4.438 -16.987  0.00  0.00     0.274 C 
BRANCH  17  18
HETATM   18  C           1     -30.594  -3.646 -17.389  0.00  0.00     0.045 C 
BRANCH  18  19
HETATM   19 Se           1     -32.192  -4.602 -16.814  0.00  0.00     0.000 Se
HETATM   20  H           1     -33.066  -3.419 -16.886  0.00  0.00     0.000 HD
ENDBRANCH  18  19
ENDBRANCH  17  18
BRANCH  17  21
HETATM   21  N           1     -28.192  -3.503 -16.837  0.00  0.00    -0.067 N 
HETATM   22  H           1     -28.543  -2.523 -16.742  0.00  0.00     0.275 HD
HETATM   23  H           1     -27.578  -3.573 -17.681  0.00  0.00     0.275 HD
HETATM   24  H           1     -27.644  -3.761 -15.986  0.00  0.00     0.275 HD
ENDBRANCH  17  21
ENDBRANCH  15  17
ENDBRANCH   1  13
TORSDOF 8
ENDMDL
MODEL 9
REMARK VINA RESULT:      -5.2     12.037     14.372
REMARK  8 active torsions:
REMARK  status: ('A' for Active; 'I' for Inactive)
REMARK    1  A    between atoms: C_2  and  C_4 
REMARK    2  A    between atoms: C_4  and  C_23 
REMARK    3  A    between atoms: C_4  and  N_16 
REMARK       I    between atoms: N_16  and  C_17 
REMARK    4  A    between atoms: C_17  and  C_18 
REMARK    5  A    between atoms: C_18  and  C_19 
REMARK    6  A    between atoms: C_18  and  N_21 
REMARK    7  A    between atoms: C_19  and  Se_20 
REMARK    8  A    between atoms: C_23  and  C_24 
ROOT
HETATM    1  C           1     -21.308  -7.202  -5.909  0.00  0.00     0.191 C 
ENDROOT
BRANCH   1   2
HETATM    2  C           1     -22.104  -6.335  -4.965  0.00  0.00     0.197 C 
HETATM    3  O           1     -21.583  -5.924  -3.904  0.00  0.00    -0.646 OA
HETATM    4  O           1     -23.284  -6.028  -5.241  0.00  0.00    -0.646 OA
ENDBRANCH   1   2
BRANCH   1   5
HETATM    5  C           1     -20.365  -8.091  -5.110  0.00  0.00     0.094 C 
BRANCH   5   6
HETATM    6  C           1     -20.946  -9.466  -5.003  0.00  0.00     0.028 A 
HETATM    7  C           1     -21.661  -9.931  -3.925  0.00  0.00     0.114 A 
HETATM    8  N           1     -21.994 -11.217  -4.248  0.00  0.00    -0.360 N 
HETATM    9  H           1     -22.545 -11.884  -3.654  0.00  0.00     0.166 HD
HETATM   10  C           1     -21.476 -11.477  -5.485  0.00  0.00     0.180 A 
HETATM   11  N           1     -20.836 -10.435  -5.966  0.00  0.00    -0.354 N 
ATOM     12  HN          1     -20.360 -10.364  -6.865  1.00  0.00     0.166 HD
ENDBRANCH   5   6
ENDBRANCH   1   5
BRANCH   1  13
HETATM   13  N           1     -20.537  -6.359  -6.803  0.00  0.00    -0.344 N 
HETATM   14  H           1     -19.674  -6.704  -7.205  0.00  0.00     0.163 HD
HETATM   15  C           1     -20.974  -5.097  -7.101  0.00  0.00     0.249 C 
HETATM   16  O           1     -20.637  -4.161  -6.416  0.00  0.00    -0.271 OA
BRANCH  15  17
HETATM   17  C           1     -21.882  -4.874  -8.287  0.00  0.00     0.274 C 
BRANCH  17  18
HETATM   18  C           1     -21.135  -4.087  -9.357  0.00  0.00     0.045 C 
BRANCH  18  19
HETATM   19 Se           1     -22.047  -4.288 -11.068  0.00  0.00     0.000 Se
HETATM   20  H           1     -21.646  -2.963 -11.568  0.00  0.00     0.000 HD
ENDBRANCH  18  19
ENDBRANCH  17  18
BRANCH  17  21
HETATM   21  N           1     -23.092  -4.102  -7.852  0.00  0.00    -0.067 N 
HETATM   22  H           1     -23.480  -3.576  -8.667  0.00  0.00     0.275 HD
HETATM   23  H           1     -22.823  -3.428  -7.098  0.00  0.00     0.275 HD
HETATM   24  H           1     -23.814  -4.762  -7.486  0.00  0.00     0.275 HD
ENDBRANCH  17  21
ENDBRANCH  15  17
ENDBRANCH   1  13
TORSDOF 8
ENDMDL
