MODEL 1
REMARK VINA RESULT:      -7.7      0.000      0.000
REMARK  10 active torsions:
REMARK  status: ('A' for Active; 'I' for Inactive)
REMARK       I    between atoms: C_1  and  N_2 
REMARK    1  A    between atoms: C_1  and  C_21 
REMARK    2  A    between atoms: N_2  and  C_12 
REMARK    3  A    between atoms: N_7  and  C_21 
REMARK    4  A    between atoms: C_9  and  C_19 
REMARK    5  A    between atoms: C_12  and  C_13 
REMARK    6  A    between atoms: C_12  and  C_24 
REMARK    7  A    between atoms: C_13  and  C_18 
REMARK    8  A    between atoms: C_19  and  C_20 
REMARK    9  A    between atoms: C_20  and  C_21 
REMARK   10  A    between atoms: O_22  and  C_23 
ROOT
HETATM    1  C           1     -36.442  -0.365 -14.286  0.00  0.00     0.249 C 
HETATM    2  N           1     -35.414  -0.579 -13.408  0.00  0.00    -0.344 N 
HETATM    3  O           1     -37.531  -0.839 -14.069  0.00  0.00    -0.271 OA
HETATM    4  H           1     -34.501  -0.182 -13.591  0.00  0.00     0.163 HD
ENDROOT
BRANCH   2   5
HETATM    5  C           1     -35.633  -1.375 -12.216  0.00  0.00     0.189 C 
BRANCH   5   6
HETATM    6  C           1     -34.298  -1.651 -11.538  0.00  0.00     0.074 C 
BRANCH   6   7
HETATM    7  C           1     -34.126  -3.127 -11.354  0.00  0.00    -0.056 A 
HETATM    8  C           1     -35.169  -3.891 -10.833  0.00  0.00     0.010 A 
HETATM    9  C           1     -35.008  -5.266 -10.661  0.00  0.00     0.037 A 
HETATM   10  C           1     -33.803  -5.876 -11.010  0.00  0.00     0.065 A 
HETATM   11  C           1     -32.760  -5.111 -11.530  0.00  0.00     0.037 A 
HETATM   12  C           1     -32.920  -3.737 -11.702  0.00  0.00     0.010 A 
BRANCH  10  13
HETATM   13  O           1     -33.647  -7.211 -10.843  0.00  0.00    -0.361 OA
HETATM   14  H           1     -32.703  -7.387 -10.692  0.00  0.00     0.217 HD
ENDBRANCH  10  13
ENDBRANCH   6   7
ENDBRANCH   5   6
BRANCH   5  15
HETATM   15  C           1     -36.534  -0.623 -11.268  0.00  0.00     0.197 C 
HETATM   16  O           1     -36.177   0.486 -10.815  0.00  0.00    -0.646 OA
HETATM   17  O           1     -37.637  -1.108 -10.936  0.00  0.00    -0.646 OA
ENDBRANCH   5  15
ENDBRANCH   2   5
BRANCH   1  18
HETATM   18  C           1     -36.214   0.464 -15.527  0.00  0.00     0.275 C 
BRANCH  18  19
HETATM   19  N           1     -35.778   1.844 -15.132  0.00  0.00    -0.066 N 
HETATM   20  H           1     -36.409   2.549 -15.574  0.00  0.00     0.275 HD
HETATM   21  H           1     -35.823   1.939 -14.092  0.00  0.00     0.275 HD
HETATM   22  H           1     -34.796   2.004 -15.456  0.00  0.00     0.275 HD
ENDBRANCH  18  19
BRANCH  18  23
HETATM   23  C           1     -35.134  -0.184 -16.382  0.00  0.00     0.053 C 
BRANCH  23  24
HETATM   24  C           1     -35.600  -1.562 -16.832  0.00  0.00     0.115 C 
BRANCH  24  25
HETATM   25  C           1     -34.546  -2.588 -16.492  0.00  0.00     0.172 C 
HETATM   26  O           1     -33.623  -2.826 -17.300  0.00  0.00    -0.648 OA
HETATM   27  O           1     -34.598  -3.198 -15.403  0.00  0.00    -0.648 OA
ENDBRANCH  24  25
ENDBRANCH  23  24
ENDBRANCH  18  23
ENDBRANCH   1  18
TORSDOF 10
ENDMDL
MODEL 2
REMARK VINA RESULT:      -7.6     13.427     16.892
REMARK  10 active torsions:
REMARK  status: ('A' for Active; 'I' for Inactive)
REMARK       I    between atoms: C_1  and  N_2 
REMARK    1  A    between atoms: C_1  and  C_21 
REMARK    2  A    between atoms: N_2  and  C_12 
REMARK    3  A    between atoms: N_7  and  C_21 
REMARK    4  A    between atoms: C_9  and  C_19 
REMARK    5  A    between atoms: C_12  and  C_13 
REMARK    6  A    between atoms: C_12  and  C_24 
REMARK    7  A    between atoms: C_13  and  C_18 
REMARK    8  A    between atoms: C_19  and  C_20 
REMARK    9  A    between atoms: C_20  and  C_21 
REMARK   10  A    between atoms: O_22  and  C_23 
ROOT
HETATM    1  C           1     -21.455  -6.806  -5.478  0.00  0.00     0.249 C 
HETATM    2  N           1     -21.471  -5.473  -5.787  0.00  0.00    -0.344 N 
HETATM    3  O           1     -21.032  -7.606  -6.277  0.00  0.00    -0.271 OA
HETATM    4  H           1     -21.826  -4.802  -5.117  0.00  0.00     0.163 HD
ENDROOT
BRANCH   2   5
HETATM    5  C           1     -20.979  -5.021  -7.075  0.00  0.00     0.189 C 
BRANCH   5   6
HETATM    6  C           1     -21.828  -3.854  -7.560  0.00  0.00     0.074 C 
BRANCH   6   7
HETATM    7  C           1     -22.325  -4.138  -8.944  0.00  0.00    -0.056 A 
HETATM    8  C           1     -21.435  -4.135 -10.018  0.00  0.00     0.010 A 
HETATM    9  C           1     -21.899  -4.399 -11.307  0.00  0.00     0.037 A 
HETATM   10  C           1     -23.250  -4.666 -11.522  0.00  0.00     0.065 A 
HETATM   11  C           1     -24.139  -4.669 -10.447  0.00  0.00     0.037 A 
HETATM   12  C           1     -23.677  -4.405  -9.158  0.00  0.00     0.010 A 
BRANCH  10  13
HETATM   13  O           1     -23.700  -4.923 -12.774  0.00  0.00    -0.361 OA
HETATM   14  H           1     -24.203  -4.148 -13.077  0.00  0.00     0.217 HD
ENDBRANCH  10  13
ENDBRANCH   6   7
ENDBRANCH   5   6
BRANCH   5  15
HETATM   15  C           1     -19.544  -4.577  -6.937  0.00  0.00     0.197 C 
HETATM   16  O           1     -18.860  -4.347  -7.958  0.00  0.00    -0.646 OA
HETATM   17  O           1     -19.039  -4.438  -5.802  0.00  0.00    -0.646 OA
ENDBRANCH   5  15
ENDBRANCH   2   5
BRANCH   1  18
HETATM   18  C           1     -21.966  -7.276  -4.138  0.00  0.00     0.275 C 
BRANCH  18  19
HETATM   19  N           1     -21.696  -8.744  -3.989  0.00  0.00    -0.066 N 
HETATM   20  H           1     -21.065  -8.902  -3.171  0.00  0.00     0.275 HD
HETATM   21  H           1     -22.597  -9.251  -3.836  0.00  0.00     0.275 HD
HETATM   22  H           1     -21.235  -9.103  -4.857  0.00  0.00     0.275 HD
ENDBRANCH  18  19
BRANCH  18  23
HETATM   23  C           1     -21.257  -6.515  -3.027  0.00  0.00     0.053 C 
BRANCH  23  24
HETATM   24  C           1     -22.253  -6.178  -1.925  0.00  0.00     0.115 C 
BRANCH  24  25
HETATM   25  C           1     -22.226  -7.260  -0.873  0.00  0.00     0.172 C 
HETATM   26  O           1     -21.250  -8.038  -0.802  0.00  0.00    -0.648 OA
HETATM   27  O           1     -23.179  -7.378  -0.074  0.00  0.00    -0.648 OA
ENDBRANCH  24  25
ENDBRANCH  23  24
ENDBRANCH  18  23
ENDBRANCH   1  18
TORSDOF 10
ENDMDL
MODEL 3
REMARK VINA RESULT:      -7.2      9.823     12.013
REMARK  10 active torsions:
REMARK  status: ('A' for Active; 'I' for Inactive)
REMARK       I    between atoms: C_1  and  N_2 
REMARK    1  A    between atoms: C_1  and  C_21 
REMARK    2  A    between atoms: N_2  and  C_12 
REMARK    3  A    between atoms: N_7  and  C_21 
REMARK    4  A    between atoms: C_9  and  C_19 
REMARK    5  A    between atoms: C_12  and  C_13 
REMARK    6  A    between atoms: C_12  and  C_24 
REMARK    7  A    between atoms: C_13  and  C_18 
REMARK    8  A    between atoms: C_19  and  C_20 
REMARK    9  A    between atoms: C_20  and  C_21 
REMARK   10  A    between atoms: O_22  and  C_23 
ROOT
HETATM    1  C           1     -26.208  -6.512 -19.847  0.00  0.00     0.249 C 
HETATM    2  N           1     -25.862  -6.737 -18.542  0.00  0.00    -0.344 N 
HETATM    3  O           1     -27.195  -5.868 -20.108  0.00  0.00    -0.271 OA
HETATM    4  H           1     -25.035  -7.277 -18.323  0.00  0.00     0.163 HD
ENDROOT
BRANCH   2   5
HETATM    5  C           1     -26.683  -6.203 -17.472  0.00  0.00     0.189 C 
BRANCH   5   6
HETATM    6  C           1     -28.036  -6.899 -17.475  0.00  0.00     0.074 C 
BRANCH   6   7
HETATM    7  C           1     -29.126  -5.873 -17.432  0.00  0.00    -0.056 A 
HETATM    8  C           1     -30.436  -6.259 -17.148  0.00  0.00     0.010 A 
HETATM    9  C           1     -31.451  -5.303 -17.109  0.00  0.00     0.037 A 
HETATM   10  C           1     -31.157  -3.962 -17.352  0.00  0.00     0.065 A 
HETATM   11  C           1     -29.847  -3.577 -17.637  0.00  0.00     0.037 A 
HETATM   12  C           1     -28.832  -4.532 -17.677  0.00  0.00     0.010 A 
BRANCH  10  13
HETATM   13  O           1     -32.143  -3.034 -17.314  0.00  0.00    -0.361 OA
HETATM   14  H           1     -32.947  -3.434 -17.688  0.00  0.00     0.217 HD
ENDBRANCH  10  13
ENDBRANCH   6   7
ENDBRANCH   5   6
BRANCH   5  15
HETATM   15  C           1     -25.998  -6.438 -16.149  0.00  0.00     0.197 C 
HETATM   16  O           1     -25.071  -5.684 -15.782  0.00  0.00    -0.646 OA
HETATM   17  O           1     -26.358  -7.387 -15.419  0.00  0.00    -0.646 OA
ENDBRANCH   5  15
ENDBRANCH   2   5
BRANCH   1  18
HETATM   18  C           1     -25.354  -7.068 -20.961  0.00  0.00     0.275 C 
BRANCH  18  19
HETATM   19  N           1     -24.856  -5.941 -21.817  0.00  0.00    -0.066 N 
HETATM   20  H           1     -25.300  -5.999 -22.762  0.00  0.00     0.275 HD
HETATM   21  H           1     -25.104  -5.029 -21.372  0.00  0.00     0.275 HD
HETATM   22  H           1     -23.818  -6.012 -21.917  0.00  0.00     0.275 HD
ENDBRANCH  18  19
BRANCH  18  23
HETATM   23  C           1     -24.167  -7.816 -20.368  0.00  0.00     0.053 C 
BRANCH  23  24
HETATM   24  C           1     -23.346  -8.437 -21.490  0.00  0.00     0.115 C 
BRANCH  24  25
HETATM   25  C           1     -21.903  -8.546 -21.057  0.00  0.00     0.172 C 
HETATM   26  O           1     -21.523  -7.990 -20.004  0.00  0.00    -0.648 OA
HETATM   27  O           1     -21.091  -9.192 -21.752  0.00  0.00    -0.648 OA
ENDBRANCH  24  25
ENDBRANCH  23  24
ENDBRANCH  18  23
ENDBRANCH   1  18
TORSDOF 10
ENDMDL
MODEL 4
REMARK VINA RESULT:      -6.7     14.531     17.204
REMARK  10 active torsions:
REMARK  status: ('A' for Active; 'I' for Inactive)
REMARK       I    between atoms: C_1  and  N_2 
REMARK    1  A    between atoms: C_1  and  C_21 
REMARK    2  A    between atoms: N_2  and  C_12 
REMARK    3  A    between atoms: N_7  and  C_21 
REMARK    4  A    between atoms: C_9  and  C_19 
REMARK    5  A    between atoms: C_12  and  C_13 
REMARK    6  A    between atoms: C_12  and  C_24 
REMARK    7  A    between atoms: C_13  and  C_18 
REMARK    8  A    between atoms: C_19  and  C_20 
REMARK    9  A    between atoms: C_20  and  C_21 
REMARK   10  A    between atoms: O_22  and  C_23 
ROOT
HETATM    1  C           1     -20.364  -5.343  -6.014  0.00  0.00     0.249 C 
HETATM    2  N           1     -20.283  -6.704  -6.132  0.00  0.00    -0.344 N 
HETATM    3  O           1     -20.321  -4.827  -4.922  0.00  0.00    -0.271 OA
HETATM    4  H           1     -20.319  -7.136  -7.046  0.00  0.00     0.163 HD
ENDROOT
BRANCH   2   5
HETATM    5  C           1     -20.147  -7.528  -4.946  0.00  0.00     0.189 C 
BRANCH   5   6
HETATM    6  C           1     -21.498  -8.134  -4.592  0.00  0.00     0.074 C 
BRANCH   6   7
HETATM    7  C           1     -21.721  -8.029  -3.115  0.00  0.00    -0.056 A 
HETATM    8  C           1     -21.701  -9.177  -2.323  0.00  0.00     0.010 A 
HETATM    9  C           1     -21.910  -9.079  -0.948  0.00  0.00     0.037 A 
HETATM   10  C           1     -22.139  -7.833  -0.363  0.00  0.00     0.065 A 
HETATM   11  C           1     -22.160  -6.685  -1.156  0.00  0.00     0.037 A 
HETATM   12  C           1     -21.951  -6.783  -2.531  0.00  0.00     0.010 A 
BRANCH  10  13
HETATM   13  O           1     -22.343  -7.738   0.972  0.00  0.00    -0.361 OA
HETATM   14  H           1     -21.599  -8.175   1.421  0.00  0.00     0.217 HD
ENDBRANCH  10  13
ENDBRANCH   6   7
ENDBRANCH   5   6
BRANCH   5  15
HETATM   15  C           1     -19.154  -8.632  -5.213  0.00  0.00     0.197 C 
HETATM   16  O           1     -18.583  -8.704  -6.323  0.00  0.00    -0.646 OA
HETATM   17  O           1     -18.900  -9.474  -4.324  0.00  0.00    -0.646 OA
ENDBRANCH   5  15
ENDBRANCH   2   5
BRANCH   1  18
HETATM   18  C           1     -20.505  -4.486  -7.248  0.00  0.00     0.275 C 
BRANCH  18  19
HETATM   19  N           1     -19.166  -4.336  -7.907  0.00  0.00    -0.066 N 
HETATM   20  H           1     -18.664  -3.518  -7.495  0.00  0.00     0.275 HD
HETATM   21  H           1     -18.603  -5.203  -7.755  0.00  0.00     0.275 HD
HETATM   22  H           1     -19.299  -4.181  -8.933  0.00  0.00     0.275 HD
ENDBRANCH  18  19
BRANCH  18  23
HETATM   23  C           1     -21.477  -5.145  -8.217  0.00  0.00     0.053 C 
BRANCH  23  24
HETATM   24  C           1     -22.232  -4.071  -8.989  0.00  0.00     0.115 C 
BRANCH  24  25
HETATM   25  C           1     -21.749  -4.043 -10.419  0.00  0.00     0.172 C 
HETATM   26  O           1     -22.467  -3.542 -11.311  0.00  0.00    -0.648 OA
HETATM   27  O           1     -20.632  -4.519 -10.710  0.00  0.00    -0.648 OA
ENDBRANCH  24  25
ENDBRANCH  23  24
ENDBRANCH  18  23
ENDBRANCH   1  18
TORSDOF 10
ENDMDL
MODEL 5
REMARK VINA RESULT:      -6.3     15.173     17.850
REMARK  10 active torsions:
REMARK  status: ('A' for Active; 'I' for Inactive)
REMARK       I    between atoms: C_1  and  N_2 
REMARK    1  A    between atoms: C_1  and  C_21 
REMARK    2  A    between atoms: N_2  and  C_12 
REMARK    3  A    between atoms: N_7  and  C_21 
REMARK    4  A    between atoms: C_9  and  C_19 
REMARK    5  A    between atoms: C_12  and  C_13 
REMARK    6  A    between atoms: C_12  and  C_24 
REMARK    7  A    between atoms: C_13  and  C_18 
REMARK    8  A    between atoms: C_19  and  C_20 
REMARK    9  A    between atoms: C_20  and  C_21 
REMARK   10  A    between atoms: O_22  and  C_23 
ROOT
HETATM    1  C           1     -20.528  -7.205  -5.630  0.00  0.00     0.249 C 
HETATM    2  N           1     -20.791  -7.905  -4.483  0.00  0.00    -0.344 N 
HETATM    3  O           1     -19.555  -7.474  -6.292  0.00  0.00    -0.271 OA
HETATM    4  H           1     -21.607  -7.680  -3.928  0.00  0.00     0.163 HD
ENDROOT
BRANCH   2   5
HETATM    5  C           1     -19.899  -8.970  -4.063  0.00  0.00     0.189 C 
BRANCH   5   6
HETATM    6  C           1     -19.402  -8.687  -2.652  0.00  0.00     0.074 C 
BRANCH   6   7
HETATM    7  C           1     -20.570  -8.409  -1.757  0.00  0.00    -0.056 A 
HETATM    8  C           1     -21.004  -9.380  -0.856  0.00  0.00     0.010 A 
HETATM    9  C           1     -22.093  -9.120  -0.023  0.00  0.00     0.037 A 
HETATM   10  C           1     -22.747  -7.890  -0.091  0.00  0.00     0.065 A 
HETATM   11  C           1     -22.312  -6.920  -0.994  0.00  0.00     0.037 A 
HETATM   12  C           1     -21.224  -7.179  -1.827  0.00  0.00     0.010 A 
BRANCH  10  13
HETATM   13  O           1     -23.804  -7.639   0.718  0.00  0.00    -0.361 OA
HETATM   14  H           1     -24.191  -6.788   0.450  0.00  0.00     0.217 HD
ENDBRANCH  10  13
ENDBRANCH   6   7
ENDBRANCH   5   6
BRANCH   5  15
HETATM   15  C           1     -20.641 -10.283  -4.083  0.00  0.00     0.197 C 
HETATM   16  O           1     -20.037 -11.346  -3.819  0.00  0.00    -0.646 OA
HETATM   17  O           1     -21.859 -10.309  -4.363  0.00  0.00    -0.646 OA
ENDBRANCH   5  15
ENDBRANCH   2   5
BRANCH   1  18
HETATM   18  C           1     -21.457  -6.098  -6.067  0.00  0.00     0.275 C 
BRANCH  18  19
HETATM   19  N           1     -22.611  -6.009  -5.113  0.00  0.00    -0.066 N 
HETATM   20  H           1     -23.057  -5.067  -5.191  0.00  0.00     0.275 HD
HETATM   21  H           1     -23.313  -6.747  -5.345  0.00  0.00     0.275 HD
HETATM   22  H           1     -22.266  -6.150  -4.136  0.00  0.00     0.275 HD
ENDBRANCH  18  19
BRANCH  18  23
HETATM   23  C           1     -20.703  -4.776  -6.075  0.00  0.00     0.053 C 
BRANCH  23  24
HETATM   24  C           1     -21.272  -3.873  -7.162  0.00  0.00     0.115 C 
BRANCH  24  25
HETATM   25  C           1     -21.047  -4.506  -8.513  0.00  0.00     0.172 C 
HETATM   26  O           1     -22.013  -4.687  -9.287  0.00  0.00    -0.648 OA
HETATM   27  O           1     -19.897  -4.850  -8.858  0.00  0.00    -0.648 OA
ENDBRANCH  24  25
ENDBRANCH  23  24
ENDBRANCH  18  23
ENDBRANCH   1  18
TORSDOF 10
ENDMDL
MODEL 6
REMARK VINA RESULT:      -6.3     15.076     18.320
REMARK  10 active torsions:
REMARK  status: ('A' for Active; 'I' for Inactive)
REMARK       I    between atoms: C_1  and  N_2 
REMARK    1  A    between atoms: C_1  and  C_21 
REMARK    2  A    between atoms: N_2  and  C_12 
REMARK    3  A    between atoms: N_7  and  C_21 
REMARK    4  A    between atoms: C_9  and  C_19 
REMARK    5  A    between atoms: C_12  and  C_13 
REMARK    6  A    between atoms: C_12  and  C_24 
REMARK    7  A    between atoms: C_13  and  C_18 
REMARK    8  A    between atoms: C_19  and  C_20 
REMARK    9  A    between atoms: C_20  and  C_21 
REMARK   10  A    between atoms: O_22  and  C_23 
ROOT
HETATM    1  C           1     -21.927  -6.748  -2.137  0.00  0.00     0.249 C 
HETATM    2  N           1     -21.137  -7.293  -3.112  0.00  0.00    -0.344 N 
HETATM    3  O           1     -22.746  -5.907  -2.421  0.00  0.00    -0.271 OA
HETATM    4  H           1     -20.450  -7.997  -2.873  0.00  0.00     0.163 HD
ENDROOT
BRANCH   2   5
HETATM    5  C           1     -21.282  -6.860  -4.489  0.00  0.00     0.189 C 
BRANCH   5   6
HETATM    6  C           1     -20.550  -5.541  -4.686  0.00  0.00     0.074 C 
BRANCH   6   7
HETATM    7  C           1     -20.731  -5.074  -6.097  0.00  0.00    -0.056 A 
HETATM    8  C           1     -22.015  -4.926  -6.623  0.00  0.00     0.010 A 
HETATM    9  C           1     -22.183  -4.492  -7.938  0.00  0.00     0.037 A 
HETATM   10  C           1     -21.070  -4.206  -8.727  0.00  0.00     0.065 A 
HETATM   11  C           1     -19.786  -4.355  -8.201  0.00  0.00     0.037 A 
HETATM   12  C           1     -19.617  -4.789  -6.886  0.00  0.00     0.010 A 
BRANCH  10  13
HETATM   13  O           1     -21.234  -3.785 -10.004  0.00  0.00    -0.361 OA
HETATM   14  H           1     -22.185  -3.794 -10.203  0.00  0.00     0.217 HD
ENDBRANCH  10  13
ENDBRANCH   6   7
ENDBRANCH   5   6
BRANCH   5  15
HETATM   15  C           1     -20.697  -7.904  -5.407  0.00  0.00     0.197 C 
HETATM   16  O           1     -21.448  -8.582  -6.142  0.00  0.00    -0.646 OA
HETATM   17  O           1     -19.461  -8.091  -5.435  0.00  0.00    -0.646 OA
ENDBRANCH   5  15
ENDBRANCH   2   5
BRANCH   1  18
HETATM   18  C           1     -21.775  -7.197  -0.704  0.00  0.00     0.275 C 
BRANCH  18  19
HETATM   19  N           1     -23.100  -7.679  -0.190  0.00  0.00    -0.066 N 
HETATM   20  H           1     -23.813  -6.925  -0.302  0.00  0.00     0.275 HD
HETATM   21  H           1     -23.397  -8.523  -0.730  0.00  0.00     0.275 HD
HETATM   22  H           1     -23.011  -7.926   0.823  0.00  0.00     0.275 HD
ENDBRANCH  18  19
BRANCH  18  23
HETATM   23  C           1     -20.760  -8.330  -0.630  0.00  0.00     0.053 C 
BRANCH  23  24
HETATM   24  C           1     -21.460  -9.612  -0.199  0.00  0.00     0.115 C 
BRANCH  24  25
HETATM   25  C           1     -21.593 -10.537  -1.385  0.00  0.00     0.172 C 
HETATM   26  O           1     -22.253 -10.179  -2.385  0.00  0.00    -0.648 OA
HETATM   27  O           1     -21.045 -11.659  -1.367  0.00  0.00    -0.648 OA
ENDBRANCH  24  25
ENDBRANCH  23  24
ENDBRANCH  18  23
ENDBRANCH   1  18
TORSDOF 10
ENDMDL
MODEL 7
REMARK VINA RESULT:      -6.2     16.004     18.604
REMARK  10 active torsions:
REMARK  status: ('A' for Active; 'I' for Inactive)
REMARK       I    between atoms: C_1  and  N_2 
REMARK    1  A    between atoms: C_1  and  C_21 
REMARK    2  A    between atoms: N_2  and  C_12 
REMARK    3  A    between atoms: N_7  and  C_21 
REMARK    4  A    between atoms: C_9  and  C_19 
REMARK    5  A    between atoms: C_12  and  C_13 
REMARK    6  A    between atoms: C_12  and  C_24 
REMARK    7  A    between atoms: C_13  and  C_18 
REMARK    8  A    between atoms: C_19  and  C_20 
REMARK    9  A    between atoms: C_20  and  C_21 
REMARK   10  A    between atoms: O_22  and  C_23 
ROOT
HETATM    1  C           1     -20.791  -8.542  -3.819  0.00  0.00     0.249 C 
HETATM    2  N           1     -20.653  -8.066  -2.544  0.00  0.00    -0.344 N 
HETATM    3  O           1     -21.772  -9.177  -4.125  0.00  0.00    -0.271 OA
HETATM    4  H           1     -19.831  -7.535  -2.288  0.00  0.00     0.163 HD
ENDROOT
BRANCH   2   5
HETATM    5  C           1     -21.686  -8.324  -1.558  0.00  0.00     0.189 C 
BRANCH   5   6
HETATM    6  C           1     -21.067  -8.991  -0.338  0.00  0.00     0.074 C 
BRANCH   6   7
HETATM    7  C           1     -21.770 -10.284  -0.064  0.00  0.00    -0.056 A 
HETATM    8  C           1     -23.065 -10.488  -0.542  0.00  0.00     0.010 A 
HETATM    9  C           1     -23.720 -11.693  -0.287  0.00  0.00     0.037 A 
HETATM   10  C           1     -23.081 -12.693   0.447  0.00  0.00     0.065 A 
HETATM   11  C           1     -21.788 -12.487   0.925  0.00  0.00     0.037 A 
HETATM   12  C           1     -21.132 -11.283   0.670  0.00  0.00     0.010 A 
BRANCH  10  13
HETATM   13  O           1     -23.718 -13.863   0.695  0.00  0.00    -0.361 OA
HETATM   14  H           1     -23.505 -14.480  -0.025  0.00  0.00     0.217 HD
ENDBRANCH  10  13
ENDBRANCH   6   7
ENDBRANCH   5   6
BRANCH   5  15
HETATM   15  C           1     -22.326  -7.020  -1.149  0.00  0.00     0.197 C 
HETATM   16  O           1     -22.152  -5.994  -1.842  0.00  0.00    -0.646 OA
HETATM   17  O           1     -23.033  -6.966  -0.119  0.00  0.00    -0.646 OA
ENDBRANCH   5  15
ENDBRANCH   2   5
BRANCH   1  18
HETATM   18  C           1     -19.717  -8.274  -4.845  0.00  0.00     0.275 C 
BRANCH  18  19
HETATM   19  N           1     -19.246  -9.575  -5.426  0.00  0.00    -0.066 N 
HETATM   20  H           1     -18.215  -9.667  -5.285  0.00  0.00     0.275 HD
HETATM   21  H           1     -19.735 -10.366  -4.950  0.00  0.00     0.275 HD
HETATM   22  H           1     -19.460  -9.596  -6.450  0.00  0.00     0.275 HD
ENDBRANCH  18  19
BRANCH  18  23
HETATM   23  C           1     -20.280  -7.398  -5.955  0.00  0.00     0.053 C 
BRANCH  23  24
HETATM   24  C           1     -20.614  -6.021  -5.396  0.00  0.00     0.115 C 
BRANCH  24  25
HETATM   25  C           1     -22.035  -5.661  -5.758  0.00  0.00     0.172 C 
HETATM   26  O           1     -22.260  -4.908  -6.730  0.00  0.00    -0.648 OA
HETATM   27  O           1     -22.985  -6.116  -5.086  0.00  0.00    -0.648 OA
ENDBRANCH  24  25
ENDBRANCH  23  24
ENDBRANCH  18  23
ENDBRANCH   1  18
TORSDOF 10
ENDMDL
MODEL 8
REMARK VINA RESULT:      -6.0     14.829     17.390
REMARK  10 active torsions:
REMARK  status: ('A' for Active; 'I' for Inactive)
REMARK       I    between atoms: C_1  and  N_2 
REMARK    1  A    between atoms: C_1  and  C_21 
REMARK    2  A    between atoms: N_2  and  C_12 
REMARK    3  A    between atoms: N_7  and  C_21 
REMARK    4  A    between atoms: C_9  and  C_19 
REMARK    5  A    between atoms: C_12  and  C_13 
REMARK    6  A    between atoms: C_12  and  C_24 
REMARK    7  A    between atoms: C_13  and  C_18 
REMARK    8  A    between atoms: C_19  and  C_20 
REMARK    9  A    between atoms: C_20  and  C_21 
REMARK   10  A    between atoms: O_22  and  C_23 
ROOT
HETATM    1  C           1     -21.675  -6.356  -4.803  0.00  0.00     0.249 C 
HETATM    2  N           1     -20.950  -6.838  -3.747  0.00  0.00    -0.344 N 
HETATM    3  O           1     -22.871  -6.519  -4.841  0.00  0.00    -0.271 OA
HETATM    4  H           1     -19.948  -6.701  -3.715  0.00  0.00     0.163 HD
ENDROOT
BRANCH   2   5
HETATM    5  C           1     -21.619  -7.547  -2.672  0.00  0.00     0.189 C 
BRANCH   5   6
HETATM    6  C           1     -20.628  -8.475  -1.984  0.00  0.00     0.074 C 
BRANCH   6   7
HETATM    7  C           1     -21.364  -9.628  -1.375  0.00  0.00    -0.056 A 
HETATM    8  C           1     -21.029 -10.071  -0.096  0.00  0.00     0.010 A 
HETATM    9  C           1     -21.714 -11.146   0.472  0.00  0.00     0.037 A 
HETATM   10  C           1     -22.733 -11.777  -0.240  0.00  0.00     0.065 A 
HETATM   11  C           1     -23.067 -11.335  -1.520  0.00  0.00     0.037 A 
HETATM   12  C           1     -22.383 -10.260  -2.087  0.00  0.00     0.010 A 
BRANCH  10  13
HETATM   13  O           1     -23.398 -12.821   0.311  0.00  0.00    -0.361 OA
HETATM   14  H           1     -24.174 -12.470   0.779  0.00  0.00     0.217 HD
ENDBRANCH  10  13
ENDBRANCH   6   7
ENDBRANCH   5   6
BRANCH   5  15
HETATM   15  C           1     -22.156  -6.552  -1.673  0.00  0.00     0.197 C 
HETATM   16  O           1     -21.922  -5.333  -1.818  0.00  0.00    -0.646 OA
HETATM   17  O           1     -22.835  -6.948  -0.701  0.00  0.00    -0.646 OA
ENDBRANCH   5  15
ENDBRANCH   2   5
BRANCH   1  18
HETATM   18  C           1     -20.979  -5.618  -5.921  0.00  0.00     0.275 C 
BRANCH  18  19
HETATM   19  N           1     -20.178  -6.589  -6.737  0.00  0.00    -0.066 N 
HETATM   20  H           1     -19.879  -7.388  -6.134  0.00  0.00     0.275 HD
HETATM   21  H           1     -20.763  -6.948  -7.525  0.00  0.00     0.275 HD
HETATM   22  H           1     -19.333  -6.107  -7.120  0.00  0.00     0.275 HD
ENDBRANCH  18  19
BRANCH  18  23
HETATM   23  C           1     -22.016  -4.944  -6.809  0.00  0.00     0.053 C 
BRANCH  23  24
HETATM   24  C           1     -21.340  -3.877  -7.661  0.00  0.00     0.115 C 
BRANCH  24  25
HETATM   25  C           1     -21.430  -4.263  -9.118  0.00  0.00     0.172 C 
HETATM   26  O           1     -20.425  -4.159  -9.854  0.00  0.00    -0.648 OA
HETATM   27  O           1     -22.508  -4.686  -9.586  0.00  0.00    -0.648 OA
ENDBRANCH  24  25
ENDBRANCH  23  24
ENDBRANCH  18  23
ENDBRANCH   1  18
TORSDOF 10
ENDMDL
MODEL 9
REMARK VINA RESULT:      -6.0     18.454     20.686
REMARK  10 active torsions:
REMARK  status: ('A' for Active; 'I' for Inactive)
REMARK       I    between atoms: C_1  and  N_2 
REMARK    1  A    between atoms: C_1  and  C_21 
REMARK    2  A    between atoms: N_2  and  C_12 
REMARK    3  A    between atoms: N_7  and  C_21 
REMARK    4  A    between atoms: C_9  and  C_19 
REMARK    5  A    between atoms: C_12  and  C_13 
REMARK    6  A    between atoms: C_12  and  C_24 
REMARK    7  A    between atoms: C_13  and  C_18 
REMARK    8  A    between atoms: C_19  and  C_20 
REMARK    9  A    between atoms: C_20  and  C_21 
REMARK   10  A    between atoms: O_22  and  C_23 
ROOT
HETATM    1  C           1     -17.682  -9.910  -3.000  0.00  0.00     0.249 C 
HETATM    2  N           1     -18.480  -9.481  -4.026  0.00  0.00    -0.344 N 
HETATM    3  O           1     -18.176 -10.409  -2.017  0.00  0.00    -0.271 OA
HETATM    4  H           1     -18.066  -9.063  -4.849  0.00  0.00     0.163 HD
ENDROOT
BRANCH   2   5
HETATM    5  C           1     -19.921  -9.623  -3.931  0.00  0.00     0.189 C 
BRANCH   5   6
HETATM    6  C           1     -20.561  -8.246  -3.830  0.00  0.00     0.074 C 
BRANCH   6   7
HETATM    7  C           1     -21.336  -8.148  -2.552  0.00  0.00    -0.056 A 
HETATM    8  C           1     -21.689  -9.306  -1.861  0.00  0.00     0.010 A 
HETATM    9  C           1     -22.412  -9.214  -0.671  0.00  0.00     0.037 A 
HETATM   10  C           1     -22.781  -7.964  -0.173  0.00  0.00     0.065 A 
HETATM   11  C           1     -22.428  -6.807  -0.866  0.00  0.00     0.037 A 
HETATM   12  C           1     -21.706  -6.898  -2.056  0.00  0.00     0.010 A 
BRANCH  10  13
HETATM   13  O           1     -23.482  -7.875   0.982  0.00  0.00    -0.361 OA
HETATM   14  H           1     -24.385  -7.587   0.764  0.00  0.00     0.217 HD
ENDBRANCH  10  13
ENDBRANCH   6   7
ENDBRANCH   5   6
BRANCH   5  15
HETATM   15  C           1     -20.437 -10.330  -5.161  0.00  0.00     0.197 C 
HETATM   16  O           1     -21.021  -9.680  -6.056  0.00  0.00    -0.646 OA
HETATM   17  O           1     -20.280 -11.564  -5.285  0.00  0.00    -0.646 OA
ENDBRANCH   5  15
ENDBRANCH   2   5
BRANCH   1  18
HETATM   18  C           1     -16.183  -9.762  -3.098  0.00  0.00     0.275 C 
BRANCH  18  19
HETATM   19  N           1     -15.522 -10.946  -2.457  0.00  0.00    -0.066 N 
HETATM   20  H           1     -16.057 -11.814  -2.691  0.00  0.00     0.275 HD
HETATM   21  H           1     -14.543 -11.034  -2.812  0.00  0.00     0.275 HD
HETATM   22  H           1     -15.508 -10.817  -1.419  0.00  0.00     0.275 HD
ENDBRANCH  18  19
BRANCH  18  23
HETATM   23  C           1     -15.774  -9.685  -4.562  0.00  0.00     0.053 C 
BRANCH  23  24
HETATM   24  C           1     -15.250 -11.041  -5.017  0.00  0.00     0.115 C 
BRANCH  24  25
HETATM   25  C           1     -16.138 -11.583  -6.111  0.00  0.00     0.172 C 
HETATM   26  O           1     -17.221 -11.017  -6.374  0.00  0.00    -0.648 OA
HETATM   27  O           1     -15.789 -12.596  -6.753  0.00  0.00    -0.648 OA
ENDBRANCH  24  25
ENDBRANCH  23  24
ENDBRANCH  18  23
ENDBRANCH   1  18
TORSDOF 10
ENDMDL
