MODEL 1
REMARK VINA RESULT:      -6.2      0.000      0.000
REMARK  8 active torsions:
REMARK  status: ('A' for Active; 'I' for Inactive)
REMARK    1  A    between atoms: C_4  and  C_9 
REMARK    2  A    between atoms: C_5  and  N_17 
REMARK    3  A    between atoms: C_5  and  C_6 
REMARK    4  A    between atoms: C_6  and  C_22 
REMARK       I    between atoms: C_9  and  N_25 
REMARK    5  A    between atoms: C_21  and  C_22 
REMARK    6  A    between atoms: C_21  and  C_29 
REMARK    7  A    between atoms: N_25  and  C_29 
REMARK    8  A    between atoms: C_28  and  C_29 
ROOT
HETATM    1  C           1     -27.231  -6.272 -16.740  0.00  0.00     0.249 C 
HETATM    2  H           1     -26.604  -5.024 -18.267  0.00  0.00     0.163 HD
HETATM    3  O           1     -27.179  -7.394 -16.293  0.00  0.00    -0.271 OA
HETATM    4  N           1     -26.561  -5.964 -17.893  0.00  0.00    -0.345 N 
ENDROOT
BRANCH   1   5
HETATM    5  C           1     -28.034  -5.213 -16.027  0.00  0.00     0.274 C 
HETATM    6  C           1     -29.419  -5.757 -15.703  0.00  0.00     0.042 C 
HETATM    7  C           1     -30.127  -6.146 -16.994  0.00  0.00     0.004 C 
HETATM    8  C           1     -31.409  -5.335 -17.136  0.00  0.00     0.027 C 
HETATM    9  C           1     -31.070  -3.851 -17.170  0.00  0.00     0.229 C 
HETATM   10  N           1     -30.170  -3.570 -18.338  0.00  0.00    -0.079 N 
HETATM   11  H           1     -29.938  -2.551 -18.361  0.00  0.00     0.274 HD
HETATM   12  H           1     -29.291  -4.126 -18.240  0.00  0.00     0.274 HD
HETATM   13  H           1     -30.655  -3.837 -19.223  0.00  0.00     0.274 HD
HETATM   14  H           1     -28.650  -4.275 -17.795  0.00  0.00     0.275 HD
HETATM   15  N           1     -28.164  -4.007 -16.909  0.00  0.00    -0.067 N 
HETATM   16  H           1     -28.721  -3.273 -16.416  0.00  0.00     0.275 HD
HETATM   17  H           1     -27.214  -3.634 -17.130  0.00  0.00     0.275 HD
ENDBRANCH   1   5
BRANCH   4  18
HETATM   18  C           1     -25.789  -6.982 -18.579  0.00  0.00     0.185 C 
BRANCH  18  19
HETATM   19  C           1     -25.773  -6.686 -20.073  0.00  0.00     0.036 C 
BRANCH  19  20
HETATM   20  C           1     -25.325  -7.928 -20.833  0.00  0.00     0.004 C 
BRANCH  20  21
HETATM   21  C           1     -24.622  -7.511 -22.118  0.00  0.00     0.027 C 
BRANCH  21  22
HETATM   22  C           1     -23.265  -8.198 -22.200  0.00  0.00     0.229 C 
BRANCH  22  23
HETATM   23  N           1     -22.955  -8.855 -20.887  0.00  0.00    -0.079 N 
HETATM   24  H           1     -21.961  -9.176 -20.885  0.00  0.00     0.274 HD
HETATM   25  H           1     -23.588  -9.675 -20.752  0.00  0.00     0.274 HD
HETATM   26  H           1     -23.102  -8.170 -20.112  0.00  0.00     0.274 HD
ENDBRANCH  22  23
ENDBRANCH  21  22
ENDBRANCH  20  21
ENDBRANCH  19  20
ENDBRANCH  18  19
BRANCH  18  27
HETATM   27  C           1     -24.375  -6.981 -18.051  0.00  0.00     0.196 C 
HETATM   28  O           1     -23.449  -6.506 -18.744  0.00  0.00    -0.646 OA
HETATM   29  O           1     -24.131  -7.456 -16.920  0.00  0.00    -0.646 OA
ENDBRANCH  18  27
ENDBRANCH   4  18
TORSDOF 8
ENDMDL
MODEL 2
REMARK VINA RESULT:      -5.9     10.799     11.752
REMARK  8 active torsions:
REMARK  status: ('A' for Active; 'I' for Inactive)
REMARK    1  A    between atoms: C_4  and  C_9 
REMARK    2  A    between atoms: C_5  and  N_17 
REMARK    3  A    between atoms: C_5  and  C_6 
REMARK    4  A    between atoms: C_6  and  C_22 
REMARK       I    between atoms: C_9  and  N_25 
REMARK    5  A    between atoms: C_21  and  C_22 
REMARK    6  A    between atoms: C_21  and  C_29 
REMARK    7  A    between atoms: N_25  and  C_29 
REMARK    8  A    between atoms: C_28  and  C_29 
ROOT
HETATM    1  C           1     -35.409  -0.379 -12.538  0.00  0.00     0.249 C 
HETATM    2  H           1     -34.599  -2.003 -13.533  0.00  0.00     0.163 HD
HETATM    3  O           1     -35.808   0.033 -11.474  0.00  0.00    -0.271 OA
HETATM    4  N           1     -34.934  -1.658 -12.642  0.00  0.00    -0.345 N 
ENDROOT
BRANCH   1   5
HETATM    5  C           1     -35.433   0.519 -13.751  0.00  0.00     0.274 C 
HETATM    6  C           1     -36.867   0.671 -14.241  0.00  0.00     0.042 C 
HETATM    7  C           1     -37.426  -0.696 -14.611  0.00  0.00     0.004 C 
HETATM    8  C           1     -37.822  -0.703 -16.083  0.00  0.00     0.027 C 
HETATM    9  C           1     -36.598  -0.405 -16.940  0.00  0.00     0.229 C 
HETATM   10  N           1     -35.553  -1.455 -16.699  0.00  0.00    -0.079 N 
HETATM   11  H           1     -34.713  -1.250 -17.288  0.00  0.00     0.274 HD
HETATM   12  H           1     -35.280  -1.449 -15.690  0.00  0.00     0.274 HD
HETATM   13  H           1     -35.935  -2.392 -16.953  0.00  0.00     0.274 HD
HETATM   14  H           1     -34.979  -1.026 -15.090  0.00  0.00     0.275 HD
HETATM   15  N           1     -34.595  -0.087 -14.837  0.00  0.00    -0.067 N 
HETATM   16  H           1     -34.612   0.534 -15.677  0.00  0.00     0.275 HD
HETATM   17  H           1     -33.612  -0.190 -14.500  0.00  0.00     0.275 HD
ENDBRANCH   1   5
BRANCH   4  18
HETATM   18  C           1     -34.911  -2.521 -11.477  0.00  0.00     0.185 C 
BRANCH  18  19
HETATM   19  C           1     -35.034  -3.973 -11.918  0.00  0.00     0.036 C 
BRANCH  19  20
HETATM   20  C           1     -35.139  -4.871 -10.692  0.00  0.00     0.004 C 
BRANCH  20  21
HETATM   21  C           1     -34.255  -6.096 -10.882  0.00  0.00     0.027 C 
BRANCH  21  22
HETATM   22  C           1     -34.799  -7.249 -10.049  0.00  0.00     0.229 C 
BRANCH  22  23
HETATM   23  N           1     -33.986  -8.482 -10.308  0.00  0.00    -0.079 N 
HETATM   24  H           1     -33.198  -8.251 -10.953  0.00  0.00     0.274 HD
HETATM   25  H           1     -34.593  -9.212 -10.745  0.00  0.00     0.274 HD
HETATM   26  H           1     -33.603  -8.843  -9.406  0.00  0.00     0.274 HD
ENDBRANCH  22  23
ENDBRANCH  21  22
ENDBRANCH  20  21
ENDBRANCH  19  20
ENDBRANCH  18  19
BRANCH  18  27
HETATM   27  C           1     -33.610  -2.328 -10.736  0.00  0.00     0.196 C 
HETATM   28  O           1     -33.579  -1.630  -9.700  0.00  0.00    -0.646 OA
HETATM   29  O           1     -32.565  -2.867 -11.160  0.00  0.00    -0.646 OA
ENDBRANCH  18  27
ENDBRANCH   4  18
TORSDOF 8
ENDMDL
MODEL 3
REMARK VINA RESULT:      -5.8     13.309     15.430
REMARK  8 active torsions:
REMARK  status: ('A' for Active; 'I' for Inactive)
REMARK    1  A    between atoms: C_4  and  C_9 
REMARK    2  A    between atoms: C_5  and  N_17 
REMARK    3  A    between atoms: C_5  and  C_6 
REMARK    4  A    between atoms: C_6  and  C_22 
REMARK       I    between atoms: C_9  and  N_25 
REMARK    5  A    between atoms: C_21  and  C_22 
REMARK    6  A    between atoms: C_21  and  C_29 
REMARK    7  A    between atoms: N_25  and  C_29 
REMARK    8  A    between atoms: C_28  and  C_29 
ROOT
HETATM    1  C           1     -20.247  -9.059  -4.575  0.00  0.00     0.249 C 
HETATM    2  H           1     -21.274  -8.630  -6.320  0.00  0.00     0.163 HD
HETATM    3  O           1     -19.672  -8.587  -3.622  0.00  0.00    -0.271 OA
HETATM    4  N           1     -20.792  -8.234  -5.522  0.00  0.00    -0.345 N 
ENDROOT
BRANCH   1   5
HETATM    5  C           1     -20.363 -10.556  -4.720  0.00  0.00     0.274 C 
HETATM    6  C           1     -19.057 -11.211  -4.290  0.00  0.00     0.042 C 
HETATM    7  C           1     -17.921 -10.704  -5.168  0.00  0.00     0.004 C 
HETATM    8  C           1     -17.282 -11.877  -5.901  0.00  0.00     0.027 C 
HETATM    9  C           1     -18.328 -12.564  -6.770  0.00  0.00     0.229 C 
HETATM   10  N           1     -18.868 -11.585  -7.771  0.00  0.00    -0.079 N 
HETATM   11  H           1     -19.586 -12.057  -8.367  0.00  0.00     0.274 HD
HETATM   12  H           1     -19.308 -10.781  -7.267  0.00  0.00     0.274 HD
HETATM   13  H           1     -18.090 -11.237  -8.373  0.00  0.00     0.274 HD
HETATM   14  H           1     -19.867 -10.550  -6.754  0.00  0.00     0.275 HD
HETATM   15  N           1     -20.647 -10.899  -6.151  0.00  0.00    -0.067 N 
HETATM   16  H           1     -20.727 -11.936  -6.252  0.00  0.00     0.275 HD
HETATM   17  H           1     -21.543 -10.450  -6.446  0.00  0.00     0.275 HD
ENDBRANCH   1   5
BRANCH   4  18
HETATM   18  C           1     -20.680  -6.795  -5.383  0.00  0.00     0.185 C 
BRANCH  18  19
HETATM   19  C           1     -20.675  -6.152  -6.763  0.00  0.00     0.036 C 
BRANCH  19  20
HETATM   20  C           1     -20.110  -4.741  -6.665  0.00  0.00     0.004 C 
BRANCH  20  21
HETATM   21  C           1     -21.151  -3.741  -7.149  0.00  0.00     0.027 C 
BRANCH  21  22
HETATM   22  C           1     -22.168  -4.453  -8.031  0.00  0.00     0.229 C 
BRANCH  22  23
HETATM   23  N           1     -23.547  -4.232  -7.485  0.00  0.00    -0.079 N 
HETATM   24  H           1     -23.491  -4.065  -6.455  0.00  0.00     0.274 HD
HETATM   25  H           1     -24.133  -5.077  -7.671  0.00  0.00     0.274 HD
HETATM   26  H           1     -23.977  -3.401  -7.949  0.00  0.00     0.274 HD
ENDBRANCH  22  23
ENDBRANCH  21  22
ENDBRANCH  20  21
ENDBRANCH  19  20
ENDBRANCH  18  19
BRANCH  18  27
HETATM   27  C           1     -21.854  -6.275  -4.589  0.00  0.00     0.196 C 
HETATM   28  O           1     -21.697  -5.926  -3.399  0.00  0.00    -0.646 OA
HETATM   29  O           1     -22.981  -6.193  -5.123  0.00  0.00    -0.646 OA
ENDBRANCH  18  27
ENDBRANCH   4  18
TORSDOF 8
ENDMDL
MODEL 4
REMARK VINA RESULT:      -5.8     12.598     14.292
REMARK  8 active torsions:
REMARK  status: ('A' for Active; 'I' for Inactive)
REMARK    1  A    between atoms: C_4  and  C_9 
REMARK    2  A    between atoms: C_5  and  N_17 
REMARK    3  A    between atoms: C_5  and  C_6 
REMARK    4  A    between atoms: C_6  and  C_22 
REMARK       I    between atoms: C_9  and  N_25 
REMARK    5  A    between atoms: C_21  and  C_22 
REMARK    6  A    between atoms: C_21  and  C_29 
REMARK    7  A    between atoms: N_25  and  C_29 
REMARK    8  A    between atoms: C_28  and  C_29 
ROOT
HETATM    1  C           1     -20.812  -7.395  -5.823  0.00  0.00     0.249 C 
HETATM    2  H           1     -22.075  -5.983  -6.657  0.00  0.00     0.163 HD
HETATM    3  O           1     -19.691  -7.847  -5.828  0.00  0.00    -0.271 OA
HETATM    4  N           1     -21.136  -6.362  -6.661  0.00  0.00    -0.345 N 
ENDROOT
BRANCH   1   5
HETATM    5  C           1     -21.853  -7.969  -4.894  0.00  0.00     0.274 C 
HETATM    6  C           1     -22.530  -6.839  -4.129  0.00  0.00     0.042 C 
HETATM    7  C           1     -21.489  -6.080  -3.317  0.00  0.00     0.004 C 
HETATM    8  C           1     -21.844  -6.154  -1.837  0.00  0.00     0.027 C 
HETATM    9  C           1     -21.871  -7.611  -1.394  0.00  0.00     0.229 C 
HETATM   10  N           1     -20.519  -8.225  -1.614  0.00  0.00    -0.079 N 
HETATM   11  H           1     -20.538  -9.225  -1.309  0.00  0.00     0.274 HD
HETATM   12  H           1     -20.276  -8.175  -2.629  0.00  0.00     0.274 HD
HETATM   13  H           1     -19.805  -7.705  -1.058  0.00  0.00     0.274 HD
HETATM   14  H           1     -20.479  -8.383  -3.368  0.00  0.00     0.275 HD
HETATM   15  N           1     -21.194  -8.905  -3.925  0.00  0.00    -0.067 N 
HETATM   16  H           1     -21.915  -9.302  -3.280  0.00  0.00     0.275 HD
HETATM   17  H           1     -20.731  -9.680  -4.449  0.00  0.00     0.275 HD
ENDBRANCH   1   5
BRANCH   4  18
HETATM   18  C           1     -20.136  -5.810  -7.554  0.00  0.00     0.185 C 
BRANCH  18  19
HETATM   19  C           1     -20.824  -5.176  -8.755  0.00  0.00     0.036 C 
BRANCH  19  20
HETATM   20  C           1     -21.859  -4.167  -8.275  0.00  0.00     0.004 C 
BRANCH  20  21
HETATM   21  C           1     -22.653  -3.647  -9.466  0.00  0.00     0.027 C 
BRANCH  21  22
HETATM   22  C           1     -24.142  -3.831  -9.203  0.00  0.00     0.229 C 
BRANCH  22  23
HETATM   23  N           1     -24.911  -3.560 -10.462  0.00  0.00    -0.079 N 
HETATM   24  H           1     -25.129  -2.540 -10.524  0.00  0.00     0.274 HD
HETATM   25  H           1     -25.800  -4.108 -10.450  0.00  0.00     0.274 HD
HETATM   26  H           1     -24.338  -3.844 -11.288  0.00  0.00     0.274 HD
ENDBRANCH  22  23
ENDBRANCH  21  22
ENDBRANCH  20  21
ENDBRANCH  19  20
ENDBRANCH  18  19
BRANCH  18  27
HETATM   27  C           1     -19.333  -4.762  -6.822  0.00  0.00     0.196 C 
HETATM   28  O           1     -18.372  -4.201  -7.392  0.00  0.00    -0.646 OA
HETATM   29  O           1     -19.629  -4.457  -5.647  0.00  0.00    -0.646 OA
ENDBRANCH  18  27
ENDBRANCH   4  18
TORSDOF 8
ENDMDL
MODEL 5
REMARK VINA RESULT:      -5.8     14.987     16.550
REMARK  8 active torsions:
REMARK  status: ('A' for Active; 'I' for Inactive)
REMARK    1  A    between atoms: C_4  and  C_9 
REMARK    2  A    between atoms: C_5  and  N_17 
REMARK    3  A    between atoms: C_5  and  C_6 
REMARK    4  A    between atoms: C_6  and  C_22 
REMARK       I    between atoms: C_9  and  N_25 
REMARK    5  A    between atoms: C_21  and  C_22 
REMARK    6  A    between atoms: C_21  and  C_29 
REMARK    7  A    between atoms: N_25  and  C_29 
REMARK    8  A    between atoms: C_28  and  C_29 
ROOT
HETATM    1  C           1     -20.504  -9.141  -3.085  0.00  0.00     0.249 C 
HETATM    2  H           1     -21.746  -9.184  -4.741  0.00  0.00     0.163 HD
HETATM    3  O           1     -19.773  -8.453  -2.413  0.00  0.00    -0.271 OA
HETATM    4  N           1     -21.133  -8.608  -4.178  0.00  0.00    -0.345 N 
ENDROOT
BRANCH   1   5
HETATM    5  C           1     -20.724 -10.589  -2.720  0.00  0.00     0.274 C 
HETATM    6  C           1     -22.204 -10.824  -2.447  0.00  0.00     0.042 C 
HETATM    7  C           1     -22.657  -9.936  -1.296  0.00  0.00     0.004 C 
HETATM    8  C           1     -23.180 -10.804  -0.158  0.00  0.00     0.027 C 
HETATM    9  C           1     -22.072 -11.734   0.322  0.00  0.00     0.229 C 
HETATM   10  N           1     -20.912 -10.917   0.810  0.00  0.00    -0.079 N 
HETATM   11  H           1     -20.152 -11.555   1.140  0.00  0.00     0.274 HD
HETATM   12  H           1     -20.553 -10.323   0.029  0.00  0.00     0.274 HD
HETATM   13  H           1     -21.222 -10.308   1.599  0.00  0.00     0.274 HD
HETATM   14  H           1     -20.242 -10.308  -0.701  0.00  0.00     0.275 HD
HETATM   15  N           1     -19.931 -10.919  -1.491  0.00  0.00    -0.067 N 
HETATM   16  H           1     -20.083 -11.921  -1.237  0.00  0.00     0.275 HD
HETATM   17  H           1     -18.916 -10.758  -1.678  0.00  0.00     0.275 HD
ENDBRANCH   1   5
BRANCH   4  18
HETATM   18  C           1     -20.921  -7.217  -4.529  0.00  0.00     0.185 C 
BRANCH  18  19
HETATM   19  C           1     -20.755  -7.095  -6.038  0.00  0.00     0.036 C 
BRANCH  19  20
HETATM   20  C           1     -19.955  -5.840  -6.362  0.00  0.00     0.004 C 
BRANCH  20  21
HETATM   21  C           1     -20.541  -5.167  -7.596  0.00  0.00     0.027 C 
BRANCH  21  22
HETATM   22  C           1     -21.356  -3.953  -7.173  0.00  0.00     0.229 C 
BRANCH  22  23
HETATM   23  N           1     -22.818  -4.254  -7.319  0.00  0.00    -0.079 N 
HETATM   24  H           1     -23.356  -3.725  -6.597  0.00  0.00     0.274 HD
HETATM   25  H           1     -22.975  -5.279  -7.192  0.00  0.00     0.274 HD
HETATM   26  H           1     -23.139  -3.968  -8.271  0.00  0.00     0.274 HD
ENDBRANCH  22  23
ENDBRANCH  21  22
ENDBRANCH  20  21
ENDBRANCH  19  20
ENDBRANCH  18  19
BRANCH  18  27
HETATM   27  C           1     -22.111  -6.401  -4.086  0.00  0.00     0.196 C 
HETATM   28  O           1     -23.038  -6.161  -4.889  0.00  0.00    -0.646 OA
HETATM   29  O           1     -22.167  -5.963  -2.916  0.00  0.00    -0.646 OA
ENDBRANCH  18  27
ENDBRANCH   4  18
TORSDOF 8
ENDMDL
MODEL 6
REMARK VINA RESULT:      -5.8     13.780     15.552
REMARK  8 active torsions:
REMARK  status: ('A' for Active; 'I' for Inactive)
REMARK    1  A    between atoms: C_4  and  C_9 
REMARK    2  A    between atoms: C_5  and  N_17 
REMARK    3  A    between atoms: C_5  and  C_6 
REMARK    4  A    between atoms: C_6  and  C_22 
REMARK       I    between atoms: C_9  and  N_25 
REMARK    5  A    between atoms: C_21  and  C_22 
REMARK    6  A    between atoms: C_21  and  C_29 
REMARK    7  A    between atoms: N_25  and  C_29 
REMARK    8  A    between atoms: C_28  and  C_29 
ROOT
HETATM    1  C           1     -20.100  -9.041  -4.831  0.00  0.00     0.249 C 
HETATM    2  H           1     -21.418  -8.557  -6.351  0.00  0.00     0.163 HD
HETATM    3  O           1     -19.373  -8.600  -3.972  0.00  0.00    -0.271 OA
HETATM    4  N           1     -20.809  -8.187  -5.632  0.00  0.00    -0.345 N 
ENDROOT
BRANCH   1   5
HETATM    5  C           1     -20.226 -10.533  -5.019  0.00  0.00     0.274 C 
HETATM    6  C           1     -21.688 -10.939  -4.886  0.00  0.00     0.042 C 
HETATM    7  C           1     -22.199 -10.557  -3.503  0.00  0.00     0.004 C 
HETATM    8  C           1     -22.666 -11.808  -2.769  0.00  0.00     0.027 C 
HETATM    9  C           1     -21.501 -12.780  -2.630  0.00  0.00     0.229 C 
HETATM   10  N           1     -20.396 -12.128  -1.852  0.00  0.00    -0.079 N 
HETATM   11  H           1     -19.597 -12.795  -1.756  0.00  0.00     0.274 HD
HETATM   12  H           1     -20.075 -11.271  -2.356  0.00  0.00     0.274 HD
HETATM   13  H           1     -20.746 -11.865  -0.904  0.00  0.00     0.274 HD
HETATM   14  H           1     -19.765 -10.974  -3.024  0.00  0.00     0.275 HD
HETATM   15  N           1     -19.415 -11.238  -3.973  0.00  0.00    -0.067 N 
HETATM   16  H           1     -19.502 -12.271  -4.102  0.00  0.00     0.275 HD
HETATM   17  H           1     -18.412 -10.959  -4.065  0.00  0.00     0.275 HD
ENDBRANCH   1   5
BRANCH   4  18
HETATM   18  C           1     -20.687  -6.754  -5.452  0.00  0.00     0.185 C 
BRANCH  18  19
HETATM   19  C           1     -20.698  -6.069  -6.813  0.00  0.00     0.036 C 
BRANCH  19  20
HETATM   20  C           1     -20.177  -4.645  -6.670  0.00  0.00     0.004 C 
BRANCH  20  21
HETATM   21  C           1     -21.225  -3.666  -7.184  0.00  0.00     0.027 C 
BRANCH  21  22
HETATM   22  C           1     -22.220  -4.405  -8.068  0.00  0.00     0.229 C 
BRANCH  22  23
HETATM   23  N           1     -23.609  -4.199  -7.540  0.00  0.00    -0.079 N 
HETATM   24  H           1     -24.221  -3.837  -8.305  0.00  0.00     0.274 HD
HETATM   25  H           1     -23.583  -3.509  -6.756  0.00  0.00     0.274 HD
HETATM   26  H           1     -23.988  -5.108  -7.192  0.00  0.00     0.274 HD
ENDBRANCH  22  23
ENDBRANCH  21  22
ENDBRANCH  20  21
ENDBRANCH  19  20
ENDBRANCH  18  19
BRANCH  18  27
HETATM   27  C           1     -21.846  -6.251  -4.626  0.00  0.00     0.196 C 
HETATM   28  O           1     -21.672  -5.944  -3.427  0.00  0.00    -0.646 OA
HETATM   29  O           1     -22.980  -6.143  -5.142  0.00  0.00    -0.646 OA
ENDBRANCH  18  27
ENDBRANCH   4  18
TORSDOF 8
ENDMDL
MODEL 7
REMARK VINA RESULT:      -5.8      2.668      3.255
REMARK  8 active torsions:
REMARK  status: ('A' for Active; 'I' for Inactive)
REMARK    1  A    between atoms: C_4  and  C_9 
REMARK    2  A    between atoms: C_5  and  N_17 
REMARK    3  A    between atoms: C_5  and  C_6 
REMARK    4  A    between atoms: C_6  and  C_22 
REMARK       I    between atoms: C_9  and  N_25 
REMARK    5  A    between atoms: C_21  and  C_22 
REMARK    6  A    between atoms: C_21  and  C_29 
REMARK    7  A    between atoms: N_25  and  C_29 
REMARK    8  A    between atoms: C_28  and  C_29 
ROOT
HETATM    1  C           1     -28.193  -5.741 -18.935  0.00  0.00     0.249 C 
HETATM    2  H           1     -27.307  -7.513 -18.337  0.00  0.00     0.163 HD
HETATM    3  O           1     -28.491  -5.053 -19.884  0.00  0.00    -0.271 OA
HETATM    4  N           1     -27.556  -6.936 -19.131  0.00  0.00    -0.345 N 
ENDROOT
BRANCH   1   5
HETATM    5  C           1     -28.524  -5.281 -17.537  0.00  0.00     0.274 C 
HETATM    6  C           1     -29.532  -6.238 -16.913  0.00  0.00     0.042 C 
HETATM    7  C           1     -30.801  -6.258 -17.754  0.00  0.00     0.004 C 
HETATM    8  C           1     -31.983  -5.807 -16.903  0.00  0.00     0.027 C 
HETATM    9  C           1     -31.732  -4.393 -16.396  0.00  0.00     0.229 C 
HETATM   10  N           1     -31.574  -3.464 -17.563  0.00  0.00    -0.079 N 
HETATM   11  H           1     -31.402  -2.493 -17.214  0.00  0.00     0.274 HD
HETATM   12  H           1     -30.763  -3.773 -18.145  0.00  0.00     0.274 HD
HETATM   13  H           1     -32.444  -3.478 -18.140  0.00  0.00     0.274 HD
HETATM   14  H           1     -29.982  -3.917 -18.168  0.00  0.00     0.275 HD
HETATM   15  N           1     -29.111  -3.903 -17.590  0.00  0.00    -0.067 N 
HETATM   16  H           1     -29.341  -3.584 -16.622  0.00  0.00     0.275 HD
HETATM   17  H           1     -28.420  -3.246 -18.017  0.00  0.00     0.275 HD
ENDBRANCH   1   5
BRANCH   4  18
HETATM   18  C           1     -27.238  -7.378 -20.475  0.00  0.00     0.185 C 
BRANCH  18  19
HETATM   19  C           1     -25.753  -7.702 -20.564  0.00  0.00     0.036 C 
BRANCH  19  20
HETATM   20  C           1     -24.950  -6.604 -19.879  0.00  0.00     0.004 C 
BRANCH  20  21
HETATM   21  C           1     -23.935  -7.230 -18.932  0.00  0.00     0.027 C 
BRANCH  21  22
HETATM   22  C           1     -24.427  -7.093 -17.498  0.00  0.00     0.229 C 
BRANCH  22  23
HETATM   23  N           1     -23.631  -8.000 -16.606  0.00  0.00    -0.079 N 
HETATM   24  H           1     -24.241  -8.777 -16.268  0.00  0.00     0.274 HD
HETATM   25  H           1     -23.272  -7.456 -15.790  0.00  0.00     0.274 HD
HETATM   26  H           1     -22.827  -8.396 -17.142  0.00  0.00     0.274 HD
ENDBRANCH  22  23
ENDBRANCH  21  22
ENDBRANCH  20  21
ENDBRANCH  19  20
ENDBRANCH  18  19
BRANCH  18  27
HETATM   27  C           1     -28.043  -8.612 -20.802  0.00  0.00     0.196 C 
HETATM   28  O           1     -27.653  -9.393 -21.696  0.00  0.00    -0.646 OA
HETATM   29  O           1     -29.100  -8.851 -20.179  0.00  0.00    -0.646 OA
ENDBRANCH  18  27
ENDBRANCH   4  18
TORSDOF 8
ENDMDL
MODEL 8
REMARK VINA RESULT:      -5.7      2.408      2.704
REMARK  8 active torsions:
REMARK  status: ('A' for Active; 'I' for Inactive)
REMARK    1  A    between atoms: C_4  and  C_9 
REMARK    2  A    between atoms: C_5  and  N_17 
REMARK    3  A    between atoms: C_5  and  C_6 
REMARK    4  A    between atoms: C_6  and  C_22 
REMARK       I    between atoms: C_9  and  N_25 
REMARK    5  A    between atoms: C_21  and  C_22 
REMARK    6  A    between atoms: C_21  and  C_29 
REMARK    7  A    between atoms: N_25  and  C_29 
REMARK    8  A    between atoms: C_28  and  C_29 
ROOT
HETATM    1  C           1     -28.076  -5.717 -18.797  0.00  0.00     0.249 C 
HETATM    2  H           1     -26.957  -7.357 -18.210  0.00  0.00     0.163 HD
HETATM    3  O           1     -28.453  -5.060 -19.739  0.00  0.00    -0.271 OA
HETATM    4  N           1     -27.272  -6.806 -19.000  0.00  0.00    -0.345 N 
ENDROOT
BRANCH   1   5
HETATM    5  C           1     -28.492  -5.336 -17.397  0.00  0.00     0.274 C 
HETATM    6  C           1     -29.539  -6.321 -16.893  0.00  0.00     0.042 C 
HETATM    7  C           1     -30.754  -6.285 -17.811  0.00  0.00     0.004 C 
HETATM    8  C           1     -31.985  -5.876 -17.011  0.00  0.00     0.027 C 
HETATM    9  C           1     -31.763  -4.495 -16.409  0.00  0.00     0.229 C 
HETATM   10  N           1     -31.530  -3.501 -17.509  0.00  0.00    -0.079 N 
HETATM   11  H           1     -31.378  -2.553 -17.096  0.00  0.00     0.274 HD
HETATM   12  H           1     -30.685  -3.782 -18.057  0.00  0.00     0.274 HD
HETATM   13  H           1     -32.362  -3.477 -18.139  0.00  0.00     0.274 HD
HETATM   14  H           1     -29.905  -3.929 -18.039  0.00  0.00     0.275 HD
HETATM   15  N           1     -29.071  -3.953 -17.408  0.00  0.00    -0.067 N 
HETATM   16  H           1     -29.361  -3.688 -16.440  0.00  0.00     0.275 HD
HETATM   17  H           1     -28.353  -3.277 -17.754  0.00  0.00     0.275 HD
ENDBRANCH   1   5
BRANCH   4  18
HETATM   18  C           1     -26.872  -7.173 -20.344  0.00  0.00     0.185 C 
BRANCH  18  19
HETATM   19  C           1     -25.381  -7.480 -20.363  0.00  0.00     0.036 C 
BRANCH  19  20
HETATM   20  C           1     -24.738  -6.807 -21.569  0.00  0.00     0.004 C 
BRANCH  20  21
HETATM   21  C           1     -23.965  -7.841 -22.377  0.00  0.00     0.027 C 
BRANCH  21  22
HETATM   22  C           1     -22.902  -8.484 -21.496  0.00  0.00     0.229 C 
BRANCH  22  23
HETATM   23  N           1     -22.160  -9.523 -22.283  0.00  0.00    -0.079 N 
HETATM   24  H           1     -22.276 -10.455 -21.825  0.00  0.00     0.274 HD
HETATM   25  H           1     -21.146  -9.274 -22.317  0.00  0.00     0.274 HD
HETATM   26  H           1     -22.542  -9.563 -23.254  0.00  0.00     0.274 HD
ENDBRANCH  22  23
ENDBRANCH  21  22
ENDBRANCH  20  21
ENDBRANCH  19  20
ENDBRANCH  18  19
BRANCH  18  27
HETATM   27  C           1     -27.643  -8.394 -20.783  0.00  0.00     0.196 C 
HETATM   28  O           1     -28.723  -8.684 -20.224  0.00  0.00    -0.646 OA
HETATM   29  O           1     -27.201  -9.114 -21.704  0.00  0.00    -0.646 OA
ENDBRANCH  18  27
ENDBRANCH   4  18
TORSDOF 8
ENDMDL
MODEL 9
REMARK VINA RESULT:      -5.7     14.566     16.100
REMARK  8 active torsions:
REMARK  status: ('A' for Active; 'I' for Inactive)
REMARK    1  A    between atoms: C_4  and  C_9 
REMARK    2  A    between atoms: C_5  and  N_17 
REMARK    3  A    between atoms: C_5  and  C_6 
REMARK    4  A    between atoms: C_6  and  C_22 
REMARK       I    between atoms: C_9  and  N_25 
REMARK    5  A    between atoms: C_21  and  C_22 
REMARK    6  A    between atoms: C_21  and  C_29 
REMARK    7  A    between atoms: N_25  and  C_29 
REMARK    8  A    between atoms: C_28  and  C_29 
ROOT
HETATM    1  C           1     -21.481  -6.774  -2.205  0.00  0.00     0.249 C 
HETATM    2  H           1     -19.932  -7.194  -3.512  0.00  0.00     0.163 HD
HETATM    3  O           1     -22.500  -6.145  -2.046  0.00  0.00    -0.271 OA
HETATM    4  N           1     -20.786  -6.666  -3.379  0.00  0.00    -0.345 N 
ENDROOT
BRANCH   1   5
HETATM    5  C           1     -20.975  -7.680  -1.108  0.00  0.00     0.274 C 
HETATM    6  C           1     -20.624  -9.041  -1.695  0.00  0.00     0.042 C 
HETATM    7  C           1     -21.865  -9.656  -2.328  0.00  0.00     0.004 C 
HETATM    8  C           1     -22.183 -10.980  -1.644  0.00  0.00     0.027 C 
HETATM    9  C           1     -22.437 -10.737  -0.162  0.00  0.00     0.229 C 
HETATM   10  N           1     -23.598  -9.800  -0.001  0.00  0.00    -0.079 N 
HETATM   11  H           1     -23.773  -9.634   1.017  0.00  0.00     0.274 HD
HETATM   12  H           1     -23.379  -8.892  -0.469  0.00  0.00     0.274 HD
HETATM   13  H           1     -24.449 -10.221  -0.436  0.00  0.00     0.274 HD
HETATM   14  H           1     -22.892  -8.266  -0.502  0.00  0.00     0.275 HD
HETATM   15  N           1     -22.040  -7.844  -0.066  0.00  0.00    -0.067 N 
HETATM   16  H           1     -21.691  -8.471   0.694  0.00  0.00     0.275 HD
HETATM   17  H           1     -22.280  -6.910   0.337  0.00  0.00     0.275 HD
ENDBRANCH   1   5
BRANCH   4  18
HETATM   18  C           1     -21.271  -5.796  -4.432  0.00  0.00     0.185 C 
BRANCH  18  19
HETATM   19  C           1     -20.113  -5.404  -5.340  0.00  0.00     0.036 C 
BRANCH  19  20
HETATM   20  C           1     -20.572  -4.326  -6.313  0.00  0.00     0.004 C 
BRANCH  20  21
HETATM   21  C           1     -20.395  -4.822  -7.742  0.00  0.00     0.027 C 
BRANCH  21  22
HETATM   22  C           1     -21.724  -4.729  -8.480  0.00  0.00     0.229 C 
BRANCH  22  23
HETATM   23  N           1     -22.705  -3.956  -7.650  0.00  0.00    -0.079 N 
HETATM   24  H           1     -23.605  -3.862  -8.173  0.00  0.00     0.274 HD
HETATM   25  H           1     -22.317  -3.007  -7.448  0.00  0.00     0.274 HD
HETATM   26  H           1     -22.876  -4.461  -6.752  0.00  0.00     0.274 HD
ENDBRANCH  22  23
ENDBRANCH  21  22
ENDBRANCH  20  21
ENDBRANCH  19  20
ENDBRANCH  18  19
BRANCH  18  27
HETATM   27  C           1     -22.319  -6.523  -5.240  0.00  0.00     0.196 C 
HETATM   28  O           1     -22.042  -7.610  -5.790  0.00  0.00    -0.646 OA
HETATM   29  O           1     -23.465  -6.036  -5.358  0.00  0.00    -0.646 OA
ENDBRANCH  18  27
ENDBRANCH   4  18
TORSDOF 8
ENDMDL
