MODEL 1
REMARK VINA RESULT:      -6.3      0.000      0.000
REMARK  8 active torsions:
REMARK  status: ('A' for Active; 'I' for Inactive)
REMARK    1  A    between atoms: N_1  and  C_9 
REMARK    2  A    between atoms: O_3  and  C_4 
REMARK    3  A    between atoms: C_4  and  C_19 
REMARK    4  A    between atoms: N_7  and  C_19 
REMARK       I    between atoms: N_7  and  C_8 
REMARK    5  A    between atoms: C_8  and  C_9 
REMARK    6  A    between atoms: C_9  and  C_10 
REMARK    7  A    between atoms: C_10  and  C_11 
REMARK       I    between atoms: C_11  and  N_12 
REMARK    8  A    between atoms: C_18  and  C_19 
ROOT
HETATM    1  H           1     -34.073  -0.714 -14.208  0.00  0.00     0.163 HD
HETATM    2  N           1     -35.070  -0.669 -14.040  0.00  0.00    -0.343 N 
HETATM    3  C           1     -35.593  -1.179 -12.882  0.00  0.00     0.249 C 
HETATM    4  O           1     -36.783  -1.125 -12.682  0.00  0.00    -0.271 OA
ENDROOT
BRANCH   3   5
HETATM    5  C           1     -34.684  -1.808 -11.855  0.00  0.00     0.283 C 
BRANCH   5   6
HETATM    6  N           1     -35.049  -1.304 -10.491  0.00  0.00    -0.066 N 
HETATM    7  H           1     -34.179  -1.121  -9.941  0.00  0.00     0.275 HD
HETATM    8  H           1     -35.595  -0.418 -10.582  0.00  0.00     0.275 HD
HETATM    9  H           1     -35.627  -2.021  -9.998  0.00  0.00     0.275 HD
ENDBRANCH   5   6
BRANCH   5  10
HETATM   10  C           1     -34.842  -3.322 -11.896  0.00  0.00     0.145 C 
BRANCH  10  11
HETATM   11  C           1     -33.915  -3.898 -12.938  0.00  0.00     0.217 C 
HETATM   12  N           1     -32.762  -4.527 -12.556  0.00  0.00    -0.370 N 
HETATM   13  H           1     -32.139  -4.912 -13.255  0.00  0.00     0.159 HD
HETATM   14  H           1     -32.530  -4.607 -11.573  0.00  0.00     0.159 HD
HETATM   15  O           1     -34.190  -3.802 -14.110  0.00  0.00    -0.274 OA
ENDBRANCH  10  11
ENDBRANCH   5  10
ENDBRANCH   3   5
BRANCH   2  16
HETATM   16  C           1     -35.944  -0.065 -15.027  0.00  0.00     0.209 C 
BRANCH  16  17
HETATM   17  C           1     -35.507   1.372 -15.279  0.00  0.00     0.200 C 
BRANCH  17  18
HETATM   18  O           1     -36.423   1.997 -16.137  0.00  0.00    -0.398 OA
HETATM   19  H           1     -35.974   2.722 -16.535  0.00  0.00     0.209 HD
ENDBRANCH  17  18
ENDBRANCH  16  17
BRANCH  16  20
HETATM   20  C           1     -35.866  -0.848 -16.314  0.00  0.00     0.198 C 
HETATM   21  O           1     -34.862  -1.551 -16.558  0.00  0.00    -0.646 OA
HETATM   22  O           1     -36.806  -0.793 -17.137  0.00  0.00    -0.646 OA
ENDBRANCH  16  20
ENDBRANCH   2  16
TORSDOF 8
ENDMDL
MODEL 2
REMARK VINA RESULT:      -6.2      8.129     10.401
REMARK  8 active torsions:
REMARK  status: ('A' for Active; 'I' for Inactive)
REMARK    1  A    between atoms: N_1  and  C_9 
REMARK    2  A    between atoms: O_3  and  C_4 
REMARK    3  A    between atoms: C_4  and  C_19 
REMARK    4  A    between atoms: N_7  and  C_19 
REMARK       I    between atoms: N_7  and  C_8 
REMARK    5  A    between atoms: C_8  and  C_9 
REMARK    6  A    between atoms: C_9  and  C_10 
REMARK    7  A    between atoms: C_10  and  C_11 
REMARK       I    between atoms: C_11  and  N_12 
REMARK    8  A    between atoms: C_18  and  C_19 
ROOT
HETATM    1  H           1     -27.472  -7.203 -17.937  0.00  0.00     0.163 HD
HETATM    2  N           1     -27.151  -6.444 -17.350  0.00  0.00    -0.343 N 
HETATM    3  C           1     -28.052  -5.558 -16.822  0.00  0.00     0.249 C 
HETATM    4  O           1     -27.668  -4.652 -16.121  0.00  0.00    -0.271 OA
ENDROOT
BRANCH   3   5
HETATM    5  C           1     -29.524  -5.713 -17.116  0.00  0.00     0.283 C 
BRANCH   5   6
HETATM    6  N           1     -30.315  -5.380 -15.887  0.00  0.00    -0.066 N 
HETATM    7  H           1     -30.203  -6.142 -15.181  0.00  0.00     0.275 HD
HETATM    8  H           1     -29.970  -4.479 -15.484  0.00  0.00     0.275 HD
HETATM    9  H           1     -31.325  -5.284 -16.138  0.00  0.00     0.275 HD
ENDBRANCH   5   6
BRANCH   5  10
HETATM   10  C           1     -29.919  -4.770 -18.245  0.00  0.00     0.145 C 
BRANCH  10  11
HETATM   11  C           1     -30.393  -3.461 -17.664  0.00  0.00     0.217 C 
HETATM   12  N           1     -29.505  -2.439 -17.465  0.00  0.00    -0.370 N 
HETATM   13  H           1     -29.822  -1.561 -17.075  0.00  0.00     0.159 HD
HETATM   14  H           1     -28.530  -2.561 -17.707  0.00  0.00     0.159 HD
HETATM   15  O           1     -31.556  -3.315 -17.374  0.00  0.00    -0.274 OA
ENDBRANCH  10  11
ENDBRANCH   5  10
ENDBRANCH   3   5
BRANCH   2  16
HETATM   16  C           1     -25.736  -6.294 -17.067  0.00  0.00     0.209 C 
BRANCH  16  17
HETATM   17  C           1     -25.363  -7.163 -15.873  0.00  0.00     0.200 C 
BRANCH  17  18
HETATM   18  O           1     -24.856  -6.355 -14.845  0.00  0.00    -0.398 OA
HETATM   19  H           1     -25.588  -5.892 -14.476  0.00  0.00     0.209 HD
ENDBRANCH  17  18
ENDBRANCH  16  17
BRANCH  16  20
HETATM   20  C           1     -24.935  -6.723 -18.272  0.00  0.00     0.198 C 
HETATM   21  O           1     -25.480  -6.782 -19.395  0.00  0.00    -0.646 OA
HETATM   22  O           1     -23.727  -7.019 -18.146  0.00  0.00    -0.646 OA
ENDBRANCH  16  20
ENDBRANCH   2  16
TORSDOF 8
ENDMDL
MODEL 3
REMARK VINA RESULT:      -6.0     13.160     15.034
REMARK  8 active torsions:
REMARK  status: ('A' for Active; 'I' for Inactive)
REMARK    1  A    between atoms: N_1  and  C_9 
REMARK    2  A    between atoms: O_3  and  C_4 
REMARK    3  A    between atoms: C_4  and  C_19 
REMARK    4  A    between atoms: N_7  and  C_19 
REMARK       I    between atoms: N_7  and  C_8 
REMARK    5  A    between atoms: C_8  and  C_9 
REMARK    6  A    between atoms: C_9  and  C_10 
REMARK    7  A    between atoms: C_10  and  C_11 
REMARK       I    between atoms: C_11  and  N_12 
REMARK    8  A    between atoms: C_18  and  C_19 
ROOT
HETATM    1  H           1     -22.295  -5.768  -9.338  0.00  0.00     0.163 HD
HETATM    2  N           1     -22.187  -4.811  -9.028  0.00  0.00    -0.343 N 
HETATM    3  C           1     -21.643  -4.547  -7.799  0.00  0.00     0.249 C 
HETATM    4  O           1     -21.514  -3.405  -7.428  0.00  0.00    -0.271 OA
ENDROOT
BRANCH   3   5
HETATM    5  C           1     -21.204  -5.683  -6.908  0.00  0.00     0.283 C 
BRANCH   5   6
HETATM    6  N           1     -19.934  -6.275  -7.443  0.00  0.00    -0.066 N 
HETATM    7  H           1     -19.286  -6.487  -6.651  0.00  0.00     0.275 HD
HETATM    8  H           1     -20.152  -7.157  -7.961  0.00  0.00     0.275 HD
HETATM    9  H           1     -19.479  -5.594  -8.092  0.00  0.00     0.275 HD
ENDBRANCH   5   6
BRANCH   5  10
HETATM   10  C           1     -20.965  -5.160  -5.498  0.00  0.00     0.145 C 
BRANCH  10  11
HETATM   11  C           1     -21.158  -6.280  -4.506  0.00  0.00     0.217 C 
HETATM   12  N           1     -22.001  -6.112  -3.440  0.00  0.00    -0.370 N 
HETATM   13  H           1     -22.130  -6.863  -2.774  0.00  0.00     0.159 HD
HETATM   14  H           1     -22.495  -5.237  -3.318  0.00  0.00     0.159 HD
HETATM   15  O           1     -20.568  -7.323  -4.650  0.00  0.00    -0.274 OA
ENDBRANCH  10  11
ENDBRANCH   5  10
ENDBRANCH   3   5
BRANCH   2  16
HETATM   16  C           1     -22.609  -3.719  -9.883  0.00  0.00     0.209 C 
BRANCH  16  17
HETATM   17  C           1     -21.813  -3.756 -11.182  0.00  0.00     0.200 C 
BRANCH  17  18
HETATM   18  O           1     -22.542  -4.451 -12.158  0.00  0.00    -0.398 OA
HETATM   19  H           1     -23.453  -4.279 -11.992  0.00  0.00     0.209 HD
ENDBRANCH  17  18
ENDBRANCH  16  17
BRANCH  16  20
HETATM   20  C           1     -24.079  -3.859 -10.189  0.00  0.00     0.198 C 
HETATM   21  O           1     -24.677  -4.921  -9.908  0.00  0.00    -0.646 OA
HETATM   22  O           1     -24.700  -2.915 -10.725  0.00  0.00    -0.646 OA
ENDBRANCH  16  20
ENDBRANCH   2  16
TORSDOF 8
ENDMDL
MODEL 4
REMARK VINA RESULT:      -5.8     13.085     15.606
REMARK  8 active torsions:
REMARK  status: ('A' for Active; 'I' for Inactive)
REMARK    1  A    between atoms: N_1  and  C_9 
REMARK    2  A    between atoms: O_3  and  C_4 
REMARK    3  A    between atoms: C_4  and  C_19 
REMARK    4  A    between atoms: N_7  and  C_19 
REMARK       I    between atoms: N_7  and  C_8 
REMARK    5  A    between atoms: C_8  and  C_9 
REMARK    6  A    between atoms: C_9  and  C_10 
REMARK    7  A    between atoms: C_10  and  C_11 
REMARK       I    between atoms: C_11  and  N_12 
REMARK    8  A    between atoms: C_18  and  C_19 
ROOT
HETATM    1  H           1     -22.603  -4.873  -8.169  0.00  0.00     0.163 HD
HETATM    2  N           1     -21.629  -4.987  -8.419  0.00  0.00    -0.343 N 
HETATM    3  C           1     -21.200  -4.650  -9.675  0.00  0.00     0.249 C 
HETATM    4  O           1     -20.037  -4.786  -9.973  0.00  0.00    -0.271 OA
ENDROOT
BRANCH   3   5
HETATM    5  C           1     -22.179  -4.108 -10.687  0.00  0.00     0.283 C 
BRANCH   5   6
HETATM    6  N           1     -21.715  -4.460 -12.069  0.00  0.00    -0.066 N 
HETATM    7  H           1     -21.777  -3.617 -12.684  0.00  0.00     0.275 HD
HETATM    8  H           1     -20.723  -4.789 -12.029  0.00  0.00     0.275 HD
HETATM    9  H           1     -22.318  -5.219 -12.457  0.00  0.00     0.275 HD
ENDBRANCH   5   6
BRANCH   5  10
HETATM   10  C           1     -23.553  -4.718 -10.443  0.00  0.00     0.145 C 
BRANCH  10  11
HETATM   11  C           1     -24.548  -3.621 -10.153  0.00  0.00     0.217 C 
HETATM   12  N           1     -24.679  -3.135  -8.881  0.00  0.00    -0.370 N 
HETATM   13  H           1     -25.347  -2.400  -8.686  0.00  0.00     0.159 HD
HETATM   14  H           1     -24.108  -3.510  -8.134  0.00  0.00     0.159 HD
HETATM   15  O           1     -25.229  -3.174 -11.044  0.00  0.00    -0.274 OA
ENDBRANCH  10  11
ENDBRANCH   5  10
ENDBRANCH   3   5
BRANCH   2  16
HETATM   16  C           1     -20.687  -5.508  -7.448  0.00  0.00     0.209 C 
BRANCH  16  17
HETATM   17  C           1     -19.955  -4.351  -6.780  0.00  0.00     0.200 C 
BRANCH  17  18
HETATM   18  O           1     -19.790  -4.626  -5.415  0.00  0.00    -0.398 OA
HETATM   19  H           1     -19.751  -3.796  -4.972  0.00  0.00     0.209 HD
ENDBRANCH  17  18
ENDBRANCH  16  17
BRANCH  16  20
HETATM   20  C           1     -21.431  -6.303  -6.403  0.00  0.00     0.198 C 
HETATM   21  O           1     -22.346  -5.764  -5.742  0.00  0.00    -0.646 OA
HETATM   22  O           1     -21.132  -7.499  -6.197  0.00  0.00    -0.646 OA
ENDBRANCH  16  20
ENDBRANCH   2  16
TORSDOF 8
ENDMDL
MODEL 5
REMARK VINA RESULT:      -5.7      7.202      9.465
REMARK  8 active torsions:
REMARK  status: ('A' for Active; 'I' for Inactive)
REMARK    1  A    between atoms: N_1  and  C_9 
REMARK    2  A    between atoms: O_3  and  C_4 
REMARK    3  A    between atoms: C_4  and  C_19 
REMARK    4  A    between atoms: N_7  and  C_19 
REMARK       I    between atoms: N_7  and  C_8 
REMARK    5  A    between atoms: C_8  and  C_9 
REMARK    6  A    between atoms: C_9  and  C_10 
REMARK    7  A    between atoms: C_10  and  C_11 
REMARK       I    between atoms: C_11  and  N_12 
REMARK    8  A    between atoms: C_18  and  C_19 
ROOT
HETATM    1  H           1     -28.930  -6.329 -16.856  0.00  0.00     0.163 HD
HETATM    2  N           1     -28.237  -5.597 -16.762  0.00  0.00    -0.343 N 
HETATM    3  C           1     -28.626  -4.285 -16.741  0.00  0.00     0.249 C 
HETATM    4  O           1     -27.799  -3.411 -16.628  0.00  0.00    -0.271 OA
ENDROOT
BRANCH   3   5
HETATM    5  C           1     -30.088  -3.928 -16.859  0.00  0.00     0.283 C 
BRANCH   5   6
HETATM    6  N           1     -30.351  -3.344 -18.214  0.00  0.00    -0.066 N 
HETATM    7  H           1     -29.871  -2.419 -18.295  0.00  0.00     0.275 HD
HETATM    8  H           1     -29.985  -3.991 -18.949  0.00  0.00     0.275 HD
HETATM    9  H           1     -31.380  -3.214 -18.345  0.00  0.00     0.275 HD
ENDBRANCH   5   6
BRANCH   5  10
HETATM   10  C           1     -30.933  -5.182 -16.674  0.00  0.00     0.145 C 
BRANCH  10  11
HETATM   11  C           1     -32.395  -4.820 -16.755  0.00  0.00     0.217 C 
HETATM   12  N           1     -33.342  -5.807 -16.814  0.00  0.00    -0.370 N 
HETATM   13  H           1     -34.323  -5.564 -16.870  0.00  0.00     0.159 HD
HETATM   14  H           1     -33.061  -6.779 -16.803  0.00  0.00     0.159 HD
HETATM   15  O           1     -32.731  -3.660 -16.770  0.00  0.00    -0.274 OA
ENDBRANCH  10  11
ENDBRANCH   5  10
ENDBRANCH   3   5
BRANCH   2  16
HETATM   16  C           1     -26.832  -5.938 -16.649  0.00  0.00     0.209 C 
BRANCH  16  17
HETATM   17  C           1     -26.671  -7.113 -15.692  0.00  0.00     0.200 C 
BRANCH  17  18
HETATM   18  O           1     -25.324  -7.237 -15.324  0.00  0.00    -0.398 OA
HETATM   19  H           1     -24.899  -7.728 -16.006  0.00  0.00     0.209 HD
ENDBRANCH  17  18
ENDBRANCH  16  17
BRANCH  16  20
HETATM   20  C           1     -26.297  -6.319 -18.007  0.00  0.00     0.198 C 
HETATM   21  O           1     -27.071  -6.390 -18.986  0.00  0.00    -0.646 OA
HETATM   22  O           1     -25.080  -6.564 -18.153  0.00  0.00    -0.646 OA
ENDBRANCH  16  20
ENDBRANCH   2  16
TORSDOF 8
ENDMDL
MODEL 6
REMARK VINA RESULT:      -5.6     10.254     12.234
REMARK  8 active torsions:
REMARK  status: ('A' for Active; 'I' for Inactive)
REMARK    1  A    between atoms: N_1  and  C_9 
REMARK    2  A    between atoms: O_3  and  C_4 
REMARK    3  A    between atoms: C_4  and  C_19 
REMARK    4  A    between atoms: N_7  and  C_19 
REMARK       I    between atoms: N_7  and  C_8 
REMARK    5  A    between atoms: C_8  and  C_9 
REMARK    6  A    between atoms: C_9  and  C_10 
REMARK    7  A    between atoms: C_10  and  C_11 
REMARK       I    between atoms: C_11  and  N_12 
REMARK    8  A    between atoms: C_18  and  C_19 
ROOT
HETATM    1  H           1     -26.667  -7.198 -17.873  0.00  0.00     0.163 HD
HETATM    2  N           1     -27.151  -6.652 -18.574  0.00  0.00    -0.343 N 
HETATM    3  C           1     -26.547  -6.387 -19.774  0.00  0.00     0.249 C 
HETATM    4  O           1     -27.126  -5.736 -20.610  0.00  0.00    -0.271 OA
ENDROOT
BRANCH   3   5
HETATM    5  C           1     -25.159  -6.909 -20.051  0.00  0.00     0.283 C 
BRANCH   5   6
HETATM    6  N           1     -24.547  -7.404 -18.774  0.00  0.00    -0.066 N 
HETATM    7  H           1     -23.635  -6.920 -18.613  0.00  0.00     0.275 HD
HETATM    8  H           1     -25.194  -7.202 -17.978  0.00  0.00     0.275 HD
HETATM    9  H           1     -24.388  -8.434 -18.841  0.00  0.00     0.275 HD
ENDBRANCH   5   6
BRANCH   5  10
HETATM   10  C           1     -25.237  -8.053 -21.053  0.00  0.00     0.145 C 
BRANCH  10  11
HETATM   11  C           1     -23.927  -8.166 -21.792  0.00  0.00     0.217 C 
HETATM   12  N           1     -22.923  -8.949 -21.289  0.00  0.00    -0.370 N 
HETATM   13  H           1     -22.043  -9.024 -21.784  0.00  0.00     0.159 HD
HETATM   14  H           1     -23.059  -9.452 -20.422  0.00  0.00     0.159 HD
HETATM   15  O           1     -23.763  -7.566 -22.827  0.00  0.00    -0.274 OA
ENDBRANCH  10  11
ENDBRANCH   5  10
ENDBRANCH   3   5
BRANCH   2  16
HETATM   16  C           1     -28.485  -6.150 -18.307  0.00  0.00     0.209 C 
BRANCH  16  17
HETATM   17  C           1     -29.469  -7.313 -18.284  0.00  0.00     0.200 C 
BRANCH  17  18
HETATM   18  O           1     -29.143  -8.182 -17.233  0.00  0.00    -0.398 OA
HETATM   19  H           1     -28.321  -8.582 -17.456  0.00  0.00     0.209 HD
ENDBRANCH  17  18
ENDBRANCH  16  17
BRANCH  16  20
HETATM   20  C           1     -28.501  -5.450 -16.971  0.00  0.00     0.198 C 
HETATM   21  O           1     -29.553  -5.416 -16.296  0.00  0.00    -0.646 OA
HETATM   22  O           1     -27.463  -4.903 -16.539  0.00  0.00    -0.646 OA
ENDBRANCH  16  20
ENDBRANCH   2  16
TORSDOF 8
ENDMDL
MODEL 7
REMARK VINA RESULT:      -5.5     12.975     14.828
REMARK  8 active torsions:
REMARK  status: ('A' for Active; 'I' for Inactive)
REMARK    1  A    between atoms: N_1  and  C_9 
REMARK    2  A    between atoms: O_3  and  C_4 
REMARK    3  A    between atoms: C_4  and  C_19 
REMARK    4  A    between atoms: N_7  and  C_19 
REMARK       I    between atoms: N_7  and  C_8 
REMARK    5  A    between atoms: C_8  and  C_9 
REMARK    6  A    between atoms: C_9  and  C_10 
REMARK    7  A    between atoms: C_10  and  C_11 
REMARK       I    between atoms: C_11  and  N_12 
REMARK    8  A    between atoms: C_18  and  C_19 
ROOT
HETATM    1  H           1     -23.394  -3.671  -9.103  0.00  0.00     0.163 HD
HETATM    2  N           1     -22.593  -4.255  -9.305  0.00  0.00    -0.343 N 
HETATM    3  C           1     -21.796  -4.702  -8.285  0.00  0.00     0.249 C 
HETATM    4  O           1     -20.840  -5.400  -8.527  0.00  0.00    -0.271 OA
ENDROOT
BRANCH   3   5
HETATM    5  C           1     -22.111  -4.321  -6.859  0.00  0.00     0.283 C 
BRANCH   5   6
HETATM    6  N           1     -23.471  -4.838  -6.494  0.00  0.00    -0.066 N 
HETATM    7  H           1     -23.415  -5.864  -6.304  0.00  0.00     0.275 HD
HETATM    8  H           1     -23.812  -4.343  -5.639  0.00  0.00     0.275 HD
HETATM    9  H           1     -24.133  -4.666  -7.284  0.00  0.00     0.275 HD
ENDBRANCH   5   6
BRANCH   5  10
HETATM   10  C           1     -21.070  -4.930  -5.929  0.00  0.00     0.145 C 
BRANCH  10  11
HETATM   11  C           1     -21.583  -6.241  -5.389  0.00  0.00     0.217 C 
HETATM   12  N           1     -21.271  -7.413  -6.024  0.00  0.00    -0.370 N 
HETATM   13  H           1     -21.616  -8.292  -5.663  0.00  0.00     0.159 HD
HETATM   14  H           1     -20.696  -7.399  -6.857  0.00  0.00     0.159 HD
HETATM   15  O           1     -22.271  -6.258  -4.396  0.00  0.00    -0.274 OA
ENDBRANCH  10  11
ENDBRANCH   5  10
ENDBRANCH   3   5
BRANCH   2  16
HETATM   16  C           1     -22.289  -4.622 -10.675  0.00  0.00     0.209 C 
BRANCH  16  17
HETATM   17  C           1     -23.585  -4.733 -11.469  0.00  0.00     0.200 C 
BRANCH  17  18
HETATM   18  O           1     -24.492  -3.760 -11.025  0.00  0.00    -0.398 OA
HETATM   19  H           1     -24.896  -4.100 -10.245  0.00  0.00     0.209 HD
ENDBRANCH  17  18
ENDBRANCH  16  17
BRANCH  16  20
HETATM   20  C           1     -21.409  -3.564 -11.295  0.00  0.00     0.198 C 
HETATM   21  O           1     -21.910  -2.491 -11.696  0.00  0.00    -0.646 OA
HETATM   22  O           1     -20.180  -3.761 -11.407  0.00  0.00    -0.646 OA
ENDBRANCH  16  20
ENDBRANCH   2  16
TORSDOF 8
ENDMDL
MODEL 8
REMARK VINA RESULT:      -5.5      1.981      2.298
REMARK  8 active torsions:
REMARK  status: ('A' for Active; 'I' for Inactive)
REMARK    1  A    between atoms: N_1  and  C_9 
REMARK    2  A    between atoms: O_3  and  C_4 
REMARK    3  A    between atoms: C_4  and  C_19 
REMARK    4  A    between atoms: N_7  and  C_19 
REMARK       I    between atoms: N_7  and  C_8 
REMARK    5  A    between atoms: C_8  and  C_9 
REMARK    6  A    between atoms: C_9  and  C_10 
REMARK    7  A    between atoms: C_10  and  C_11 
REMARK       I    between atoms: C_11  and  N_12 
REMARK    8  A    between atoms: C_18  and  C_19 
ROOT
HETATM    1  H           1     -34.644  -1.841 -13.149  0.00  0.00     0.163 HD
HETATM    2  N           1     -35.126  -1.201 -12.530  0.00  0.00    -0.343 N 
HETATM    3  C           1     -35.215  -1.479 -11.193  0.00  0.00     0.249 C 
HETATM    4  O           1     -35.791  -0.715 -10.454  0.00  0.00    -0.271 OA
ENDROOT
BRANCH   3   5
HETATM    5  C           1     -34.595  -2.739 -10.640  0.00  0.00     0.283 C 
BRANCH   5   6
HETATM    6  N           1     -35.466  -3.913 -10.977  0.00  0.00    -0.066 N 
HETATM    7  H           1     -36.119  -4.103 -10.184  0.00  0.00     0.275 HD
HETATM    8  H           1     -36.018  -3.700 -11.839  0.00  0.00     0.275 HD
HETATM    9  H           1     -34.868  -4.753 -11.145  0.00  0.00     0.275 HD
ENDBRANCH   5   6
BRANCH   5  10
HETATM   10  C           1     -33.216  -2.938 -11.254  0.00  0.00     0.145 C 
BRANCH  10  11
HETATM   11  C           1     -33.196  -4.224 -12.043  0.00  0.00     0.217 C 
HETATM   12  N           1     -33.334  -4.193 -13.404  0.00  0.00    -0.370 N 
HETATM   13  H           1     -33.322  -5.055 -13.934  0.00  0.00     0.159 HD
HETATM   14  H           1     -33.449  -3.308 -13.882  0.00  0.00     0.159 HD
HETATM   15  O           1     -33.060  -5.280 -11.474  0.00  0.00    -0.274 OA
ENDBRANCH  10  11
ENDBRANCH   5  10
ENDBRANCH   3   5
BRANCH   2  16
HETATM   16  C           1     -35.722   0.010 -13.060  0.00  0.00     0.209 C 
BRANCH  16  17
HETATM   17  C           1     -34.622   0.955 -13.525  0.00  0.00     0.200 C 
BRANCH  17  18
HETATM   18  O           1     -34.334   0.711 -14.875  0.00  0.00    -0.398 OA
HETATM   19  H           1     -33.436   0.431 -14.917  0.00  0.00     0.209 HD
ENDBRANCH  17  18
ENDBRANCH  16  17
BRANCH  16  20
HETATM   20  C           1     -36.613  -0.338 -14.228  0.00  0.00     0.198 C 
HETATM   21  O           1     -37.730   0.211 -14.347  0.00  0.00    -0.646 OA
HETATM   22  O           1     -36.235  -1.177 -15.074  0.00  0.00    -0.646 OA
ENDBRANCH  16  20
ENDBRANCH   2  16
TORSDOF 8
ENDMDL
MODEL 9
REMARK VINA RESULT:      -5.1     14.312     16.844
REMARK  8 active torsions:
REMARK  status: ('A' for Active; 'I' for Inactive)
REMARK    1  A    between atoms: N_1  and  C_9 
REMARK    2  A    between atoms: O_3  and  C_4 
REMARK    3  A    between atoms: C_4  and  C_19 
REMARK    4  A    between atoms: N_7  and  C_19 
REMARK       I    between atoms: N_7  and  C_8 
REMARK    5  A    between atoms: C_8  and  C_9 
REMARK    6  A    between atoms: C_9  and  C_10 
REMARK    7  A    between atoms: C_10  and  C_11 
REMARK       I    between atoms: C_11  and  N_12 
REMARK    8  A    between atoms: C_18  and  C_19 
ROOT
HETATM    1  H           1     -22.493  -5.783  -6.386  0.00  0.00     0.163 HD
HETATM    2  N           1     -21.490  -5.743  -6.511  0.00  0.00    -0.343 N 
HETATM    3  C           1     -20.962  -5.191  -7.647  0.00  0.00     0.249 C 
HETATM    4  O           1     -19.764  -5.142  -7.795  0.00  0.00    -0.271 OA
ENDROOT
BRANCH   3   5
HETATM    5  C           1     -21.877  -4.643  -8.715  0.00  0.00     0.283 C 
BRANCH   5   6
HETATM    6  N           1     -22.737  -3.563  -8.129  0.00  0.00    -0.066 N 
HETATM    7  H           1     -23.705  -3.640  -8.514  0.00  0.00     0.275 HD
HETATM    8  H           1     -22.767  -3.667  -7.090  0.00  0.00     0.275 HD
HETATM    9  H           1     -22.338  -2.629  -8.374  0.00  0.00     0.275 HD
ENDBRANCH   5   6
BRANCH   5  10
HETATM   10  C           1     -21.043  -4.066  -9.851  0.00  0.00     0.145 C 
BRANCH  10  11
HETATM   11  C           1     -21.921  -3.840 -11.057  0.00  0.00     0.217 C 
HETATM   12  N           1     -21.429  -4.066 -12.314  0.00  0.00    -0.370 N 
HETATM   13  H           1     -22.018  -3.913 -13.123  0.00  0.00     0.159 HD
HETATM   14  H           1     -20.476  -4.385 -12.435  0.00  0.00     0.159 HD
HETATM   15  O           1     -23.058  -3.459 -10.913  0.00  0.00    -0.274 OA
ENDBRANCH  10  11
ENDBRANCH   5  10
ENDBRANCH   3   5
BRANCH   2  16
HETATM   16  C           1     -20.610  -6.269  -5.485  0.00  0.00     0.209 C 
BRANCH  16  17
HETATM   17  C           1     -21.210  -5.993  -4.112  0.00  0.00     0.200 C 
BRANCH  17  18
HETATM   18  O           1     -21.242  -7.180  -3.367  0.00  0.00    -0.398 OA
HETATM   19  H           1     -20.388  -7.570  -3.439  0.00  0.00     0.209 HD
ENDBRANCH  17  18
ENDBRANCH  16  17
BRANCH  16  20
HETATM   20  C           1     -20.452  -7.758  -5.674  0.00  0.00     0.198 C 
HETATM   21  O           1     -19.326  -8.287  -5.548  0.00  0.00    -0.646 OA
HETATM   22  O           1     -21.445  -8.461  -5.959  0.00  0.00    -0.646 OA
ENDBRANCH  16  20
ENDBRANCH   2  16
TORSDOF 8
ENDMDL
