MODEL 1
REMARK VINA RESULT:      -6.6      0.000      0.000
REMARK  10 active torsions:
REMARK  status: ('A' for Active; 'I' for Inactive)
REMARK    1  A    between atoms: P_1  and  O_2 
REMARK    2  A    between atoms: P_1  and  O_28 
REMARK    3  A    between atoms: O_2  and  C_3 
REMARK    4  A    between atoms: C_3  and  C_4 
REMARK    5  A    between atoms: C_4  and  C_5 
REMARK    6  A    between atoms: C_4  and  N_25 
REMARK       I    between atoms: C_5  and  N_6 
REMARK    7  A    between atoms: N_6  and  C_14 
REMARK    8  A    between atoms: C_12  and  C_13 
REMARK    9  A    between atoms: C_13  and  C_14 
REMARK   10  A    between atoms: C_14  and  C_16 
ROOT
HETATM    1  C           1     -34.490  -1.884 -10.519  0.00  0.00     0.251 C 
HETATM    2  N           1     -35.781  -1.436 -10.423  0.00  0.00    -0.344 N 
HETATM    3  H           1     -36.480  -2.005  -9.964  0.00  0.00     0.163 HD
HETATM    4  O           1     -33.694  -1.624  -9.650  0.00  0.00    -0.271 OA
ENDROOT
BRANCH   1   5
HETATM    5  C           1     -34.063  -2.702 -11.713  0.00  0.00     0.298 C 
BRANCH   5   6
HETATM    6  C           1     -35.032  -3.860 -11.909  0.00  0.00     0.224 C 
BRANCH   6   7
HETATM    7  O           1     -35.037  -4.665 -10.760  0.00  0.00    -0.287 OA
BRANCH   7   8
HETATM    8  P           1     -34.530  -6.184 -10.958  0.00  0.00     0.406 P 
HETATM    9  O           1     -35.009  -7.015  -9.830  0.00  0.00    -0.624 OA
HETATM   10  O           1     -33.050  -6.209 -10.996  0.00  0.00    -0.624 OA
BRANCH   8  11
HETATM   11  O           1     -35.113  -6.772 -12.344  0.00  0.00    -0.300 OA
HETATM   12  H           1     -34.925  -7.695 -12.316  0.00  0.00     0.223 HD
ENDBRANCH   8  11
ENDBRANCH   7   8
ENDBRANCH   6   7
ENDBRANCH   5   6
BRANCH   5  13
HETATM   13  N           1     -32.681  -3.239 -11.483  0.00  0.00    -0.064 N 
HETATM   14  H           1     -32.743  -4.154 -10.980  0.00  0.00     0.275 HD
HETATM   15  H           1     -32.135  -2.560 -10.907  0.00  0.00     0.275 HD
HETATM   16  H           1     -32.204  -3.379 -12.402  0.00  0.00     0.275 HD
ENDBRANCH   5  13
ENDBRANCH   1   5
BRANCH   2  17
HETATM   17  C           1     -36.145  -0.147 -10.979  0.00  0.00     0.191 C 
BRANCH  17  18
HETATM   18  C           1     -37.031  -0.355 -12.201  0.00  0.00     0.094 C 
BRANCH  18  19
HETATM   19  C           1     -36.308   0.108 -13.427  0.00  0.00     0.028 A 
HETATM   20  N           1     -36.912   0.415 -14.618  0.00  0.00    -0.354 N 
HETATM   21  C           1     -35.936   0.774 -15.420  0.00  0.00     0.180 A 
ATOM     22  HN          1     -37.908   0.374 -14.835  1.00  0.00     0.166 HD
HETATM   23  N           1     -34.724   0.708 -14.792  0.00  0.00    -0.360 N 
HETATM   24  C           1     -34.946   0.283 -13.512  0.00  0.00     0.114 A 
HETATM   25  H           1     -33.793   0.942 -15.217  0.00  0.00     0.166 HD
ENDBRANCH  18  19
ENDBRANCH  17  18
BRANCH  17  26
HETATM   26  C           1     -36.895   0.652  -9.943  0.00  0.00     0.197 C 
HETATM   27  O           1     -38.071   1.012 -10.162  0.00  0.00    -0.646 OA
HETATM   28  O           1     -36.339   0.956  -8.865  0.00  0.00    -0.646 OA
ENDBRANCH  17  26
ENDBRANCH   2  17
TORSDOF 10
ENDMDL
MODEL 2
REMARK VINA RESULT:      -6.6      3.590      6.717
REMARK  10 active torsions:
REMARK  status: ('A' for Active; 'I' for Inactive)
REMARK    1  A    between atoms: P_1  and  O_2 
REMARK    2  A    between atoms: P_1  and  O_28 
REMARK    3  A    between atoms: O_2  and  C_3 
REMARK    4  A    between atoms: C_3  and  C_4 
REMARK    5  A    between atoms: C_4  and  C_5 
REMARK    6  A    between atoms: C_4  and  N_25 
REMARK       I    between atoms: C_5  and  N_6 
REMARK    7  A    between atoms: N_6  and  C_14 
REMARK    8  A    between atoms: C_12  and  C_13 
REMARK    9  A    between atoms: C_13  and  C_14 
REMARK   10  A    between atoms: C_14  and  C_16 
ROOT
HETATM    1  C           1     -34.116  -1.998 -10.995  0.00  0.00     0.251 C 
HETATM    2  N           1     -33.329  -2.836 -11.739  0.00  0.00    -0.344 N 
HETATM    3  H           1     -32.507  -2.476 -12.206  0.00  0.00     0.163 HD
HETATM    4  O           1     -33.889  -1.842  -9.820  0.00  0.00    -0.271 OA
ENDROOT
BRANCH   1   5
HETATM    5  C           1     -35.268  -1.271 -11.645  0.00  0.00     0.298 C 
BRANCH   5   6
HETATM    6  C           1     -34.735  -0.329 -12.716  0.00  0.00     0.224 C 
BRANCH   6   7
HETATM    7  O           1     -35.801   0.379 -13.289  0.00  0.00    -0.287 OA
BRANCH   7   8
HETATM    8  P           1     -36.382  -0.215 -14.673  0.00  0.00     0.406 P 
HETATM    9  O           1     -36.480   0.872 -15.674  0.00  0.00    -0.624 OA
HETATM   10  O           1     -37.724  -0.793 -14.437  0.00  0.00    -0.624 OA
BRANCH   8  11
HETATM   11  O           1     -35.391  -1.365 -15.225  0.00  0.00    -0.300 OA
HETATM   12  H           1     -35.960  -2.032 -15.570  0.00  0.00     0.223 HD
ENDBRANCH   8  11
ENDBRANCH   7   8
ENDBRANCH   6   7
ENDBRANCH   5   6
BRANCH   5  13
HETATM   13  N           1     -36.010  -0.481 -10.607  0.00  0.00    -0.064 N 
HETATM   14  H           1     -36.973  -0.270 -10.954  0.00  0.00     0.275 HD
HETATM   15  H           1     -35.502   0.413 -10.422  0.00  0.00     0.275 HD
HETATM   16  H           1     -36.071  -1.036  -9.724  0.00  0.00     0.275 HD
ENDBRANCH   5  13
ENDBRANCH   1   5
BRANCH   2  17
HETATM   17  C           1     -33.674  -4.240 -11.858  0.00  0.00     0.191 C 
BRANCH  17  18
HETATM   18  C           1     -34.552  -4.647 -10.682  0.00  0.00     0.094 C 
BRANCH  18  19
HETATM   19  C           1     -34.367  -6.105 -10.400  0.00  0.00     0.028 A 
HETATM   20  N           1     -33.371  -6.881 -10.933  0.00  0.00    -0.354 N 
HETATM   21  C           1     -33.564  -8.082 -10.437  0.00  0.00     0.180 A 
ATOM     22  HN          1     -32.636  -6.588 -11.578  1.00  0.00     0.166 HD
HETATM   23  N           1     -34.647  -8.111  -9.605  0.00  0.00    -0.360 N 
HETATM   24  C           1     -35.173  -6.849  -9.571  0.00  0.00     0.114 A 
HETATM   25  H           1     -35.010  -8.949  -9.087  0.00  0.00     0.166 HD
ENDBRANCH  18  19
ENDBRANCH  17  18
BRANCH  17  26
HETATM   26  C           1     -34.422  -4.465 -13.148  0.00  0.00     0.197 C 
HETATM   27  O           1     -35.187  -5.447 -13.264  0.00  0.00    -0.646 OA
HETATM   28  O           1     -34.277  -3.671 -14.102  0.00  0.00    -0.646 OA
ENDBRANCH  17  26
ENDBRANCH   2  17
TORSDOF 10
ENDMDL
MODEL 3
REMARK VINA RESULT:      -6.4      9.953     11.684
REMARK  10 active torsions:
REMARK  status: ('A' for Active; 'I' for Inactive)
REMARK    1  A    between atoms: P_1  and  O_2 
REMARK    2  A    between atoms: P_1  and  O_28 
REMARK    3  A    between atoms: O_2  and  C_3 
REMARK    4  A    between atoms: C_3  and  C_4 
REMARK    5  A    between atoms: C_4  and  C_5 
REMARK    6  A    between atoms: C_4  and  N_25 
REMARK       I    between atoms: C_5  and  N_6 
REMARK    7  A    between atoms: N_6  and  C_14 
REMARK    8  A    between atoms: C_12  and  C_13 
REMARK    9  A    between atoms: C_13  and  C_14 
REMARK   10  A    between atoms: C_14  and  C_16 
ROOT
HETATM    1  C           1     -25.760  -6.947 -16.422  0.00  0.00     0.251 C 
HETATM    2  N           1     -27.056  -7.081 -16.841  0.00  0.00    -0.344 N 
HETATM    3  H           1     -27.413  -7.993 -17.096  0.00  0.00     0.163 HD
HETATM    4  O           1     -25.491  -7.045 -15.249  0.00  0.00    -0.271 OA
ENDROOT
BRANCH   1   5
HETATM    5  C           1     -24.666  -6.674 -17.426  0.00  0.00     0.298 C 
BRANCH   5   6
HETATM    6  C           1     -25.232  -6.789 -18.835  0.00  0.00     0.224 C 
BRANCH   6   7
HETATM    7  O           1     -24.451  -7.684 -19.581  0.00  0.00    -0.287 OA
BRANCH   7   8
HETATM    8  P           1     -24.787  -7.772 -21.157  0.00  0.00     0.406 P 
HETATM    9  O           1     -24.882  -6.406 -21.719  0.00  0.00    -0.624 OA
HETATM   10  O           1     -26.076  -8.476 -21.348  0.00  0.00    -0.624 OA
BRANCH   8  11
HETATM   11  O           1     -23.614  -8.584 -21.914  0.00  0.00    -0.300 OA
HETATM   12  H           1     -22.823  -8.349 -21.460  0.00  0.00     0.223 HD
ENDBRANCH   8  11
ENDBRANCH   7   8
ENDBRANCH   6   7
ENDBRANCH   5   6
BRANCH   5  13
HETATM   13  N           1     -23.562  -7.673 -17.247  0.00  0.00    -0.064 N 
HETATM   14  H           1     -22.656  -7.247 -17.548  0.00  0.00     0.275 HD
HETATM   15  H           1     -23.760  -8.518 -17.828  0.00  0.00     0.275 HD
HETATM   16  H           1     -23.501  -7.949 -16.241  0.00  0.00     0.275 HD
ENDBRANCH   5  13
ENDBRANCH   1   5
BRANCH   2  17
HETATM   17  C           1     -27.918  -5.918 -16.919  0.00  0.00     0.191 C 
BRANCH  17  18
HETATM   18  C           1     -29.132  -6.244 -17.780  0.00  0.00     0.094 C 
BRANCH  18  19
HETATM   19  C           1     -30.210  -5.237 -17.526  0.00  0.00     0.028 A 
HETATM   20  N           1     -31.368  -5.493 -16.840  0.00  0.00    -0.354 N 
HETATM   21  C           1     -32.031  -4.359 -16.843  0.00  0.00     0.180 A 
ATOM     22  HN          1     -31.655  -6.376 -16.416  1.00  0.00     0.166 HD
HETATM   23  N           1     -31.345  -3.381 -17.507  0.00  0.00    -0.360 N 
HETATM   24  C           1     -30.175  -3.930 -17.951  0.00  0.00     0.114 A 
HETATM   25  H           1     -31.661  -2.390 -17.649  0.00  0.00     0.166 HD
ENDBRANCH  18  19
ENDBRANCH  17  18
BRANCH  17  26
HETATM   26  C           1     -28.372  -5.535 -15.532  0.00  0.00     0.197 C 
HETATM   27  O           1     -28.110  -4.400 -15.079  0.00  0.00    -0.646 OA
HETATM   28  O           1     -29.009  -6.354 -14.835  0.00  0.00    -0.646 OA
ENDBRANCH  17  26
ENDBRANCH   2  17
TORSDOF 10
ENDMDL
MODEL 4
REMARK VINA RESULT:      -5.9     13.807     16.618
REMARK  10 active torsions:
REMARK  status: ('A' for Active; 'I' for Inactive)
REMARK    1  A    between atoms: P_1  and  O_2 
REMARK    2  A    between atoms: P_1  and  O_28 
REMARK    3  A    between atoms: O_2  and  C_3 
REMARK    4  A    between atoms: C_3  and  C_4 
REMARK    5  A    between atoms: C_4  and  C_5 
REMARK    6  A    between atoms: C_4  and  N_25 
REMARK       I    between atoms: C_5  and  N_6 
REMARK    7  A    between atoms: N_6  and  C_14 
REMARK    8  A    between atoms: C_12  and  C_13 
REMARK    9  A    between atoms: C_13  and  C_14 
REMARK   10  A    between atoms: C_14  and  C_16 
ROOT
HETATM    1  C           1     -20.242  -5.386  -7.077  0.00  0.00     0.251 C 
HETATM    2  N           1     -20.181  -6.724  -6.791  0.00  0.00    -0.344 N 
HETATM    3  H           1     -20.062  -7.396  -7.538  0.00  0.00     0.163 HD
HETATM    4  O           1     -19.230  -4.727  -7.098  0.00  0.00    -0.271 OA
ENDROOT
BRANCH   1   5
HETATM    5  C           1     -21.573  -4.735  -7.363  0.00  0.00     0.298 C 
BRANCH   5   6
HETATM    6  C           1     -21.878  -4.835  -8.851  0.00  0.00     0.224 C 
BRANCH   6   7
HETATM    7  O           1     -23.216  -4.485  -9.079  0.00  0.00    -0.287 OA
BRANCH   7   8
HETATM    8  P           1     -23.579  -4.011 -10.579  0.00  0.00     0.406 P 
HETATM    9  O           1     -23.712  -5.198 -11.453  0.00  0.00    -0.624 OA
HETATM   10  O           1     -22.501  -3.137 -11.093  0.00  0.00    -0.624 OA
BRANCH   8  11
HETATM   11  O           1     -24.972  -3.194 -10.565  0.00  0.00    -0.300 OA
HETATM   12  H           1     -25.153  -3.006 -11.470  0.00  0.00     0.223 HD
ENDBRANCH   8  11
ENDBRANCH   7   8
ENDBRANCH   6   7
ENDBRANCH   5   6
BRANCH   5  13
HETATM   13  N           1     -21.520  -3.291  -6.958  0.00  0.00    -0.064 N 
HETATM   14  H           1     -20.544  -3.044  -6.679  0.00  0.00     0.275 HD
HETATM   15  H           1     -22.165  -3.132  -6.152  0.00  0.00     0.275 HD
HETATM   16  H           1     -21.815  -2.693  -7.763  0.00  0.00     0.275 HD
ENDBRANCH   5  13
ENDBRANCH   1   5
BRANCH   2  17
HETATM   17  C           1     -20.288  -7.179  -5.418  0.00  0.00     0.191 C 
BRANCH  17  18
HETATM   18  C           1     -21.748  -7.140  -4.984  0.00  0.00     0.094 C 
BRANCH  18  19
HETATM   19  C           1     -21.825  -7.062  -3.491  0.00  0.00     0.028 A 
HETATM   20  N           1     -22.270  -5.972  -2.790  0.00  0.00    -0.354 N 
HETATM   21  C           1     -22.177  -6.312  -1.525  0.00  0.00     0.180 A 
ATOM     22  HN          1     -22.602  -5.085  -3.169  1.00  0.00     0.166 HD
HETATM   23  N           1     -21.688  -7.581  -1.383  0.00  0.00    -0.360 N 
HETATM   24  C           1     -21.457  -8.075  -2.637  0.00  0.00     0.114 A 
HETATM   25  H           1     -21.520  -8.083  -0.476  0.00  0.00     0.166 HD
ENDBRANCH  18  19
ENDBRANCH  17  18
BRANCH  17  26
HETATM   26  C           1     -19.769  -8.591  -5.315  0.00  0.00     0.197 C 
HETATM   27  O           1     -18.674  -8.815  -4.756  0.00  0.00    -0.646 OA
HETATM   28  O           1     -20.433  -9.537  -5.790  0.00  0.00    -0.646 OA
ENDBRANCH  17  26
ENDBRANCH   2  17
TORSDOF 10
ENDMDL
MODEL 5
REMARK VINA RESULT:      -5.8     13.745     15.928
REMARK  10 active torsions:
REMARK  status: ('A' for Active; 'I' for Inactive)
REMARK    1  A    between atoms: P_1  and  O_2 
REMARK    2  A    between atoms: P_1  and  O_28 
REMARK    3  A    between atoms: O_2  and  C_3 
REMARK    4  A    between atoms: C_3  and  C_4 
REMARK    5  A    between atoms: C_4  and  C_5 
REMARK    6  A    between atoms: C_4  and  N_25 
REMARK       I    between atoms: C_5  and  N_6 
REMARK    7  A    between atoms: N_6  and  C_14 
REMARK    8  A    between atoms: C_12  and  C_13 
REMARK    9  A    between atoms: C_13  and  C_14 
REMARK   10  A    between atoms: C_14  and  C_16 
ROOT
HETATM    1  C           1     -22.334  -6.502  -5.021  0.00  0.00     0.251 C 
HETATM    2  N           1     -21.882  -6.895  -6.252  0.00  0.00    -0.344 N 
HETATM    3  H           1     -21.951  -7.866  -6.530  0.00  0.00     0.163 HD
HETATM    4  O           1     -23.479  -6.144  -4.884  0.00  0.00    -0.271 OA
ENDROOT
BRANCH   1   5
HETATM    5  C           1     -21.400  -6.514  -3.835  0.00  0.00     0.298 C 
BRANCH   5   6
HETATM    6  C           1     -20.979  -7.946  -3.535  0.00  0.00     0.224 C 
BRANCH   6   7
HETATM    7  O           1     -19.758  -8.217  -4.170  0.00  0.00    -0.287 OA
BRANCH   7   8
HETATM    8  P           1     -19.684  -9.598  -5.003  0.00  0.00     0.406 P 
HETATM    9  O           1     -20.944  -9.786  -5.758  0.00  0.00    -0.624 OA
HETATM   10  O           1     -19.495 -10.729  -4.067  0.00  0.00    -0.624 OA
BRANCH   8  11
HETATM   11  O           1     -18.443  -9.540  -6.034  0.00  0.00    -0.300 OA
HETATM   12  H           1     -17.674  -9.592  -5.493  0.00  0.00     0.223 HD
ENDBRANCH   8  11
ENDBRANCH   7   8
ENDBRANCH   6   7
ENDBRANCH   5   6
BRANCH   5  13
HETATM   13  N           1     -22.102  -5.939  -2.640  0.00  0.00    -0.064 N 
HETATM   14  H           1     -21.612  -5.066  -2.337  0.00  0.00     0.275 HD
HETATM   15  H           1     -22.091  -6.635  -1.861  0.00  0.00     0.275 HD
HETATM   16  H           1     -23.091  -5.713  -2.892  0.00  0.00     0.275 HD
ENDBRANCH   5  13
ENDBRANCH   1   5
BRANCH   2  17
HETATM   17  C           1     -21.303  -5.922  -7.158  0.00  0.00     0.191 C 
BRANCH  17  18
HETATM   18  C           1     -21.964  -4.568  -6.935  0.00  0.00     0.094 C 
BRANCH  18  19
HETATM   19  C           1     -22.670  -4.143  -8.184  0.00  0.00     0.028 A 
HETATM   20  N           1     -24.016  -3.901  -8.274  0.00  0.00    -0.354 N 
HETATM   21  C           1     -24.224  -3.557  -9.525  0.00  0.00     0.180 A 
ATOM     22  HN          1     -24.709  -3.972  -7.529  1.00  0.00     0.166 HD
HETATM   23  N           1     -23.063  -3.571 -10.246  0.00  0.00    -0.360 N 
HETATM   24  C           1     -22.057  -3.945  -9.399  0.00  0.00     0.114 A 
HETATM   25  H           1     -22.963  -3.337 -11.265  0.00  0.00     0.166 HD
ENDBRANCH  18  19
ENDBRANCH  17  18
BRANCH  17  26
HETATM   26  C           1     -19.822  -5.810  -6.896  0.00  0.00     0.197 C 
HETATM   27  O           1     -19.332  -4.720  -6.530  0.00  0.00    -0.646 OA
HETATM   28  O           1     -19.084  -6.808  -7.045  0.00  0.00    -0.646 OA
ENDBRANCH  17  26
ENDBRANCH   2  17
TORSDOF 10
ENDMDL
MODEL 6
REMARK VINA RESULT:      -5.8      8.829     10.660
REMARK  10 active torsions:
REMARK  status: ('A' for Active; 'I' for Inactive)
REMARK    1  A    between atoms: P_1  and  O_2 
REMARK    2  A    between atoms: P_1  and  O_28 
REMARK    3  A    between atoms: O_2  and  C_3 
REMARK    4  A    between atoms: C_3  and  C_4 
REMARK    5  A    between atoms: C_4  and  C_5 
REMARK    6  A    between atoms: C_4  and  N_25 
REMARK       I    between atoms: C_5  and  N_6 
REMARK    7  A    between atoms: N_6  and  C_14 
REMARK    8  A    between atoms: C_12  and  C_13 
REMARK    9  A    between atoms: C_13  and  C_14 
REMARK   10  A    between atoms: C_14  and  C_16 
ROOT
HETATM    1  C           1     -27.784  -5.135 -16.257  0.00  0.00     0.251 C 
HETATM    2  N           1     -28.894  -5.719 -15.707  0.00  0.00    -0.344 N 
HETATM    3  H           1     -28.935  -5.888 -14.711  0.00  0.00     0.163 HD
HETATM    4  O           1     -27.722  -3.934 -16.359  0.00  0.00    -0.271 OA
ENDROOT
BRANCH   1   5
HETATM    5  C           1     -26.640  -5.994 -16.739  0.00  0.00     0.298 C 
BRANCH   5   6
HETATM    6  C           1     -26.742  -6.175 -18.248  0.00  0.00     0.224 C 
BRANCH   6   7
HETATM    7  O           1     -25.475  -6.473 -18.769  0.00  0.00    -0.287 OA
BRANCH   7   8
HETATM    8  P           1     -25.448  -7.060 -20.273  0.00  0.00     0.406 P 
HETATM    9  O           1     -24.297  -7.978 -20.424  0.00  0.00    -0.624 OA
HETATM   10  O           1     -25.320  -5.943 -21.236  0.00  0.00    -0.624 OA
BRANCH   8  11
HETATM   11  O           1     -26.819  -7.864 -20.563  0.00  0.00    -0.300 OA
HETATM   12  H           1     -26.545  -8.691 -20.921  0.00  0.00     0.223 HD
ENDBRANCH   8  11
ENDBRANCH   7   8
ENDBRANCH   6   7
ENDBRANCH   5   6
BRANCH   5  13
HETATM   13  N           1     -26.705  -7.335 -16.069  0.00  0.00    -0.064 N 
HETATM   14  H           1     -27.026  -7.214 -15.082  0.00  0.00     0.275 HD
HETATM   15  H           1     -25.757  -7.773 -16.077  0.00  0.00     0.275 HD
HETATM   16  H           1     -27.377  -7.949 -16.582  0.00  0.00     0.275 HD
ENDBRANCH   5  13
ENDBRANCH   1   5
BRANCH   2  17
HETATM   17  C           1     -30.011  -6.096 -16.552  0.00  0.00     0.191 C 
BRANCH  17  18
HETATM   18  C           1     -30.291  -4.978 -17.549  0.00  0.00     0.094 C 
BRANCH  18  19
HETATM   19  C           1     -31.628  -4.371 -17.257  0.00  0.00     0.028 A 
HETATM   20  N           1     -32.039  -3.143 -17.703  0.00  0.00    -0.354 N 
HETATM   21  C           1     -33.255  -2.992 -17.231  0.00  0.00     0.180 A 
ATOM     22  HN          1     -31.513  -2.485 -18.279  1.00  0.00     0.166 HD
HETATM   23  N           1     -33.644  -4.076 -16.496  0.00  0.00    -0.360 N 
HETATM   24  C           1     -32.610  -4.970 -16.503  0.00  0.00     0.114 A 
HETATM   25  H           1     -34.568  -4.200 -16.013  0.00  0.00     0.166 HD
ENDBRANCH  18  19
ENDBRANCH  17  18
BRANCH  17  26
HETATM   26  C           1     -29.671  -7.362 -17.297  0.00  0.00     0.197 C 
HETATM   27  O           1     -29.306  -8.379 -16.669  0.00  0.00    -0.646 OA
HETATM   28  O           1     -29.755  -7.396 -18.544  0.00  0.00    -0.646 OA
ENDBRANCH  17  26
ENDBRANCH   2  17
TORSDOF 10
ENDMDL
MODEL 7
REMARK VINA RESULT:      -5.8     13.833     15.826
REMARK  10 active torsions:
REMARK  status: ('A' for Active; 'I' for Inactive)
REMARK    1  A    between atoms: P_1  and  O_2 
REMARK    2  A    between atoms: P_1  and  O_28 
REMARK    3  A    between atoms: O_2  and  C_3 
REMARK    4  A    between atoms: C_3  and  C_4 
REMARK    5  A    between atoms: C_4  and  C_5 
REMARK    6  A    between atoms: C_4  and  N_25 
REMARK       I    between atoms: C_5  and  N_6 
REMARK    7  A    between atoms: N_6  and  C_14 
REMARK    8  A    between atoms: C_12  and  C_13 
REMARK    9  A    between atoms: C_13  and  C_14 
REMARK   10  A    between atoms: C_14  and  C_16 
ROOT
HETATM    1  C           1     -21.649  -6.359  -4.610  0.00  0.00     0.251 C 
HETATM    2  N           1     -22.284  -5.654  -5.598  0.00  0.00    -0.344 N 
HETATM    3  H           1     -23.222  -5.307  -5.447  0.00  0.00     0.163 HD
HETATM    4  O           1     -20.977  -5.779  -3.792  0.00  0.00    -0.271 OA
ENDROOT
BRANCH   1   5
HETATM    5  C           1     -21.786  -7.860  -4.546  0.00  0.00     0.298 C 
BRANCH   5   6
HETATM    6  C           1     -21.040  -8.387  -3.328  0.00  0.00     0.224 C 
BRANCH   6   7
HETATM    7  O           1     -21.960  -8.893  -2.398  0.00  0.00    -0.287 OA
BRANCH   7   8
HETATM    8  P           1     -22.044  -8.112  -0.988  0.00  0.00     0.406 P 
HETATM    9  O           1     -20.702  -8.080  -0.362  0.00  0.00    -0.624 OA
HETATM   10  O           1     -22.991  -8.813  -0.092  0.00  0.00    -0.624 OA
BRANCH   8  11
HETATM   11  O           1     -22.556  -6.601  -1.237  0.00  0.00    -0.300 OA
HETATM   12  H           1     -21.944  -6.056  -0.773  0.00  0.00     0.223 HD
ENDBRANCH   8  11
ENDBRANCH   7   8
ENDBRANCH   6   7
ENDBRANCH   5   6
BRANCH   5  13
HETATM   13  N           1     -21.208  -8.469  -5.789  0.00  0.00    -0.064 N 
HETATM   14  H           1     -20.166  -8.500  -5.708  0.00  0.00     0.275 HD
HETATM   15  H           1     -21.477  -7.891  -6.617  0.00  0.00     0.275 HD
HETATM   16  H           1     -21.578  -9.439  -5.907  0.00  0.00     0.275 HD
ENDBRANCH   5  13
ENDBRANCH   1   5
BRANCH   2  17
HETATM   17  C           1     -21.613  -5.406  -6.859  0.00  0.00     0.191 C 
BRANCH  17  18
HETATM   18  C           1     -21.967  -4.010  -7.354  0.00  0.00     0.094 C 
BRANCH  18  19
HETATM   19  C           1     -22.837  -4.115  -8.568  0.00  0.00     0.028 A 
HETATM   20  N           1     -24.156  -3.745  -8.615  0.00  0.00    -0.354 N 
HETATM   21  C           1     -24.543  -3.996  -9.845  0.00  0.00     0.180 A 
ATOM     22  HN          1     -24.718  -3.359  -7.856  1.00  0.00     0.166 HD
HETATM   23  N           1     -23.524  -4.514 -10.593  0.00  0.00    -0.360 N 
HETATM   24  C           1     -22.422  -4.597  -9.787  0.00  0.00     0.114 A 
HETATM   25  H           1     -23.577  -4.798 -11.603  0.00  0.00     0.166 HD
ENDBRANCH  18  19
ENDBRANCH  17  18
BRANCH  17  26
HETATM   26  C           1     -20.121  -5.508  -6.663  0.00  0.00     0.197 C 
HETATM   27  O           1     -19.483  -4.538  -6.200  0.00  0.00    -0.646 OA
HETATM   28  O           1     -19.522  -6.563  -6.963  0.00  0.00    -0.646 OA
ENDBRANCH  17  26
ENDBRANCH   2  17
TORSDOF 10
ENDMDL
MODEL 8
REMARK VINA RESULT:      -5.7     13.963     16.455
REMARK  10 active torsions:
REMARK  status: ('A' for Active; 'I' for Inactive)
REMARK    1  A    between atoms: P_1  and  O_2 
REMARK    2  A    between atoms: P_1  and  O_28 
REMARK    3  A    between atoms: O_2  and  C_3 
REMARK    4  A    between atoms: C_3  and  C_4 
REMARK    5  A    between atoms: C_4  and  C_5 
REMARK    6  A    between atoms: C_4  and  N_25 
REMARK       I    between atoms: C_5  and  N_6 
REMARK    7  A    between atoms: N_6  and  C_14 
REMARK    8  A    between atoms: C_12  and  C_13 
REMARK    9  A    between atoms: C_13  and  C_14 
REMARK   10  A    between atoms: C_14  and  C_16 
ROOT
HETATM    1  C           1     -20.800  -5.206  -6.949  0.00  0.00     0.251 C 
HETATM    2  N           1     -20.416  -6.487  -6.653  0.00  0.00    -0.344 N 
HETATM    3  H           1     -19.591  -6.881  -7.087  0.00  0.00     0.163 HD
HETATM    4  O           1     -20.384  -4.284  -6.290  0.00  0.00    -0.271 OA
ENDROOT
BRANCH   1   5
HETATM    5  C           1     -21.745  -4.948  -8.097  0.00  0.00     0.298 C 
BRANCH   5   6
HETATM    6  C           1     -21.027  -4.148  -9.175  0.00  0.00     0.224 C 
BRANCH   6   7
HETATM    7  O           1     -21.193  -4.779 -10.416  0.00  0.00    -0.287 OA
BRANCH   7   8
HETATM    8  P           1     -22.359  -4.185 -11.362  0.00  0.00     0.406 P 
HETATM    9  O           1     -22.952  -2.990 -10.722  0.00  0.00    -0.624 OA
HETATM   10  O           1     -23.406  -5.212 -11.559  0.00  0.00    -0.624 OA
BRANCH   8  11
HETATM   11  O           1     -21.734  -3.773 -12.793  0.00  0.00    -0.300 OA
HETATM   12  H           1     -22.467  -3.468 -13.301  0.00  0.00     0.223 HD
ENDBRANCH   8  11
ENDBRANCH   7   8
ENDBRANCH   6   7
ENDBRANCH   5   6
BRANCH   5  13
HETATM   13  N           1     -22.931  -4.173  -7.605  0.00  0.00    -0.064 N 
HETATM   14  H           1     -23.779  -4.785  -7.627  0.00  0.00     0.275 HD
HETATM   15  H           1     -23.083  -3.342  -8.219  0.00  0.00     0.275 HD
HETATM   16  H           1     -22.757  -3.855  -6.625  0.00  0.00     0.275 HD
ENDBRANCH   5  13
ENDBRANCH   1   5
BRANCH   2  17
HETATM   17  C           1     -21.191  -7.279  -5.718  0.00  0.00     0.191 C 
BRANCH  17  18
HETATM   18  C           1     -20.249  -8.119  -4.864  0.00  0.00     0.094 C 
BRANCH  18  19
HETATM   19  C           1     -21.041  -9.125  -4.087  0.00  0.00     0.028 A 
HETATM   20  N           1     -21.314  -9.035  -2.748  0.00  0.00    -0.354 N 
HETATM   21  C           1     -22.023 -10.104  -2.466  0.00  0.00     0.180 A 
ATOM     22  HN          1     -21.028  -8.295  -2.106  1.00  0.00     0.166 HD
HETATM   23  N           1     -22.216 -10.882  -3.573  0.00  0.00    -0.360 N 
HETATM   24  C           1     -21.591 -10.266  -4.621  0.00  0.00     0.114 A 
HETATM   25  H           1     -22.747 -11.786  -3.610  0.00  0.00     0.166 HD
ENDBRANCH  18  19
ENDBRANCH  17  18
BRANCH  17  26
HETATM   26  C           1     -21.995  -6.363  -4.830  0.00  0.00     0.197 C 
HETATM   27  O           1     -23.176  -6.083  -5.126  0.00  0.00    -0.646 OA
HETATM   28  O           1     -21.480  -5.883  -3.797  0.00  0.00    -0.646 OA
ENDBRANCH  17  26
ENDBRANCH   2  17
TORSDOF 10
ENDMDL
MODEL 9
REMARK VINA RESULT:      -5.7     15.648     17.797
REMARK  10 active torsions:
REMARK  status: ('A' for Active; 'I' for Inactive)
REMARK    1  A    between atoms: P_1  and  O_2 
REMARK    2  A    between atoms: P_1  and  O_28 
REMARK    3  A    between atoms: O_2  and  C_3 
REMARK    4  A    between atoms: C_3  and  C_4 
REMARK    5  A    between atoms: C_4  and  C_5 
REMARK    6  A    between atoms: C_4  and  N_25 
REMARK       I    between atoms: C_5  and  N_6 
REMARK    7  A    between atoms: N_6  and  C_14 
REMARK    8  A    between atoms: C_12  and  C_13 
REMARK    9  A    between atoms: C_13  and  C_14 
REMARK   10  A    between atoms: C_14  and  C_16 
ROOT
HETATM    1  C           1     -21.557  -6.528  -4.192  0.00  0.00     0.251 C 
HETATM    2  N           1     -21.134  -6.656  -2.896  0.00  0.00    -0.344 N 
HETATM    3  H           1     -20.700  -5.872  -2.426  0.00  0.00     0.163 HD
HETATM    4  O           1     -22.682  -6.156  -4.426  0.00  0.00    -0.271 OA
ENDROOT
BRANCH   1   5
HETATM    5  C           1     -20.618  -6.853  -5.328  0.00  0.00     0.298 C 
BRANCH   5   6
HETATM    6  C           1     -20.448  -5.627  -6.214  0.00  0.00     0.224 C 
BRANCH   6   7
HETATM    7  O           1     -21.320  -5.715  -7.308  0.00  0.00    -0.287 OA
BRANCH   7   8
HETATM    8  P           1     -22.207  -4.401  -7.614  0.00  0.00     0.406 P 
HETATM    9  O           1     -22.483  -4.319  -9.066  0.00  0.00    -0.624 OA
HETATM   10  O           1     -21.465  -3.194  -7.183  0.00  0.00    -0.624 OA
BRANCH   8  11
HETATM   11  O           1     -23.602  -4.491  -6.806  0.00  0.00    -0.300 OA
HETATM   12  H           1     -23.469  -3.973  -6.030  0.00  0.00     0.223 HD
ENDBRANCH   8  11
ENDBRANCH   7   8
ENDBRANCH   6   7
ENDBRANCH   5   6
BRANCH   5  13
HETATM   13  N           1     -21.186  -7.981  -6.139  0.00  0.00    -0.064 N 
HETATM   14  H           1     -21.113  -8.871  -5.595  0.00  0.00     0.275 HD
HETATM   15  H           1     -20.652  -8.071  -7.032  0.00  0.00     0.275 HD
HETATM   16  H           1     -22.191  -7.785  -6.352  0.00  0.00     0.275 HD
ENDBRANCH   5  13
ENDBRANCH   1   5
BRANCH   2  17
HETATM   17  C           1     -21.306  -7.915  -2.197  0.00  0.00     0.191 C 
BRANCH  17  18
HETATM   18  C           1     -19.941  -8.534  -1.924  0.00  0.00     0.094 C 
BRANCH  18  19
HETATM   19  C           1     -19.545  -9.400  -3.079  0.00  0.00     0.028 A 
HETATM   20  N           1     -18.382  -9.265  -3.791  0.00  0.00    -0.354 N 
HETATM   21  C           1     -18.422 -10.208  -4.704  0.00  0.00     0.180 A 
ATOM     22  HN          1     -17.642  -8.578  -3.643  1.00  0.00     0.166 HD
HETATM   23  N           1     -19.569 -10.946  -4.609  0.00  0.00    -0.360 N 
HETATM   24  C           1     -20.299 -10.439  -3.571  0.00  0.00     0.114 A 
HETATM   25  H           1     -19.838 -11.754  -5.223  0.00  0.00     0.166 HD
ENDBRANCH  18  19
ENDBRANCH  17  18
BRANCH  17  26
HETATM   26  C           1     -22.019  -7.670  -0.891  0.00  0.00     0.197 C 
HETATM   27  O           1     -22.800  -6.701  -0.776  0.00  0.00    -0.646 OA
HETATM   28  O           1     -21.827  -8.435   0.079  0.00  0.00    -0.646 OA
ENDBRANCH  17  26
ENDBRANCH   2  17
TORSDOF 10
ENDMDL
