MODEL 1
REMARK VINA RESULT:      -7.2      0.000      0.000
REMARK  6 active torsions:
REMARK  status: ('A' for Active; 'I' for Inactive)
REMARK       I    between atoms: C_1  and  N_24 
REMARK    1  A    between atoms: C_1  and  C_2 
REMARK    2  A    between atoms: C_13  and  C_16 
REMARK    3  A    between atoms: C_16  and  C_20 
REMARK    4  A    between atoms: O_19  and  C_26 
REMARK    5  A    between atoms: C_20  and  C_21 
REMARK    6  A    between atoms: C_20  and  N_24 
ROOT
HETATM    1  C           1     -21.131  -5.553  -6.694  0.00  0.00     0.189 C 
ENDROOT
BRANCH   1   2
HETATM    2  C           1     -22.166  -4.548  -7.178  0.00  0.00     0.074 C 
BRANCH   2   3
HETATM    3  C           1     -22.059  -4.394  -8.663  0.00  0.00    -0.056 A 
HETATM    4  C           1     -23.197  -4.507  -9.461  0.00  0.00     0.010 A 
HETATM    5  C           1     -23.096  -4.364 -10.845  0.00  0.00     0.037 A 
HETATM    6  C           1     -21.858  -4.105 -11.430  0.00  0.00     0.065 A 
HETATM    7  C           1     -20.719  -3.991 -10.633  0.00  0.00     0.037 A 
HETATM    8  C           1     -20.819  -4.135  -9.249  0.00  0.00     0.010 A 
BRANCH   6   9
HETATM    9  O           1     -21.759  -3.965 -12.775  0.00  0.00    -0.361 OA
HETATM   10  H           1     -20.829  -4.095 -13.023  0.00  0.00     0.217 HD
ENDBRANCH   6   9
ENDBRANCH   2   3
ENDBRANCH   1   2
BRANCH   1  11
HETATM   11  C           1     -19.971  -4.819  -6.067  0.00  0.00     0.197 C 
HETATM   12  O           1     -20.057  -4.402  -4.891  0.00  0.00    -0.646 OA
HETATM   13  O           1     -18.923  -4.628  -6.722  0.00  0.00    -0.646 OA
ENDBRANCH   1  11
BRANCH   1  14
HETATM   14  N           1     -21.733  -6.432  -5.711  0.00  0.00    -0.344 N 
HETATM   15  C           1     -21.178  -7.656  -5.454  0.00  0.00     0.249 C 
HETATM   16  O           1     -20.184  -8.004  -6.047  0.00  0.00    -0.271 OA
HETATM   17  H           1     -22.565  -6.140  -5.214  0.00  0.00     0.163 HD
BRANCH  15  18
HETATM   18  C           1     -21.804  -8.570  -4.431  0.00  0.00     0.274 C 
HETATM   19  C           1     -21.427  -8.103  -3.032  0.00  0.00     0.042 C 
HETATM   20  C           1     -19.911  -8.131  -2.877  0.00  0.00     0.003 C 
HETATM   21 Se           1     -19.263  -9.948  -3.150  0.00  0.00     0.000 Se
HETATM   22  C           1     -17.388  -9.496  -2.868  0.00  0.00     0.000 C 
HETATM   23  H           1     -20.265  -9.988  -4.535  0.00  0.00     0.275 HD
HETATM   24  N           1     -21.304  -9.970  -4.641  0.00  0.00    -0.067 N 
HETATM   25  H           1     -21.737 -10.604  -3.933  0.00  0.00     0.275 HD
HETATM   26  H           1     -21.564 -10.291  -5.601  0.00  0.00     0.275 HD
ENDBRANCH  15  18
ENDBRANCH   1  14
TORSDOF 6
ENDMDL
MODEL 2
REMARK VINA RESULT:      -7.0      3.260      7.721
REMARK  6 active torsions:
REMARK  status: ('A' for Active; 'I' for Inactive)
REMARK       I    between atoms: C_1  and  N_24 
REMARK    1  A    between atoms: C_1  and  C_2 
REMARK    2  A    between atoms: C_13  and  C_16 
REMARK    3  A    between atoms: C_16  and  C_20 
REMARK    4  A    between atoms: O_19  and  C_26 
REMARK    5  A    between atoms: C_20  and  C_21 
REMARK    6  A    between atoms: C_20  and  N_24 
ROOT
HETATM    1  C           1     -21.008  -6.250  -4.448  0.00  0.00     0.189 C 
ENDROOT
BRANCH   1   2
HETATM    2  C           1     -21.156  -5.751  -3.018  0.00  0.00     0.074 C 
BRANCH   2   3
HETATM    3  C           1     -21.314  -6.918  -2.094  0.00  0.00    -0.056 A 
HETATM    4  C           1     -22.323  -6.915  -1.131  0.00  0.00     0.010 A 
HETATM    5  C           1     -22.469  -8.002  -0.271  0.00  0.00     0.037 A 
HETATM    6  C           1     -21.608  -9.094  -0.374  0.00  0.00     0.065 A 
HETATM    7  C           1     -20.599  -9.098  -1.337  0.00  0.00     0.037 A 
HETATM    8  C           1     -20.452  -8.010  -2.198  0.00  0.00     0.010 A 
BRANCH   6   9
HETATM    9  O           1     -21.751 -10.151   0.461  0.00  0.00    -0.361 OA
HETATM   10  H           1     -22.579 -10.034   0.956  0.00  0.00     0.217 HD
ENDBRANCH   6   9
ENDBRANCH   2   3
ENDBRANCH   1   2
BRANCH   1  11
HETATM   11  C           1     -22.306  -6.874  -4.900  0.00  0.00     0.197 C 
HETATM   12  O           1     -22.368  -8.104  -5.112  0.00  0.00    -0.646 OA
HETATM   13  O           1     -23.320  -6.161  -5.062  0.00  0.00    -0.646 OA
ENDBRANCH   1  11
BRANCH   1  14
HETATM   14  N           1     -20.681  -5.136  -5.318  0.00  0.00    -0.344 N 
HETATM   15  C           1     -20.322  -5.365  -6.618  0.00  0.00     0.249 C 
HETATM   16  O           1     -20.278  -6.495  -7.043  0.00  0.00    -0.271 OA
HETATM   17  H           1     -20.719  -4.189  -4.962  0.00  0.00     0.163 HD
BRANCH  15  18
HETATM   18  C           1     -19.982  -4.206  -7.523  0.00  0.00     0.274 C 
HETATM   19  C           1     -21.117  -3.192  -7.499  0.00  0.00     0.042 C 
HETATM   20  C           1     -22.402  -3.853  -7.982  0.00  0.00     0.003 C 
HETATM   21 Se           1     -22.153  -4.504  -9.802  0.00  0.00     0.000 Se
HETATM   22  C           1     -23.957  -5.223  -9.966  0.00  0.00     0.000 C 
HETATM   23  H           1     -20.672  -5.162  -9.255  0.00  0.00     0.275 HD
HETATM   24  N           1     -19.791  -4.708  -8.925  0.00  0.00    -0.067 N 
HETATM   25  H           1     -19.555  -3.907  -9.552  0.00  0.00     0.275 HD
HETATM   26  H           1     -19.011  -5.404  -8.941  0.00  0.00     0.275 HD
ENDBRANCH  15  18
ENDBRANCH   1  14
TORSDOF 6
ENDMDL
MODEL 3
REMARK VINA RESULT:      -6.7      3.858      6.900
REMARK  6 active torsions:
REMARK  status: ('A' for Active; 'I' for Inactive)
REMARK       I    between atoms: C_1  and  N_24 
REMARK    1  A    between atoms: C_1  and  C_2 
REMARK    2  A    between atoms: C_13  and  C_16 
REMARK    3  A    between atoms: C_16  and  C_20 
REMARK    4  A    between atoms: O_19  and  C_26 
REMARK    5  A    between atoms: C_20  and  C_21 
REMARK    6  A    between atoms: C_20  and  N_24 
ROOT
HETATM    1  C           1     -21.093  -8.594  -4.859  0.00  0.00     0.189 C 
ENDROOT
BRANCH   1   2
HETATM    2  C           1     -20.255  -8.322  -3.618  0.00  0.00     0.074 C 
BRANCH   2   3
HETATM    3  C           1     -21.149  -8.230  -2.421  0.00  0.00    -0.056 A 
HETATM    4  C           1     -21.584  -9.392  -1.783  0.00  0.00     0.010 A 
HETATM    5  C           1     -22.417  -9.305  -0.668  0.00  0.00     0.037 A 
HETATM    6  C           1     -22.814  -8.058  -0.189  0.00  0.00     0.065 A 
HETATM    7  C           1     -22.380  -6.895  -0.826  0.00  0.00     0.037 A 
HETATM    8  C           1     -21.547  -6.981  -1.942  0.00  0.00     0.010 A 
BRANCH   6   9
HETATM    9  O           1     -23.623  -7.974   0.895  0.00  0.00    -0.361 OA
HETATM   10  H           1     -24.256  -8.710   0.855  0.00  0.00     0.217 HD
ENDBRANCH   6   9
ENDBRANCH   2   3
ENDBRANCH   1   2
BRANCH   1  11
HETATM   11  C           1     -21.235  -7.322  -5.659  0.00  0.00     0.197 C 
HETATM   12  O           1     -22.142  -6.508  -5.382  0.00  0.00    -0.646 OA
HETATM   13  O           1     -20.447  -7.083  -6.599  0.00  0.00    -0.646 OA
ENDBRANCH   1  11
BRANCH   1  14
HETATM   14  N           1     -20.440  -9.604  -5.671  0.00  0.00    -0.344 N 
HETATM   15  C           1     -20.850 -10.907  -5.603  0.00  0.00     0.249 C 
HETATM   16  O           1     -21.757 -11.218  -4.867  0.00  0.00    -0.271 OA
HETATM   17  H           1     -19.681  -9.343  -6.287  0.00  0.00     0.163 HD
BRANCH  15  18
HETATM   18  C           1     -20.172 -11.957  -6.447  0.00  0.00     0.274 C 
HETATM   19  C           1     -19.584 -13.034  -5.546  0.00  0.00     0.042 C 
HETATM   20  C           1     -18.565 -12.406  -4.602  0.00  0.00     0.003 C 
HETATM   21 Se           1     -17.139 -11.580  -5.640  0.00  0.00     0.000 Se
HETATM   22  C           1     -16.146 -10.954  -4.084  0.00  0.00     0.000 C 
HETATM   23  H           1     -18.376 -10.890  -6.599  0.00  0.00     0.275 HD
HETATM   24  N           1     -19.073 -11.320  -7.247  0.00  0.00    -0.067 N 
HETATM   25  H           1     -18.603 -12.046  -7.832  0.00  0.00     0.275 HD
HETATM   26  H           1     -19.477 -10.582  -7.866  0.00  0.00     0.275 HD
ENDBRANCH  15  18
ENDBRANCH   1  14
TORSDOF 6
ENDMDL
MODEL 4
REMARK VINA RESULT:      -6.7      2.414      3.606
REMARK  6 active torsions:
REMARK  status: ('A' for Active; 'I' for Inactive)
REMARK       I    between atoms: C_1  and  N_24 
REMARK    1  A    between atoms: C_1  and  C_2 
REMARK    2  A    between atoms: C_13  and  C_16 
REMARK    3  A    between atoms: C_16  and  C_20 
REMARK    4  A    between atoms: O_19  and  C_26 
REMARK    5  A    between atoms: C_20  and  C_21 
REMARK    6  A    between atoms: C_20  and  N_24 
ROOT
HETATM    1  C           1     -21.434  -7.226  -4.066  0.00  0.00     0.189 C 
ENDROOT
BRANCH   1   2
HETATM    2  C           1     -22.406  -6.403  -4.899  0.00  0.00     0.074 C 
BRANCH   2   3
HETATM    3  C           1     -21.645  -5.590  -5.899  0.00  0.00    -0.056 A 
HETATM    4  C           1     -20.253  -5.526  -5.833  0.00  0.00     0.010 A 
HETATM    5  C           1     -19.545  -4.768  -6.765  0.00  0.00     0.037 A 
HETATM    6  C           1     -20.227  -4.075  -7.764  0.00  0.00     0.065 A 
HETATM    7  C           1     -21.619  -4.139  -7.831  0.00  0.00     0.037 A 
HETATM    8  C           1     -22.329  -4.897  -6.899  0.00  0.00     0.010 A 
BRANCH   6   9
HETATM    9  O           1     -19.539  -3.339  -8.670  0.00  0.00    -0.361 OA
HETATM   10  H           1     -20.087  -2.574  -8.914  0.00  0.00     0.217 HD
ENDBRANCH   6   9
ENDBRANCH   2   3
ENDBRANCH   1   2
BRANCH   1  11
HETATM   11  C           1     -21.612  -6.890  -2.606  0.00  0.00     0.197 C 
HETATM   12  O           1     -20.969  -7.518  -1.737  0.00  0.00    -0.646 OA
HETATM   13  O           1     -22.403  -5.984  -2.265  0.00  0.00    -0.646 OA
ENDBRANCH   1  11
BRANCH   1  14
HETATM   14  N           1     -21.696  -8.638  -4.272  0.00  0.00    -0.344 N 
HETATM   15  C           1     -20.898  -9.368  -5.109  0.00  0.00     0.249 C 
HETATM   16  O           1     -19.973  -8.837  -5.678  0.00  0.00    -0.271 OA
HETATM   17  H           1     -22.470  -9.083  -3.795  0.00  0.00     0.163 HD
BRANCH  15  18
HETATM   18  C           1     -21.170 -10.836  -5.323  0.00  0.00     0.274 C 
HETATM   19  C           1     -20.885 -11.599  -4.036  0.00  0.00     0.042 C 
HETATM   20  C           1     -19.426 -11.406  -3.642  0.00  0.00     0.003 C 
HETATM   21 Se           1     -18.274 -12.078  -5.062  0.00  0.00     0.000 Se
HETATM   22  C           1     -16.611 -11.635  -4.147  0.00  0.00     0.000 C 
HETATM   23  H           1     -19.282 -11.221  -6.146  0.00  0.00     0.275 HD
HETATM   24  N           1     -20.282 -11.354  -6.417  0.00  0.00    -0.067 N 
HETATM   25  H           1     -20.469 -12.371  -6.566  0.00  0.00     0.275 HD
HETATM   26  H           1     -20.478 -10.831  -7.300  0.00  0.00     0.275 HD
ENDBRANCH  15  18
ENDBRANCH   1  14
TORSDOF 6
ENDMDL
MODEL 5
REMARK VINA RESULT:      -6.6      5.371      7.487
REMARK  6 active torsions:
REMARK  status: ('A' for Active; 'I' for Inactive)
REMARK       I    between atoms: C_1  and  N_24 
REMARK    1  A    between atoms: C_1  and  C_2 
REMARK    2  A    between atoms: C_13  and  C_16 
REMARK    3  A    between atoms: C_16  and  C_20 
REMARK    4  A    between atoms: O_19  and  C_26 
REMARK    5  A    between atoms: C_20  and  C_21 
REMARK    6  A    between atoms: C_20  and  N_24 
ROOT
HETATM    1  C           1     -19.862  -9.402  -4.084  0.00  0.00     0.189 C 
ENDROOT
BRANCH   1   2
HETATM    2  C           1     -20.583  -8.068  -3.948  0.00  0.00     0.074 C 
BRANCH   2   3
HETATM    3  C           1     -21.339  -8.037  -2.657  0.00  0.00    -0.056 A 
HETATM    4  C           1     -21.719  -6.816  -2.100  0.00  0.00     0.010 A 
HETATM    5  C           1     -22.423  -6.788  -0.897  0.00  0.00     0.037 A 
HETATM    6  C           1     -22.750  -7.979  -0.251  0.00  0.00     0.065 A 
HETATM    7  C           1     -22.371  -9.201  -0.808  0.00  0.00     0.037 A 
HETATM    8  C           1     -21.665  -9.230  -2.011  0.00  0.00     0.010 A 
BRANCH   6   9
HETATM    9  O           1     -23.435  -7.952   0.918  0.00  0.00    -0.361 OA
HETATM   10  H           1     -24.257  -8.456   0.796  0.00  0.00     0.217 HD
ENDBRANCH   6   9
ENDBRANCH   2   3
ENDBRANCH   1   2
BRANCH   1  11
HETATM   11  C           1     -20.191 -10.019  -5.421  0.00  0.00     0.197 C 
HETATM   12  O           1     -21.346  -9.918  -5.888  0.00  0.00    -0.646 OA
HETATM   13  O           1     -19.309 -10.631  -6.062  0.00  0.00    -0.646 OA
ENDBRANCH   1  11
BRANCH   1  14
HETATM   14  N           1     -18.430  -9.188  -3.991  0.00  0.00    -0.344 N 
HETATM   15  C           1     -17.704  -9.823  -3.020  0.00  0.00     0.249 C 
HETATM   16  O           1     -18.257 -10.563  -2.239  0.00  0.00    -0.271 OA
HETATM   17  H           1     -17.968  -8.570  -4.645  0.00  0.00     0.163 HD
BRANCH  15  18
HETATM   18  C           1     -16.216  -9.602  -2.924  0.00  0.00     0.274 C 
HETATM   19  C           1     -15.584  -9.783  -4.297  0.00  0.00     0.042 C 
HETATM   20  C           1     -15.856 -11.196  -4.800  0.00  0.00     0.003 C 
HETATM   21 Se           1     -15.088 -12.487  -3.559  0.00  0.00     0.000 Se
HETATM   22  C           1     -15.663 -14.049  -4.573  0.00  0.00     0.000 C 
HETATM   23  H           1     -15.812 -11.565  -2.313  0.00  0.00     0.275 HD
HETATM   24  N           1     -15.625 -10.597  -1.967  0.00  0.00    -0.067 N 
HETATM   25  H           1     -14.594 -10.445  -1.900  0.00  0.00     0.275 HD
HETATM   26  H           1     -16.058 -10.472  -1.024  0.00  0.00     0.275 HD
ENDBRANCH  15  18
ENDBRANCH   1  14
TORSDOF 6
ENDMDL
MODEL 6
REMARK VINA RESULT:      -6.5     14.346     16.809
REMARK  6 active torsions:
REMARK  status: ('A' for Active; 'I' for Inactive)
REMARK       I    between atoms: C_1  and  N_24 
REMARK    1  A    between atoms: C_1  and  C_2 
REMARK    2  A    between atoms: C_13  and  C_16 
REMARK    3  A    between atoms: C_16  and  C_20 
REMARK    4  A    between atoms: O_19  and  C_26 
REMARK    5  A    between atoms: C_20  and  C_21 
REMARK    6  A    between atoms: C_20  and  N_24 
ROOT
HETATM    1  C           1     -36.389  -0.314 -10.978  0.00  0.00     0.189 C 
ENDROOT
BRANCH   1   2
HETATM    2  C           1     -37.594  -0.196 -11.902  0.00  0.00     0.074 C 
BRANCH   2   3
HETATM    3  C           1     -37.137  -0.241 -13.327  0.00  0.00    -0.056 A 
HETATM    4  C           1     -35.776  -0.198 -13.626  0.00  0.00     0.010 A 
HETATM    5  C           1     -35.351  -0.240 -14.954  0.00  0.00     0.037 A 
HETATM    6  C           1     -36.288  -0.326 -15.983  0.00  0.00     0.065 A 
HETATM    7  C           1     -37.650  -0.369 -15.685  0.00  0.00     0.037 A 
HETATM    8  C           1     -38.075  -0.327 -14.357  0.00  0.00     0.010 A 
BRANCH   6   9
HETATM    9  O           1     -35.876  -0.367 -17.273  0.00  0.00    -0.361 OA
HETATM   10  H           1     -34.964  -0.033 -17.308  0.00  0.00     0.217 HD
ENDBRANCH   6   9
ENDBRANCH   2   3
ENDBRANCH   1   2
BRANCH   1  11
HETATM   11  C           1     -36.688   0.380  -9.672  0.00  0.00     0.197 C 
HETATM   12  O           1     -36.041   0.083  -8.644  0.00  0.00    -0.646 OA
HETATM   13  O           1     -37.581   1.254  -9.617  0.00  0.00    -0.646 OA
ENDBRANCH   1  11
BRANCH   1  14
HETATM   14  N           1     -36.108  -1.714 -10.727  0.00  0.00    -0.344 N 
HETATM   15  C           1     -34.815  -2.160 -10.704  0.00  0.00     0.249 C 
HETATM   16  O           1     -33.906  -1.386 -10.893  0.00  0.00    -0.271 OA
HETATM   17  H           1     -36.870  -2.362 -10.568  0.00  0.00     0.163 HD
BRANCH  15  18
HETATM   18  C           1     -34.522  -3.616 -10.442  0.00  0.00     0.274 C 
HETATM   19  C           1     -33.175  -3.982 -11.049  0.00  0.00     0.042 C 
HETATM   20  C           1     -33.210  -3.734 -12.552  0.00  0.00     0.003 C 
HETATM   21 Se           1     -34.603  -4.831 -13.360  0.00  0.00     0.000 Se
HETATM   22  C           1     -34.275  -4.200 -15.175  0.00  0.00     0.000 C 
HETATM   23  H           1     -35.619  -4.290 -12.094  0.00  0.00     0.275 HD
HETATM   24  N           1     -35.596  -4.460 -11.064  0.00  0.00    -0.067 N 
HETATM   25  H           1     -35.394  -5.469 -10.883  0.00  0.00     0.275 HD
HETATM   26  H           1     -36.521  -4.209 -10.647  0.00  0.00     0.275 HD
ENDBRANCH  15  18
ENDBRANCH   1  14
TORSDOF 6
ENDMDL
MODEL 7
REMARK VINA RESULT:      -6.4      5.706      8.443
REMARK  6 active torsions:
REMARK  status: ('A' for Active; 'I' for Inactive)
REMARK       I    between atoms: C_1  and  N_24 
REMARK    1  A    between atoms: C_1  and  C_2 
REMARK    2  A    between atoms: C_13  and  C_16 
REMARK    3  A    between atoms: C_16  and  C_20 
REMARK    4  A    between atoms: O_19  and  C_26 
REMARK    5  A    between atoms: C_20  and  C_21 
REMARK    6  A    between atoms: C_20  and  N_24 
ROOT
HETATM    1  C           1     -21.764  -8.169  -1.869  0.00  0.00     0.189 C 
ENDROOT
BRANCH   1   2
HETATM    2  C           1     -21.534  -8.476  -0.396  0.00  0.00     0.074 C 
BRANCH   2   3
HETATM    3  C           1     -22.052  -9.845  -0.083  0.00  0.00    -0.056 A 
HETATM    4  C           1     -21.197 -10.811   0.449  0.00  0.00     0.010 A 
HETATM    5  C           1     -21.680 -12.086   0.740  0.00  0.00     0.037 A 
HETATM    6  C           1     -23.018 -12.396   0.501  0.00  0.00     0.065 A 
HETATM    7  C           1     -23.874 -11.431  -0.030  0.00  0.00     0.037 A 
HETATM    8  C           1     -23.391 -10.155  -0.322  0.00  0.00     0.010 A 
BRANCH   6   9
HETATM    9  O           1     -23.488 -13.635   0.784  0.00  0.00    -0.361 OA
HETATM   10  H           1     -24.046 -13.571   1.577  0.00  0.00     0.217 HD
ENDBRANCH   6   9
ENDBRANCH   2   3
ENDBRANCH   1   2
BRANCH   1  11
HETATM   11  C           1     -22.022  -6.693  -2.041  0.00  0.00     0.197 C 
HETATM   12  O           1     -22.386  -6.003  -1.064  0.00  0.00    -0.646 OA
HETATM   13  O           1     -21.871  -6.158  -3.161  0.00  0.00    -0.646 OA
ENDBRANCH   1  11
BRANCH   1  14
HETATM   14  N           1     -20.588  -8.546  -2.631  0.00  0.00    -0.344 N 
HETATM   15  C           1     -20.686  -9.484  -3.622  0.00  0.00     0.249 C 
HETATM   16  O           1     -21.752  -9.999  -3.863  0.00  0.00    -0.271 OA
HETATM   17  H           1     -19.696  -8.114  -2.428  0.00  0.00     0.163 HD
BRANCH  15  18
HETATM   18  C           1     -19.464  -9.875  -4.415  0.00  0.00     0.274 C 
HETATM   19  C           1     -19.321 -11.391  -4.416  0.00  0.00     0.042 C 
HETATM   20  C           1     -19.178 -11.890  -2.984  0.00  0.00     0.003 C 
HETATM   21 Se           1     -17.597 -11.091  -2.172  0.00  0.00     0.000 Se
HETATM   22  C           1     -17.829 -11.982  -0.453  0.00  0.00     0.000 C 
HETATM   23  H           1     -18.149  -9.602  -2.807  0.00  0.00     0.275 HD
HETATM   24  N           1     -18.246  -9.260  -3.789  0.00  0.00    -0.067 N 
HETATM   25  H           1     -17.399  -9.530  -4.337  0.00  0.00     0.275 HD
HETATM   26  H           1     -18.344  -8.219  -3.788  0.00  0.00     0.275 HD
ENDBRANCH  15  18
ENDBRANCH   1  14
TORSDOF 6
ENDMDL
MODEL 8
REMARK VINA RESULT:      -6.4      3.205      6.999
REMARK  6 active torsions:
REMARK  status: ('A' for Active; 'I' for Inactive)
REMARK       I    between atoms: C_1  and  N_24 
REMARK    1  A    between atoms: C_1  and  C_2 
REMARK    2  A    between atoms: C_13  and  C_16 
REMARK    3  A    between atoms: C_16  and  C_20 
REMARK    4  A    between atoms: O_19  and  C_26 
REMARK    5  A    between atoms: C_20  and  C_21 
REMARK    6  A    between atoms: C_20  and  N_24 
ROOT
HETATM    1  C           1     -21.338  -7.084  -4.273  0.00  0.00     0.189 C 
ENDROOT
BRANCH   1   2
HETATM    2  C           1     -20.317  -8.212  -4.233  0.00  0.00     0.074 C 
BRANCH   2   3
HETATM    3  C           1     -21.001  -9.517  -4.495  0.00  0.00    -0.056 A 
HETATM    4  C           1     -21.915 -10.025  -3.571  0.00  0.00     0.010 A 
HETATM    5  C           1     -22.552 -11.240  -3.816  0.00  0.00     0.037 A 
HETATM    6  C           1     -22.278 -11.948  -4.985  0.00  0.00     0.065 A 
HETATM    7  C           1     -21.366 -11.441  -5.910  0.00  0.00     0.037 A 
HETATM    8  C           1     -20.727 -10.225  -5.665  0.00  0.00     0.010 A 
BRANCH   6   9
HETATM    9  O           1     -22.899 -13.130  -5.224  0.00  0.00    -0.361 OA
HETATM   10  H           1     -22.827 -13.674  -4.422  0.00  0.00     0.217 HD
ENDBRANCH   6   9
ENDBRANCH   2   3
ENDBRANCH   1   2
BRANCH   1  11
HETATM   11  C           1     -21.687  -6.671  -2.864  0.00  0.00     0.197 C 
HETATM   12  O           1     -22.664  -5.918  -2.658  0.00  0.00    -0.646 OA
HETATM   13  O           1     -21.001  -7.082  -1.903  0.00  0.00    -0.646 OA
ENDBRANCH   1  11
BRANCH   1  14
HETATM   14  N           1     -20.777  -5.950  -4.983  0.00  0.00    -0.344 N 
HETATM   15  C           1     -20.720  -5.959  -6.350  0.00  0.00     0.249 C 
HETATM   16  O           1     -21.137  -6.912  -6.966  0.00  0.00    -0.271 OA
HETATM   17  H           1     -20.429  -5.153  -4.467  0.00  0.00     0.163 HD
BRANCH  15  18
HETATM   18  C           1     -20.138  -4.780  -7.089  0.00  0.00     0.274 C 
HETATM   19  C           1     -21.099  -3.602  -7.005  0.00  0.00     0.042 C 
HETATM   20  C           1     -22.432  -3.987  -7.634  0.00  0.00     0.003 C 
HETATM   21 Se           1     -22.156  -4.466  -9.503  0.00  0.00     0.000 Se
HETATM   22  C           1     -24.033  -4.857  -9.850  0.00  0.00     0.000 C 
HETATM   23  H           1     -20.840  -5.413  -8.958  0.00  0.00     0.275 HD
HETATM   24  N           1     -19.925  -5.149  -8.528  0.00  0.00    -0.067 N 
HETATM   25  H           1     -19.522  -4.333  -9.041  0.00  0.00     0.275 HD
HETATM   26  H           1     -19.265  -5.957  -8.586  0.00  0.00     0.275 HD
ENDBRANCH  15  18
ENDBRANCH   1  14
TORSDOF 6
ENDMDL
MODEL 9
REMARK VINA RESULT:      -6.1      5.483      6.921
REMARK  6 active torsions:
REMARK  status: ('A' for Active; 'I' for Inactive)
REMARK       I    between atoms: C_1  and  N_24 
REMARK    1  A    between atoms: C_1  and  C_2 
REMARK    2  A    between atoms: C_13  and  C_16 
REMARK    3  A    between atoms: C_16  and  C_20 
REMARK    4  A    between atoms: O_19  and  C_26 
REMARK    5  A    between atoms: C_20  and  C_21 
REMARK    6  A    between atoms: C_20  and  N_24 
ROOT
HETATM    1  C           1     -21.312  -8.123  -2.115  0.00  0.00     0.189 C 
ENDROOT
BRANCH   1   2
HETATM    2  C           1     -21.040  -8.304  -3.602  0.00  0.00     0.074 C 
BRANCH   2   3
HETATM    3  C           1     -19.658  -8.844  -3.796  0.00  0.00    -0.056 A 
HETATM    4  C           1     -19.201  -9.148  -5.078  0.00  0.00     0.010 A 
HETATM    5  C           1     -17.913  -9.651  -5.258  0.00  0.00     0.037 A 
HETATM    6  C           1     -17.080  -9.848  -4.157  0.00  0.00     0.065 A 
HETATM    7  C           1     -17.536  -9.543  -2.875  0.00  0.00     0.037 A 
HETATM    8  C           1     -18.825  -9.040  -2.694  0.00  0.00     0.010 A 
BRANCH   6   9
HETATM    9  O           1     -15.828 -10.336  -4.332  0.00  0.00    -0.361 OA
HETATM   10  H           1     -15.882 -11.090  -4.942  0.00  0.00     0.217 HD
ENDBRANCH   6   9
ENDBRANCH   2   3
ENDBRANCH   1   2
BRANCH   1  11
HETATM   11  C           1     -22.001  -6.800  -1.887  0.00  0.00     0.197 C 
HETATM   12  O           1     -22.621  -6.594  -0.821  0.00  0.00    -0.646 OA
HETATM   13  O           1     -21.950  -5.909  -2.762  0.00  0.00    -0.646 OA
ENDBRANCH   1  11
BRANCH   1  14
HETATM   14  N           1     -22.165  -9.198  -1.645  0.00  0.00    -0.344 N 
HETATM   15  C           1     -21.877  -9.837  -0.470  0.00  0.00     0.249 C 
HETATM   16  O           1     -20.912  -9.505   0.177  0.00  0.00    -0.271 OA
HETATM   17  H           1     -22.973  -9.476  -2.188  0.00  0.00     0.163 HD
BRANCH  15  18
HETATM   18  C           1     -22.764 -10.954   0.019  0.00  0.00     0.274 C 
HETATM   19  C           1     -21.929 -12.207   0.243  0.00  0.00     0.042 C 
HETATM   20  C           1     -21.269 -12.620  -1.067  0.00  0.00     0.003 C 
HETATM   21 Se           1     -22.643 -12.986  -2.399  0.00  0.00     0.000 Se
HETATM   22  C           1     -21.381 -13.445  -3.812  0.00  0.00     0.000 C 
HETATM   23  H           1     -23.369 -11.519  -1.905  0.00  0.00     0.275 HD
HETATM   24  N           1     -23.822 -11.236  -1.007  0.00  0.00    -0.067 N 
HETATM   25  H           1     -24.437 -12.010  -0.670  0.00  0.00     0.275 HD
HETATM   26  H           1     -24.396 -10.377  -1.160  0.00  0.00     0.275 HD
ENDBRANCH  15  18
ENDBRANCH   1  14
TORSDOF 6
ENDMDL
