MODEL 1
REMARK VINA RESULT:      -5.8      0.000      0.000
REMARK  9 active torsions:
REMARK  status: ('A' for Active; 'I' for Inactive)
REMARK    1  A    between atoms: C_1  and  C_7 
REMARK    2  A    between atoms: C_1  and  C_11 
REMARK    3  A    between atoms: N_5  and  C_17 
REMARK       I    between atoms: N_5  and  C_6 
REMARK    4  A    between atoms: C_6  and  C_7 
REMARK    5  A    between atoms: C_7  and  N_14 
REMARK    6  A    between atoms: C_9  and  C_18 
REMARK    7  A    between atoms: C_11  and  S_12 
REMARK    8  A    between atoms: C_17  and  C_23 
REMARK    9  A    between atoms: C_17  and  C_18 
ROOT
HETATM    1  N           1     -21.864  -6.902  -6.094  0.00  0.00    -0.344 N 
HETATM    2  C           1     -22.392  -6.427  -4.924  0.00  0.00     0.249 C 
HETATM    3  O           1     -23.562  -6.134  -4.863  0.00  0.00    -0.271 OA
HETATM    4  H           1     -21.862  -7.897  -6.282  0.00  0.00     0.163 HD
ENDROOT
BRANCH   1   5
HETATM    5  C           1     -21.309  -5.980  -7.066  0.00  0.00     0.191 C 
BRANCH   5   6
HETATM    6  C           1     -19.812  -5.902  -6.886  0.00  0.00     0.197 C 
HETATM    7  O           1     -19.148  -6.948  -6.719  0.00  0.00    -0.646 OA
HETATM    8  O           1     -19.237  -4.793  -6.905  0.00  0.00    -0.646 OA
ENDBRANCH   5   6
BRANCH   5   9
HETATM    9  C           1     -21.917  -4.599  -6.860  0.00  0.00     0.094 C 
BRANCH   9  10
HETATM   10  C           1     -22.615  -4.170  -8.113  0.00  0.00     0.028 A 
HETATM   11  N           1     -23.965  -3.952  -8.217  0.00  0.00    -0.354 N 
HETATM   12  C           1     -24.163  -3.594  -9.465  0.00  0.00     0.180 A 
ATOM     13  HN          1     -24.666  -4.047  -7.483  1.00  0.00     0.166 HD
HETATM   14  N           1     -22.994  -3.572 -10.170  0.00  0.00    -0.360 N 
HETATM   15  C           1     -21.991  -3.938  -9.316  0.00  0.00     0.114 A 
HETATM   16  H           1     -22.885  -3.318 -11.183  0.00  0.00     0.166 HD
ENDBRANCH   9  10
ENDBRANCH   5   9
ENDBRANCH   1   5
BRANCH   2  17
HETATM   17  C           1     -21.510  -6.271  -3.708  0.00  0.00     0.275 C 
BRANCH  17  18
HETATM   18  C           1     -20.824  -7.597  -3.405  0.00  0.00     0.053 C 
BRANCH  18  19
HETATM   19  C           1     -20.858  -7.856  -1.906  0.00  0.00     0.076 C 
BRANCH  19  20
HETATM   20  S           1     -21.746  -9.404  -1.578  0.00  0.00    -0.173 SA
HETATM   21  C           1     -22.686  -8.796  -0.149  0.00  0.00     0.089 C 
ENDBRANCH  19  20
ENDBRANCH  18  19
ENDBRANCH  17  18
BRANCH  17  22
HETATM   22  N           1     -22.348  -5.863  -2.533  0.00  0.00    -0.066 N 
HETATM   23  H           1     -23.324  -6.217  -2.660  0.00  0.00     0.275 HD
HETATM   24  H           1     -21.943  -6.269  -1.659  0.00  0.00     0.275 HD
HETATM   25  H           1     -22.363  -4.821  -2.460  0.00  0.00     0.275 HD
ENDBRANCH  17  22
ENDBRANCH   2  17
TORSDOF 9
ENDMDL
MODEL 2
REMARK VINA RESULT:      -5.8      1.799      2.229
REMARK  9 active torsions:
REMARK  status: ('A' for Active; 'I' for Inactive)
REMARK    1  A    between atoms: C_1  and  C_7 
REMARK    2  A    between atoms: C_1  and  C_11 
REMARK    3  A    between atoms: N_5  and  C_17 
REMARK       I    between atoms: N_5  and  C_6 
REMARK    4  A    between atoms: C_6  and  C_7 
REMARK    5  A    between atoms: C_7  and  N_14 
REMARK    6  A    between atoms: C_9  and  C_18 
REMARK    7  A    between atoms: C_11  and  S_12 
REMARK    8  A    between atoms: C_17  and  C_23 
REMARK    9  A    between atoms: C_17  and  C_18 
ROOT
HETATM    1  N           1     -22.072  -4.864  -6.293  0.00  0.00    -0.344 N 
HETATM    2  C           1     -21.355  -5.529  -5.335  0.00  0.00     0.249 C 
HETATM    3  O           1     -20.371  -5.020  -4.854  0.00  0.00    -0.271 OA
HETATM    4  H           1     -22.832  -4.252  -6.023  0.00  0.00     0.163 HD
ENDROOT
BRANCH   1   5
HETATM    5  C           1     -21.743  -5.037  -7.695  0.00  0.00     0.191 C 
BRANCH   5   6
HETATM    6  C           1     -20.245  -5.131  -7.852  0.00  0.00     0.197 C 
HETATM    7  O           1     -19.563  -4.089  -7.976  0.00  0.00    -0.646 OA
HETATM    8  O           1     -19.686  -6.248  -7.860  0.00  0.00    -0.646 OA
ENDBRANCH   5   6
BRANCH   5   9
HETATM    9  C           1     -22.263  -3.845  -8.488  0.00  0.00     0.094 C 
BRANCH   9  10
HETATM   10  C           1     -22.541  -4.266  -9.897  0.00  0.00     0.028 A 
HETATM   11  N           1     -23.691  -4.889 -10.311  0.00  0.00    -0.354 N 
HETATM   12  C           1     -23.535  -5.082 -11.601  0.00  0.00     0.180 A 
ATOM     13  HN          1     -24.496  -5.146  -9.741  1.00  0.00     0.166 HD
HETATM   14  N           1     -22.329  -4.608 -12.035  0.00  0.00    -0.360 N 
HETATM   15  C           1     -21.681  -4.081 -10.953  0.00  0.00     0.114 A 
HETATM   16  H           1     -21.968  -4.642 -13.020  0.00  0.00     0.166 HD
ENDBRANCH   9  10
ENDBRANCH   5   9
ENDBRANCH   1   5
BRANCH   2  17
HETATM   17  C           1     -21.795  -6.899  -4.879  0.00  0.00     0.275 C 
BRANCH  17  18
HETATM   18  C           1     -21.305  -7.143  -3.457  0.00  0.00     0.053 C 
BRANCH  18  19
HETATM   19  C           1     -22.094  -6.269  -2.491  0.00  0.00     0.076 C 
BRANCH  19  20
HETATM   20  S           1     -22.278  -7.133  -0.906  0.00  0.00    -0.173 SA
HETATM   21  C           1     -20.803  -8.177  -1.075  0.00  0.00     0.089 C 
ENDBRANCH  19  20
ENDBRANCH  18  19
ENDBRANCH  17  18
BRANCH  17  22
HETATM   22  N           1     -21.217  -7.938  -5.791  0.00  0.00    -0.066 N 
HETATM   23  H           1     -21.650  -7.852  -6.739  0.00  0.00     0.275 HD
HETATM   24  H           1     -20.183  -7.797  -5.869  0.00  0.00     0.275 HD
HETATM   25  H           1     -21.410  -8.889  -5.405  0.00  0.00     0.275 HD
ENDBRANCH  17  22
ENDBRANCH   2  17
TORSDOF 9
ENDMDL
MODEL 3
REMARK VINA RESULT:      -5.6      3.294      6.350
REMARK  9 active torsions:
REMARK  status: ('A' for Active; 'I' for Inactive)
REMARK    1  A    between atoms: C_1  and  C_7 
REMARK    2  A    between atoms: C_1  and  C_11 
REMARK    3  A    between atoms: N_5  and  C_17 
REMARK       I    between atoms: N_5  and  C_6 
REMARK    4  A    between atoms: C_6  and  C_7 
REMARK    5  A    between atoms: C_7  and  N_14 
REMARK    6  A    between atoms: C_9  and  C_18 
REMARK    7  A    between atoms: C_11  and  S_12 
REMARK    8  A    between atoms: C_17  and  C_23 
REMARK    9  A    between atoms: C_17  and  C_18 
ROOT
HETATM    1  N           1     -20.768  -7.625  -5.959  0.00  0.00    -0.344 N 
HETATM    2  C           1     -20.316  -6.502  -6.598  0.00  0.00     0.249 C 
HETATM    3  O           1     -19.401  -6.579  -7.382  0.00  0.00    -0.271 OA
HETATM    4  H           1     -21.505  -8.182  -6.375  0.00  0.00     0.163 HD
ENDROOT
BRANCH   1   5
HETATM    5  C           1     -20.192  -8.018  -4.688  0.00  0.00     0.191 C 
BRANCH   5   6
HETATM    6  C           1     -19.079  -9.009  -4.925  0.00  0.00     0.197 C 
HETATM    7  O           1     -19.026  -9.644  -6.001  0.00  0.00    -0.646 OA
HETATM    8  O           1     -18.210  -9.196  -4.046  0.00  0.00    -0.646 OA
ENDBRANCH   5   6
BRANCH   5   9
HETATM    9  C           1     -21.267  -8.660  -3.821  0.00  0.00     0.094 C 
BRANCH   9  10
HETATM   10  C           1     -21.697  -7.694  -2.762  0.00  0.00     0.028 A 
HETATM   11  N           1     -21.922  -8.024  -1.450  0.00  0.00    -0.354 N 
HETATM   12  C           1     -22.277  -6.903  -0.866  0.00  0.00     0.180 A 
ATOM     13  HN          1     -21.832  -8.944  -1.020  1.00  0.00     0.166 HD
HETATM   14  N           1     -22.290  -5.862  -1.750  0.00  0.00    -0.360 N 
HETATM   15  C           1     -21.920  -6.353  -2.971  0.00  0.00     0.114 A 
HETATM   16  H           1     -22.538  -4.866  -1.530  0.00  0.00     0.166 HD
ENDBRANCH   9  10
ENDBRANCH   5   9
ENDBRANCH   1   5
BRANCH   2  17
HETATM   17  C           1     -20.963  -5.166  -6.323  0.00  0.00     0.275 C 
BRANCH  17  18
HETATM   18  C           1     -21.028  -4.358  -7.613  0.00  0.00     0.053 C 
BRANCH  18  19
HETATM   19  C           1     -22.470  -4.292  -8.099  0.00  0.00     0.076 C 
BRANCH  19  20
HETATM   20  S           1     -22.501  -3.767  -9.835  0.00  0.00    -0.173 SA
HETATM   21  C           1     -23.804  -4.913 -10.367  0.00  0.00     0.089 C 
ENDBRANCH  19  20
ENDBRANCH  18  19
ENDBRANCH  17  18
BRANCH  17  22
HETATM   22  N           1     -20.153  -4.419  -5.307  0.00  0.00    -0.066 N 
HETATM   23  H           1     -19.924  -3.467  -5.673  0.00  0.00     0.275 HD
HETATM   24  H           1     -20.703  -4.328  -4.422  0.00  0.00     0.275 HD
HETATM   25  H           1     -19.268  -4.940  -5.115  0.00  0.00     0.275 HD
ENDBRANCH  17  22
ENDBRANCH   2  17
TORSDOF 9
ENDMDL
MODEL 4
REMARK VINA RESULT:      -5.4      3.344      6.786
REMARK  9 active torsions:
REMARK  status: ('A' for Active; 'I' for Inactive)
REMARK    1  A    between atoms: C_1  and  C_7 
REMARK    2  A    between atoms: C_1  and  C_11 
REMARK    3  A    between atoms: N_5  and  C_17 
REMARK       I    between atoms: N_5  and  C_6 
REMARK    4  A    between atoms: C_6  and  C_7 
REMARK    5  A    between atoms: C_7  and  N_14 
REMARK    6  A    between atoms: C_9  and  C_18 
REMARK    7  A    between atoms: C_11  and  S_12 
REMARK    8  A    between atoms: C_17  and  C_23 
REMARK    9  A    between atoms: C_17  and  C_18 
ROOT
HETATM    1  N           1     -21.328  -6.572  -2.920  0.00  0.00    -0.344 N 
HETATM    2  C           1     -21.638  -6.408  -4.243  0.00  0.00     0.249 C 
HETATM    3  O           1     -22.777  -6.180  -4.573  0.00  0.00    -0.271 OA
HETATM    4  H           1     -21.061  -5.772  -2.360  0.00  0.00     0.163 HD
ENDROOT
BRANCH   1   5
HETATM    5  C           1     -21.380  -7.891  -2.321  0.00  0.00     0.191 C 
BRANCH   5   6
HETATM    6  C           1     -22.216  -7.840  -1.065  0.00  0.00     0.197 C 
HETATM    7  O           1     -22.368  -8.870  -0.373  0.00  0.00    -0.646 OA
HETATM    8  O           1     -22.756  -6.768  -0.716  0.00  0.00    -0.646 OA
ENDBRANCH   5   6
BRANCH   5   9
HETATM    9  C           1     -19.969  -8.347  -1.973  0.00  0.00     0.094 C 
BRANCH   9  10
HETATM   10  C           1     -19.454  -9.244  -3.055  0.00  0.00     0.028 A 
HETATM   11  N           1     -18.140  -9.330  -3.437  0.00  0.00    -0.354 N 
HETATM   12  C           1     -18.116 -10.220  -4.402  0.00  0.00     0.180 A 
ATOM     13  HN          1     -17.349  -8.813  -3.052  1.00  0.00     0.166 HD
HETATM   14  N           1     -19.364 -10.712  -4.659  0.00  0.00    -0.360 N 
HETATM   15  C           1     -20.233 -10.095  -3.802  0.00  0.00     0.114 A 
HETATM   16  H           1     -19.610 -11.432  -5.381  0.00  0.00     0.166 HD
ENDBRANCH   9  10
ENDBRANCH   5   9
ENDBRANCH   1   5
BRANCH   2  17
HETATM   17  C           1     -20.556  -6.512  -5.291  0.00  0.00     0.275 C 
BRANCH  17  18
HETATM   18  C           1     -20.386  -5.165  -5.981  0.00  0.00     0.053 C 
BRANCH  18  19
HETATM   19  C           1     -19.914  -5.383  -7.412  0.00  0.00     0.076 C 
BRANCH  19  20
HETATM   20  S           1     -20.834  -4.286  -8.527  0.00  0.00    -0.173 SA
HETATM   21  C           1     -22.384  -4.294  -7.582  0.00  0.00     0.089 C 
ENDBRANCH  19  20
ENDBRANCH  18  19
ENDBRANCH  17  18
BRANCH  17  22
HETATM   22  N           1     -20.941  -7.548  -6.304  0.00  0.00    -0.066 N 
HETATM   23  H           1     -21.971  -7.501  -6.478  0.00  0.00     0.275 HD
HETATM   24  H           1     -20.429  -7.367  -7.198  0.00  0.00     0.275 HD
HETATM   25  H           1     -20.691  -8.497  -5.946  0.00  0.00     0.275 HD
ENDBRANCH  17  22
ENDBRANCH   2  17
TORSDOF 9
ENDMDL
MODEL 5
REMARK VINA RESULT:      -5.3     20.465     22.744
REMARK  9 active torsions:
REMARK  status: ('A' for Active; 'I' for Inactive)
REMARK    1  A    between atoms: C_1  and  C_7 
REMARK    2  A    between atoms: C_1  and  C_11 
REMARK    3  A    between atoms: N_5  and  C_17 
REMARK       I    between atoms: N_5  and  C_6 
REMARK    4  A    between atoms: C_6  and  C_7 
REMARK    5  A    between atoms: C_7  and  N_14 
REMARK    6  A    between atoms: C_9  and  C_18 
REMARK    7  A    between atoms: C_11  and  S_12 
REMARK    8  A    between atoms: C_17  and  C_23 
REMARK    9  A    between atoms: C_17  and  C_18 
ROOT
HETATM    1  N           1     -10.279   7.105 -20.858  0.00  0.00    -0.344 N 
HETATM    2  C           1     -10.440   8.225 -20.088  0.00  0.00     0.249 C 
HETATM    3  O           1     -10.305   8.160 -18.890  0.00  0.00    -0.271 OA
HETATM    4  H           1      -9.365   6.873 -21.229  0.00  0.00     0.163 HD
ENDROOT
BRANCH   1   5
HETATM    5  C           1     -11.414   6.250 -21.142  0.00  0.00     0.191 C 
BRANCH   5   6
HETATM    6  C           1     -12.192   6.007 -19.871  0.00  0.00     0.197 C 
HETATM    7  O           1     -13.320   6.526 -19.720  0.00  0.00    -0.646 OA
HETATM    8  O           1     -11.708   5.289 -18.970  0.00  0.00    -0.646 OA
ENDBRANCH   5   6
BRANCH   5   9
HETATM    9  C           1     -10.921   4.920 -21.697  0.00  0.00     0.094 C 
BRANCH   9  10
HETATM   10  C           1     -12.077   3.979 -21.838  0.00  0.00     0.028 A 
HETATM   11  N           1     -12.374   2.972 -20.957  0.00  0.00    -0.354 N 
HETATM   12  C           1     -13.449   2.393 -21.441  0.00  0.00     0.180 A 
ATOM     13  HN          1     -11.868   2.724 -20.106  1.00  0.00     0.166 HD
HETATM   14  N           1     -13.857   2.988 -22.600  0.00  0.00    -0.360 N 
HETATM   15  C           1     -12.988   4.008 -22.868  0.00  0.00     0.114 A 
HETATM   16  H           1     -14.689   2.712 -23.179  0.00  0.00     0.166 HD
ENDBRANCH   9  10
ENDBRANCH   5   9
ENDBRANCH   1   5
BRANCH   2  17
HETATM   17  C           1     -10.788   9.543 -20.737  0.00  0.00     0.275 C 
BRANCH  17  18
HETATM   18  C           1     -12.267   9.839 -20.525  0.00  0.00     0.053 C 
BRANCH  18  19
HETATM   19  C           1     -12.619  11.167 -21.181  0.00  0.00     0.076 C 
BRANCH  19  20
HETATM   20  S           1     -14.141  11.824 -20.443  0.00  0.00    -0.173 SA
HETATM   21  C           1     -13.996  10.938 -18.865  0.00  0.00     0.089 C 
ENDBRANCH  19  20
ENDBRANCH  18  19
ENDBRANCH  17  18
BRANCH  17  22
HETATM   22  N           1     -10.500   9.466 -22.207  0.00  0.00    -0.066 N 
HETATM   23  H           1     -11.359   9.152 -22.715  0.00  0.00     0.275 HD
HETATM   24  H           1     -10.215  10.410 -22.556  0.00  0.00     0.275 HD
HETATM   25  H           1      -9.727   8.784 -22.376  0.00  0.00     0.275 HD
ENDBRANCH  17  22
ENDBRANCH   2  17
TORSDOF 9
ENDMDL
MODEL 6
REMARK VINA RESULT:      -5.3      3.439      6.857
REMARK  9 active torsions:
REMARK  status: ('A' for Active; 'I' for Inactive)
REMARK    1  A    between atoms: C_1  and  C_7 
REMARK    2  A    between atoms: C_1  and  C_11 
REMARK    3  A    between atoms: N_5  and  C_17 
REMARK       I    between atoms: N_5  and  C_6 
REMARK    4  A    between atoms: C_6  and  C_7 
REMARK    5  A    between atoms: C_7  and  N_14 
REMARK    6  A    between atoms: C_9  and  C_18 
REMARK    7  A    between atoms: C_11  and  S_12 
REMARK    8  A    between atoms: C_17  and  C_23 
REMARK    9  A    between atoms: C_17  and  C_18 
ROOT
HETATM    1  N           1     -20.450  -6.609  -6.513  0.00  0.00    -0.344 N 
HETATM    2  C           1     -20.760  -5.312  -6.824  0.00  0.00     0.249 C 
HETATM    3  O           1     -20.350  -4.410  -6.134  0.00  0.00    -0.271 OA
HETATM    4  H           1     -19.616  -7.036  -6.896  0.00  0.00     0.163 HD
ENDROOT
BRANCH   1   5
HETATM    5  C           1     -21.318  -7.371  -5.637  0.00  0.00     0.191 C 
BRANCH   5   6
HETATM    6  C           1     -22.130  -6.426  -4.786  0.00  0.00     0.197 C 
HETATM    7  O           1     -23.272  -6.074  -5.158  0.00  0.00    -0.646 OA
HETATM    8  O           1     -21.663  -5.993  -3.711  0.00  0.00    -0.646 OA
ENDBRANCH   5   6
BRANCH   5   9
HETATM    9  C           1     -20.472  -8.263  -4.737  0.00  0.00     0.094 C 
BRANCH   9  10
HETATM   10  C           1     -21.165  -9.575  -4.542  0.00  0.00     0.028 A 
HETATM   11  N           1     -21.963  -9.883  -3.469  0.00  0.00    -0.354 N 
HETATM   12  C           1     -22.370 -11.113  -3.682  0.00  0.00     0.180 A 
ATOM     13  HN          1     -22.192  -9.284  -2.677  1.00  0.00     0.166 HD
HETATM   14  N           1     -21.867 -11.612  -4.849  0.00  0.00    -0.360 N 
HETATM   15  C           1     -21.092 -10.636  -5.413  0.00  0.00     0.114 A 
HETATM   16  H           1     -22.043 -12.569  -5.241  0.00  0.00     0.166 HD
ENDBRANCH   9  10
ENDBRANCH   5   9
ENDBRANCH   1   5
BRANCH   2  17
HETATM   17  C           1     -21.615  -5.009  -8.031  0.00  0.00     0.275 C 
BRANCH  17  18
HETATM   18  C           1     -20.764  -4.334  -9.099  0.00  0.00     0.053 C 
BRANCH  18  19
HETATM   19  C           1     -21.656  -3.495 -10.004  0.00  0.00     0.076 C 
BRANCH  19  20
HETATM   20  S           1     -21.909  -4.362 -11.578  0.00  0.00    -0.173 SA
HETATM   21  C           1     -23.617  -4.880 -11.248  0.00  0.00     0.089 C 
ENDBRANCH  19  20
ENDBRANCH  18  19
ENDBRANCH  17  18
BRANCH  17  22
HETATM   22  N           1     -22.734  -4.095  -7.633  0.00  0.00    -0.066 N 
HETATM   23  H           1     -23.534  -4.212  -8.295  0.00  0.00     0.275 HD
HETATM   24  H           1     -23.048  -4.331  -6.663  0.00  0.00     0.275 HD
HETATM   25  H           1     -22.402  -3.104  -7.660  0.00  0.00     0.275 HD
ENDBRANCH  17  22
ENDBRANCH   2  17
TORSDOF 9
ENDMDL
MODEL 7
REMARK VINA RESULT:      -5.1      1.911      3.146
REMARK  9 active torsions:
REMARK  status: ('A' for Active; 'I' for Inactive)
REMARK    1  A    between atoms: C_1  and  C_7 
REMARK    2  A    between atoms: C_1  and  C_11 
REMARK    3  A    between atoms: N_5  and  C_17 
REMARK       I    between atoms: N_5  and  C_6 
REMARK    4  A    between atoms: C_6  and  C_7 
REMARK    5  A    between atoms: C_7  and  N_14 
REMARK    6  A    between atoms: C_9  and  C_18 
REMARK    7  A    between atoms: C_11  and  S_12 
REMARK    8  A    between atoms: C_17  and  C_23 
REMARK    9  A    between atoms: C_17  and  C_18 
ROOT
HETATM    1  N           1     -20.997  -4.505  -6.272  0.00  0.00    -0.344 N 
HETATM    2  C           1     -20.496  -5.752  -6.014  0.00  0.00     0.249 C 
HETATM    3  O           1     -19.347  -6.009  -6.280  0.00  0.00    -0.271 OA
HETATM    4  H           1     -20.939  -3.780  -5.568  0.00  0.00     0.163 HD
ENDROOT
BRANCH   1   5
HETATM    5  C           1     -21.613  -4.221  -7.554  0.00  0.00     0.191 C 
BRANCH   5   6
HETATM    6  C           1     -23.111  -4.367  -7.436  0.00  0.00     0.197 C 
HETATM    7  O           1     -23.845  -4.081  -8.407  0.00  0.00    -0.646 OA
HETATM    8  O           1     -23.617  -4.773  -6.368  0.00  0.00    -0.646 OA
ENDBRANCH   5   6
BRANCH   5   9
HETATM    9  C           1     -21.089  -5.201  -8.596  0.00  0.00     0.094 C 
BRANCH   9  10
HETATM   10  C           1     -21.087  -4.545  -9.941  0.00  0.00     0.028 A 
HETATM   11  N           1     -22.104  -4.641 -10.856  0.00  0.00    -0.354 N 
HETATM   12  C           1     -21.711  -3.928 -11.887  0.00  0.00     0.180 A 
ATOM     13  HN          1     -22.979  -5.155 -10.757  1.00  0.00     0.166 HD
HETATM   14  N           1     -20.481  -3.376 -11.673  0.00  0.00    -0.360 N 
HETATM   15  C           1     -20.068  -3.762 -10.428  0.00  0.00     0.114 A 
HETATM   16  H           1     -19.951  -2.766 -12.342  0.00  0.00     0.166 HD
ENDBRANCH   9  10
ENDBRANCH   5   9
ENDBRANCH   1   5
BRANCH   2  17
HETATM   17  C           1     -21.381  -6.807  -5.395  0.00  0.00     0.275 C 
BRANCH  17  18
HETATM   18  C           1     -20.918  -7.087  -3.971  0.00  0.00     0.053 C 
BRANCH  18  19
HETATM   19  C           1     -21.537  -6.067  -3.026  0.00  0.00     0.076 C 
BRANCH  19  20
HETATM   20  S           1     -22.041  -6.891  -1.490  0.00  0.00    -0.173 SA
HETATM   21  C           1     -20.706  -8.121  -1.476  0.00  0.00     0.089 C 
ENDBRANCH  19  20
ENDBRANCH  18  19
ENDBRANCH  17  18
BRANCH  17  22
HETATM   22  N           1     -21.296  -8.066  -6.204  0.00  0.00    -0.066 N 
HETATM   23  H           1     -20.959  -8.849  -5.598  0.00  0.00     0.275 HD
HETATM   24  H           1     -22.243  -8.303  -6.581  0.00  0.00     0.275 HD
HETATM   25  H           1     -20.630  -7.928  -6.997  0.00  0.00     0.275 HD
ENDBRANCH  17  22
ENDBRANCH   2  17
TORSDOF 9
ENDMDL
MODEL 8
REMARK VINA RESULT:      -5.1      3.503      5.187
REMARK  9 active torsions:
REMARK  status: ('A' for Active; 'I' for Inactive)
REMARK    1  A    between atoms: C_1  and  C_7 
REMARK    2  A    between atoms: C_1  and  C_11 
REMARK    3  A    between atoms: N_5  and  C_17 
REMARK       I    between atoms: N_5  and  C_6 
REMARK    4  A    between atoms: C_6  and  C_7 
REMARK    5  A    between atoms: C_7  and  N_14 
REMARK    6  A    between atoms: C_9  and  C_18 
REMARK    7  A    between atoms: C_11  and  S_12 
REMARK    8  A    between atoms: C_17  and  C_23 
REMARK    9  A    between atoms: C_17  and  C_18 
ROOT
HETATM    1  N           1     -21.307  -8.956  -3.493  0.00  0.00    -0.344 N 
HETATM    2  C           1     -20.171  -9.714  -3.594  0.00  0.00     0.249 C 
HETATM    3  O           1     -19.564 -10.030  -2.600  0.00  0.00    -0.271 OA
HETATM    4  H           1     -22.208  -9.406  -3.394  0.00  0.00     0.163 HD
ENDROOT
BRANCH   1   5
HETATM    5  C           1     -21.219  -7.509  -3.528  0.00  0.00     0.191 C 
BRANCH   5   6
HETATM    6  C           1     -21.768  -6.941  -2.242  0.00  0.00     0.197 C 
HETATM    7  O           1     -21.685  -7.599  -1.182  0.00  0.00    -0.646 OA
HETATM    8  O           1     -22.307  -5.813  -2.237  0.00  0.00    -0.646 OA
ENDBRANCH   5   6
BRANCH   5   9
HETATM    9  C           1     -22.029  -6.980  -4.704  0.00  0.00     0.094 C 
BRANCH   9  10
HETATM   10  C           1     -21.126  -6.239  -5.639  0.00  0.00     0.028 A 
HETATM   11  N           1     -20.831  -6.637  -6.918  0.00  0.00    -0.354 N 
HETATM   12  C           1     -20.016  -5.721  -7.388  0.00  0.00     0.180 A 
ATOM     13  HN          1     -21.173  -7.468  -7.402  1.00  0.00     0.166 HD
HETATM   14  N           1     -19.773  -4.747  -6.462  0.00  0.00    -0.360 N 
HETATM   15  C           1     -20.479  -5.065  -5.335  0.00  0.00     0.114 A 
HETATM   16  H           1     -19.158  -3.907  -6.593  0.00  0.00     0.166 HD
ENDBRANCH   9  10
ENDBRANCH   5   9
ENDBRANCH   1   5
BRANCH   2  17
HETATM   17  C           1     -19.678 -10.155  -4.951  0.00  0.00     0.275 C 
BRANCH  17  18
HETATM   18  C           1     -18.591  -9.202  -5.431  0.00  0.00     0.053 C 
BRANCH  18  19
HETATM   19  C           1     -17.388 -10.003  -5.911  0.00  0.00     0.076 C 
BRANCH  19  20
HETATM   20  S           1     -17.543 -11.722  -5.352  0.00  0.00    -0.173 SA
HETATM   21  C           1     -17.375 -12.481  -6.993  0.00  0.00     0.089 C 
ENDBRANCH  19  20
ENDBRANCH  18  19
ENDBRANCH  17  18
BRANCH  17  22
HETATM   22  N           1     -20.818 -10.142  -5.925  0.00  0.00    -0.066 N 
HETATM   23  H           1     -20.914  -9.187  -6.338  0.00  0.00     0.275 HD
HETATM   24  H           1     -20.633 -10.834  -6.688  0.00  0.00     0.275 HD
HETATM   25  H           1     -21.702 -10.398  -5.430  0.00  0.00     0.275 HD
ENDBRANCH  17  22
ENDBRANCH   2  17
TORSDOF 9
ENDMDL
MODEL 9
REMARK VINA RESULT:      -5.0      4.112      6.641
REMARK  9 active torsions:
REMARK  status: ('A' for Active; 'I' for Inactive)
REMARK    1  A    between atoms: C_1  and  C_7 
REMARK    2  A    between atoms: C_1  and  C_11 
REMARK    3  A    between atoms: N_5  and  C_17 
REMARK       I    between atoms: N_5  and  C_6 
REMARK    4  A    between atoms: C_6  and  C_7 
REMARK    5  A    between atoms: C_7  and  N_14 
REMARK    6  A    between atoms: C_9  and  C_18 
REMARK    7  A    between atoms: C_11  and  S_12 
REMARK    8  A    between atoms: C_17  and  C_23 
REMARK    9  A    between atoms: C_17  and  C_18 
ROOT
HETATM    1  N           1     -19.660  -8.238  -4.361  0.00  0.00    -0.344 N 
HETATM    2  C           1     -19.109  -9.436  -3.995  0.00  0.00     0.249 C 
HETATM    3  O           1     -19.216 -10.397  -4.719  0.00  0.00    -0.271 OA
HETATM    4  H           1     -19.117  -7.574  -4.899  0.00  0.00     0.163 HD
ENDROOT
BRANCH   1   5
HETATM    5  C           1     -21.022  -7.919  -3.978  0.00  0.00     0.191 C 
BRANCH   5   6
HETATM    6  C           1     -21.704  -7.189  -5.110  0.00  0.00     0.197 C 
HETATM    7  O           1     -22.595  -6.347  -4.863  0.00  0.00    -0.646 OA
HETATM    8  O           1     -21.380  -7.427  -6.293  0.00  0.00    -0.646 OA
ENDBRANCH   5   6
BRANCH   5   9
HETATM    9  C           1     -21.006  -7.032  -2.739  0.00  0.00     0.094 C 
BRANCH   9  10
HETATM   10  C           1     -21.741  -7.715  -1.629  0.00  0.00     0.028 A 
HETATM   11  N           1     -21.820  -9.074  -1.466  0.00  0.00    -0.354 N 
HETATM   12  C           1     -22.546  -9.252  -0.386  0.00  0.00     0.180 A 
ATOM     13  HN          1     -21.404  -9.793  -2.057  1.00  0.00     0.166 HD
HETATM   14  N           1     -22.938  -8.061   0.155  0.00  0.00    -0.360 N 
HETATM   15  C           1     -22.429  -7.065  -0.631  0.00  0.00     0.114 A 
HETATM   16  H           1     -23.523  -7.934   1.017  0.00  0.00     0.166 HD
ENDBRANCH   9  10
ENDBRANCH   5   9
ENDBRANCH   1   5
BRANCH   2  17
HETATM   17  C           1     -18.367  -9.557  -2.685  0.00  0.00     0.275 C 
BRANCH  17  18
HETATM   18  C           1     -16.868  -9.459  -2.940  0.00  0.00     0.053 C 
BRANCH  18  19
HETATM   19  C           1     -16.175 -10.690  -2.373  0.00  0.00     0.076 C 
BRANCH  19  20
HETATM   20  S           1     -15.408 -11.629  -3.723  0.00  0.00    -0.173 SA
HETATM   21  C           1     -15.558 -10.329  -4.982  0.00  0.00     0.089 C 
ENDBRANCH  19  20
ENDBRANCH  18  19
ENDBRANCH  17  18
BRANCH  17  22
HETATM   22  N           1     -18.681 -10.880  -2.055  0.00  0.00    -0.066 N 
HETATM   23  H           1     -19.703 -11.077  -2.146  0.00  0.00     0.275 HD
HETATM   24  H           1     -18.138 -11.633  -2.536  0.00  0.00     0.275 HD
HETATM   25  H           1     -18.420 -10.855  -1.043  0.00  0.00     0.275 HD
ENDBRANCH  17  22
ENDBRANCH   2  17
TORSDOF 9
ENDMDL
