MODEL 1
REMARK VINA RESULT:      -5.6      0.000      0.000
REMARK  10 active torsions:
REMARK  status: ('A' for Active; 'I' for Inactive)
REMARK    1  A    between atoms: S_5  and  C_6 
REMARK    2  A    between atoms: C_6  and  C_28 
REMARK    3  A    between atoms: C_7  and  C_8 
REMARK    4  A    between atoms: C_7  and  C_19 
REMARK    5  A    between atoms: C_7  and  N_15 
REMARK    6  A    between atoms: C_8  and  C_9 
REMARK    7  A    between atoms: C_9  and  C_10 
REMARK    8  A    between atoms: C_10  and  N_11 
REMARK       I    between atoms: N_11  and  C_13 
REMARK       I    between atoms: N_12  and  C_13 
REMARK       I    between atoms: C_14  and  N_15 
REMARK    9  A    between atoms: C_14  and  C_28 
REMARK   10  A    between atoms: N_21  and  C_28 
ROOT
HETATM    1  C           1     -21.428  -5.425  -6.842  0.00  0.00     0.185 C 
ENDROOT
BRANCH   1   2
HETATM    2  C           1     -22.037  -4.120  -7.339  0.00  0.00     0.038 C 
BRANCH   2   3
HETATM    3  C           1     -23.303  -4.418  -8.131  0.00  0.00     0.023 C 
BRANCH   3   4
HETATM    4  C           1     -23.265  -3.664  -9.453  0.00  0.00     0.138 C 
BRANCH   4   5
HETATM    5  N           1     -21.874  -3.553  -9.914  0.00  0.00    -0.227 N 
HETATM    6  C           1     -21.545  -4.009 -11.048  0.00  0.00     0.665 C 
HETATM    7  N           1     -22.414  -4.562 -11.785  0.00  0.00    -0.235 N 
HETATM    8  N           1     -20.314  -3.911 -11.456  0.00  0.00    -0.235 N 
HETATM    9  H           1     -23.408  -4.641 -11.456  0.00  0.00     0.174 HD
HETATM   10  H           1     -22.141  -4.940 -12.726  0.00  0.00     0.174 HD
HETATM   11  H           1     -19.596  -3.456 -10.848  0.00  0.00     0.174 HD
HETATM   12  H           1     -20.042  -4.288 -12.392  0.00  0.00     0.174 HD
HETATM   13  H           1     -21.153  -3.096  -9.303  0.00  0.00     0.177 HD
ENDBRANCH   4   5
ENDBRANCH   3   4
ENDBRANCH   2   3
ENDBRANCH   1   2
BRANCH   1  14
HETATM   14  C           1     -20.131  -5.684  -7.567  0.00  0.00     0.196 C 
HETATM   15  O           1     -19.728  -4.880  -8.435  0.00  0.00    -0.646 OA
HETATM   16  O           1     -19.458  -6.702  -7.299  0.00  0.00    -0.646 OA
ENDBRANCH   1  14
BRANCH   1  17
HETATM   17  N           1     -21.175  -5.327  -5.418  0.00  0.00    -0.345 N 
HETATM   18  H           1     -20.695  -4.518  -5.044  0.00  0.00     0.163 HD
HETATM   19  C           1     -21.583  -6.330  -4.580  0.00  0.00     0.249 C 
HETATM   20  O           1     -22.155  -7.295  -5.027  0.00  0.00    -0.271 OA
BRANCH  19  21
HETATM   21  C           1     -21.318  -6.228  -3.097  0.00  0.00     0.283 C 
BRANCH  21  22
HETATM   22  C           1     -20.819  -7.570  -2.577  0.00  0.00     0.113 C 
BRANCH  22  23
HETATM   23  S           1     -21.615  -7.938  -0.988  0.00  0.00    -0.180 SA
HETATM   24  H           1     -21.752  -9.258  -1.202  0.00  0.00     0.101 HD
ENDBRANCH  22  23
ENDBRANCH  21  22
BRANCH  21  25
HETATM   25  N           1     -22.588  -5.859  -2.388  0.00  0.00    -0.066 N 
HETATM   26  H           1     -22.386  -5.696  -1.375  0.00  0.00     0.275 HD
HETATM   27  H           1     -23.280  -6.637  -2.484  0.00  0.00     0.275 HD
HETATM   28  H           1     -22.982  -4.989  -2.810  0.00  0.00     0.275 HD
ENDBRANCH  21  25
ENDBRANCH  19  21
ENDBRANCH   1  17
TORSDOF 10
ENDMDL
MODEL 2
REMARK VINA RESULT:      -5.3      3.113      4.138
REMARK  10 active torsions:
REMARK  status: ('A' for Active; 'I' for Inactive)
REMARK    1  A    between atoms: S_5  and  C_6 
REMARK    2  A    between atoms: C_6  and  C_28 
REMARK    3  A    between atoms: C_7  and  C_8 
REMARK    4  A    between atoms: C_7  and  C_19 
REMARK    5  A    between atoms: C_7  and  N_15 
REMARK    6  A    between atoms: C_8  and  C_9 
REMARK    7  A    between atoms: C_9  and  C_10 
REMARK    8  A    between atoms: C_10  and  N_11 
REMARK       I    between atoms: N_11  and  C_13 
REMARK       I    between atoms: N_12  and  C_13 
REMARK       I    between atoms: C_14  and  N_15 
REMARK    9  A    between atoms: C_14  and  C_28 
REMARK   10  A    between atoms: N_21  and  C_28 
ROOT
HETATM    1  C           1     -20.769  -6.844  -5.377  0.00  0.00     0.185 C 
ENDROOT
BRANCH   1   2
HETATM    2  C           1     -20.581  -6.144  -6.717  0.00  0.00     0.038 C 
BRANCH   2   3
HETATM    3  C           1     -20.025  -4.745  -6.488  0.00  0.00     0.023 C 
BRANCH   3   4
HETATM    4  C           1     -20.641  -3.783  -7.494  0.00  0.00     0.138 C 
BRANCH   4   5
HETATM    5  N           1     -22.106  -3.841  -7.394  0.00  0.00    -0.227 N 
HETATM    6  C           1     -22.810  -3.907  -8.444  0.00  0.00     0.665 C 
HETATM    7  N           1     -22.252  -3.923  -9.581  0.00  0.00    -0.235 N 
HETATM    8  N           1     -24.106  -3.958  -8.356  0.00  0.00    -0.235 N 
HETATM    9  H           1     -21.205  -3.881  -9.652  0.00  0.00     0.174 HD
HETATM   10  H           1     -22.835  -3.977 -10.452  0.00  0.00     0.174 HD
HETATM   11  H           1     -24.568  -3.945  -7.418  0.00  0.00     0.174 HD
HETATM   12  H           1     -24.688  -4.012  -9.223  0.00  0.00     0.174 HD
HETATM   13  H           1     -22.570  -3.827  -6.452  0.00  0.00     0.177 HD
ENDBRANCH   4   5
ENDBRANCH   3   4
ENDBRANCH   2   3
ENDBRANCH   1   2
BRANCH   1  14
HETATM   14  C           1     -21.975  -6.273  -4.675  0.00  0.00     0.196 C 
HETATM   15  O           1     -21.941  -6.061  -3.444  0.00  0.00    -0.646 OA
HETATM   16  O           1     -23.010  -6.009  -5.325  0.00  0.00    -0.646 OA
ENDBRANCH   1  14
BRANCH   1  17
HETATM   17  N           1     -20.965  -8.263  -5.598  0.00  0.00    -0.345 N 
HETATM   18  H           1     -21.562  -8.581  -6.351  0.00  0.00     0.163 HD
HETATM   19  C           1     -20.344  -9.175  -4.786  0.00  0.00     0.249 C 
HETATM   20  O           1     -19.632  -8.795  -3.887  0.00  0.00    -0.271 OA
BRANCH  19  21
HETATM   21  C           1     -20.548 -10.652  -5.015  0.00  0.00     0.283 C 
BRANCH  21  22
HETATM   22  C           1     -19.231 -11.387  -4.804  0.00  0.00     0.113 C 
BRANCH  22  23
HETATM   23  S           1     -18.175 -11.169  -6.265  0.00  0.00    -0.180 SA
HETATM   24  H           1     -17.919 -12.477  -6.448  0.00  0.00     0.101 HD
ENDBRANCH  22  23
ENDBRANCH  21  22
BRANCH  21  25
HETATM   25  N           1     -21.026 -10.878  -6.419  0.00  0.00    -0.066 N 
HETATM   26  H           1     -20.570 -11.734  -6.808  0.00  0.00     0.275 HD
HETATM   27  H           1     -20.777 -10.053  -7.010  0.00  0.00     0.275 HD
HETATM   28  H           1     -22.063 -11.005  -6.418  0.00  0.00     0.275 HD
ENDBRANCH  21  25
ENDBRANCH  19  21
ENDBRANCH   1  17
TORSDOF 10
ENDMDL
MODEL 3
REMARK VINA RESULT:      -5.3      1.538      1.995
REMARK  10 active torsions:
REMARK  status: ('A' for Active; 'I' for Inactive)
REMARK    1  A    between atoms: S_5  and  C_6 
REMARK    2  A    between atoms: C_6  and  C_28 
REMARK    3  A    between atoms: C_7  and  C_8 
REMARK    4  A    between atoms: C_7  and  C_19 
REMARK    5  A    between atoms: C_7  and  N_15 
REMARK    6  A    between atoms: C_8  and  C_9 
REMARK    7  A    between atoms: C_9  and  C_10 
REMARK    8  A    between atoms: C_10  and  N_11 
REMARK       I    between atoms: N_11  and  C_13 
REMARK       I    between atoms: N_12  and  C_13 
REMARK       I    between atoms: C_14  and  N_15 
REMARK    9  A    between atoms: C_14  and  C_28 
REMARK   10  A    between atoms: N_21  and  C_28 
ROOT
HETATM    1  C           1     -21.460  -5.840  -6.210  0.00  0.00     0.185 C 
ENDROOT
BRANCH   1   2
HETATM    2  C           1     -22.487  -4.847  -6.736  0.00  0.00     0.038 C 
BRANCH   2   3
HETATM    3  C           1     -21.775  -3.732  -7.492  0.00  0.00     0.023 C 
BRANCH   3   4
HETATM    4  C           1     -22.287  -3.684  -8.925  0.00  0.00     0.138 C 
BRANCH   4   5
HETATM    5  N           1     -23.708  -3.308  -8.926  0.00  0.00    -0.227 N 
HETATM    6  C           1     -24.516  -3.887  -9.711  0.00  0.00     0.665 C 
HETATM    7  N           1     -24.099  -4.790 -10.495  0.00  0.00    -0.235 N 
HETATM    8  N           1     -25.772  -3.555  -9.711  0.00  0.00    -0.235 N 
HETATM    9  H           1     -23.084  -5.058 -10.494  0.00  0.00     0.174 HD
HETATM   10  H           1     -24.769  -5.270 -11.145  0.00  0.00     0.174 HD
HETATM   11  H           1     -26.117  -2.809  -9.064  0.00  0.00     0.174 HD
HETATM   12  H           1     -26.439  -4.033 -10.359  0.00  0.00     0.174 HD
HETATM   13  H           1     -24.054  -2.559  -8.277  0.00  0.00     0.177 HD
ENDBRANCH   4   5
ENDBRANCH   3   4
ENDBRANCH   2   3
ENDBRANCH   1   2
BRANCH   1  14
HETATM   14  C           1     -20.106  -5.525  -6.796  0.00  0.00     0.196 C 
HETATM   15  O           1     -19.754  -6.050  -7.875  0.00  0.00    -0.646 OA
HETATM   16  O           1     -19.337  -4.737  -6.205  0.00  0.00    -0.646 OA
ENDBRANCH   1  14
BRANCH   1  17
HETATM   17  N           1     -21.394  -5.745  -4.765  0.00  0.00    -0.345 N 
HETATM   18  H           1     -21.303  -4.840  -4.320  0.00  0.00     0.163 HD
HETATM   19  C           1     -21.452  -6.880  -4.000  0.00  0.00     0.249 C 
HETATM   20  O           1     -21.559  -7.960  -4.531  0.00  0.00    -0.271 OA
BRANCH  19  21
HETATM   21  C           1     -21.383  -6.782  -2.496  0.00  0.00     0.283 C 
BRANCH  21  22
HETATM   22  C           1     -21.635  -8.153  -1.884  0.00  0.00     0.113 C 
BRANCH  22  23
HETATM   23  S           1     -21.958  -7.974  -0.107  0.00  0.00    -0.180 SA
HETATM   24  H           1     -20.758  -8.422   0.300  0.00  0.00     0.101 HD
ENDBRANCH  22  23
ENDBRANCH  21  22
BRANCH  21  25
HETATM   25  N           1     -22.426  -5.819  -2.011  0.00  0.00    -0.066 N 
HETATM   26  H           1     -23.250  -5.845  -2.654  0.00  0.00     0.275 HD
HETATM   27  H           1     -22.029  -4.852  -1.995  0.00  0.00     0.275 HD
HETATM   28  H           1     -22.727  -6.088  -1.047  0.00  0.00     0.275 HD
ENDBRANCH  21  25
ENDBRANCH  19  21
ENDBRANCH   1  17
TORSDOF 10
ENDMDL
MODEL 4
REMARK VINA RESULT:      -5.2      3.299      7.413
REMARK  10 active torsions:
REMARK  status: ('A' for Active; 'I' for Inactive)
REMARK    1  A    between atoms: S_5  and  C_6 
REMARK    2  A    between atoms: C_6  and  C_28 
REMARK    3  A    between atoms: C_7  and  C_8 
REMARK    4  A    between atoms: C_7  and  C_19 
REMARK    5  A    between atoms: C_7  and  N_15 
REMARK    6  A    between atoms: C_8  and  C_9 
REMARK    7  A    between atoms: C_9  and  C_10 
REMARK    8  A    between atoms: C_10  and  N_11 
REMARK       I    between atoms: N_11  and  C_13 
REMARK       I    between atoms: N_12  and  C_13 
REMARK       I    between atoms: C_14  and  N_15 
REMARK    9  A    between atoms: C_14  and  C_28 
REMARK   10  A    between atoms: N_21  and  C_28 
ROOT
HETATM    1  C           1     -20.768  -6.976  -5.259  0.00  0.00     0.185 C 
ENDROOT
BRANCH   1   2
HETATM    2  C           1     -21.949  -6.892  -4.301  0.00  0.00     0.038 C 
BRANCH   2   3
HETATM    3  C           1     -21.511  -6.209  -3.012  0.00  0.00     0.023 C 
BRANCH   3   4
HETATM    4  C           1     -21.285  -7.259  -1.933  0.00  0.00     0.138 C 
BRANCH   4   5
HETATM    5  N           1     -22.279  -7.086  -0.864  0.00  0.00    -0.227 N 
HETATM    6  C           1     -22.683  -8.089  -0.207  0.00  0.00     0.665 C 
HETATM    7  N           1     -22.231  -9.243  -0.471  0.00  0.00    -0.235 N 
HETATM    8  N           1     -23.563  -7.936   0.738  0.00  0.00    -0.235 N 
HETATM    9  H           1     -21.521  -9.366  -1.234  0.00  0.00     0.174 HD
HETATM   10  H           1     -22.566 -10.075   0.074  0.00  0.00     0.174 HD
HETATM   11  H           1     -23.937  -6.985   0.956  0.00  0.00     0.174 HD
HETATM   12  H           1     -23.897  -8.765   1.280  0.00  0.00     0.174 HD
HETATM   13  H           1     -22.654  -6.130  -0.646  0.00  0.00     0.177 HD
ENDBRANCH   4   5
ENDBRANCH   3   4
ENDBRANCH   2   3
ENDBRANCH   1   2
BRANCH   1  14
HETATM   14  C           1     -20.276  -8.400  -5.329  0.00  0.00     0.196 C 
HETATM   15  O           1     -19.137  -8.647  -5.782  0.00  0.00    -0.646 OA
HETATM   16  O           1     -21.006  -9.333  -4.932  0.00  0.00    -0.646 OA
ENDBRANCH   1  14
BRANCH   1  17
HETATM   17  N           1     -21.185  -6.544  -6.578  0.00  0.00    -0.345 N 
HETATM   18  H           1     -21.587  -7.210  -7.226  0.00  0.00     0.163 HD
HETATM   19  C           1     -21.034  -5.234  -6.950  0.00  0.00     0.249 C 
HETATM   20  O           1     -20.553  -4.439  -6.178  0.00  0.00    -0.271 OA
BRANCH  19  21
HETATM   21  C           1     -21.468  -4.785  -8.323  0.00  0.00     0.283 C 
BRANCH  21  22
HETATM   22  C           1     -20.251  -4.332  -9.119  0.00  0.00     0.113 C 
BRANCH  22  23
HETATM   23  S           1     -20.715  -4.103 -10.859  0.00  0.00    -0.180 SA
HETATM   24  H           1     -20.483  -5.373 -11.235  0.00  0.00     0.101 HD
ENDBRANCH  22  23
ENDBRANCH  21  22
BRANCH  21  25
HETATM   25  N           1     -22.432  -3.642  -8.193  0.00  0.00    -0.066 N 
HETATM   26  H           1     -21.904  -2.765  -7.981  0.00  0.00     0.275 HD
HETATM   27  H           1     -23.104  -3.839  -7.417  0.00  0.00     0.275 HD
HETATM   28  H           1     -22.958  -3.526  -9.088  0.00  0.00     0.275 HD
ENDBRANCH  21  25
ENDBRANCH  19  21
ENDBRANCH   1  17
TORSDOF 10
ENDMDL
MODEL 5
REMARK VINA RESULT:      -5.1      3.320      6.964
REMARK  10 active torsions:
REMARK  status: ('A' for Active; 'I' for Inactive)
REMARK    1  A    between atoms: S_5  and  C_6 
REMARK    2  A    between atoms: C_6  and  C_28 
REMARK    3  A    between atoms: C_7  and  C_8 
REMARK    4  A    between atoms: C_7  and  C_19 
REMARK    5  A    between atoms: C_7  and  N_15 
REMARK    6  A    between atoms: C_8  and  C_9 
REMARK    7  A    between atoms: C_9  and  C_10 
REMARK    8  A    between atoms: C_10  and  N_11 
REMARK       I    between atoms: N_11  and  C_13 
REMARK       I    between atoms: N_12  and  C_13 
REMARK       I    between atoms: C_14  and  N_15 
REMARK    9  A    between atoms: C_14  and  C_28 
REMARK   10  A    between atoms: N_21  and  C_28 
ROOT
HETATM    1  C           1     -21.279  -4.983  -7.293  0.00  0.00     0.185 C 
ENDROOT
BRANCH   1   2
HETATM    2  C           1     -21.203  -6.296  -6.525  0.00  0.00     0.038 C 
BRANCH   2   3
HETATM    3  C           1     -22.098  -6.221  -5.296  0.00  0.00     0.023 C 
BRANCH   3   4
HETATM    4  C           1     -21.235  -6.136  -4.044  0.00  0.00     0.138 C 
BRANCH   4   5
HETATM    5  N           1     -22.094  -6.170  -2.852  0.00  0.00    -0.227 N 
HETATM    6  C           1     -21.778  -6.894  -1.864  0.00  0.00     0.665 C 
HETATM    7  N           1     -20.721  -7.591  -1.902  0.00  0.00    -0.235 N 
HETATM    8  N           1     -22.539  -6.925  -0.810  0.00  0.00    -0.235 N 
HETATM    9  H           1     -20.107  -7.566  -2.753  0.00  0.00     0.174 HD
HETATM   10  H           1     -20.458  -8.192  -1.082  0.00  0.00     0.174 HD
HETATM   11  H           1     -23.411  -6.350  -0.778  0.00  0.00     0.174 HD
HETATM   12  H           1     -22.278  -7.523   0.006  0.00  0.00     0.174 HD
HETATM   13  H           1     -22.971  -5.593  -2.821  0.00  0.00     0.177 HD
ENDBRANCH   4   5
ENDBRANCH   3   4
ENDBRANCH   2   3
ENDBRANCH   1   2
BRANCH   1  14
HETATM   14  C           1     -19.895  -4.398  -7.430  0.00  0.00     0.196 C 
HETATM   15  O           1     -19.639  -3.610  -8.366  0.00  0.00    -0.646 OA
HETATM   16  O           1     -19.005  -4.701  -6.607  0.00  0.00    -0.646 OA
ENDBRANCH   1  14
BRANCH   1  17
HETATM   17  N           1     -21.834  -5.225  -8.610  0.00  0.00    -0.345 N 
HETATM   18  H           1     -21.415  -5.919  -9.216  0.00  0.00     0.163 HD
HETATM   19  C           1     -22.925  -4.515  -9.035  0.00  0.00     0.249 C 
HETATM   20  O           1     -23.425  -3.686  -8.311  0.00  0.00    -0.271 OA
BRANCH  19  21
HETATM   21  C           1     -23.503  -4.767 -10.405  0.00  0.00     0.283 C 
BRANCH  21  22
HETATM   22  C           1     -22.400  -4.657 -11.450  0.00  0.00     0.113 C 
BRANCH  22  23
HETATM   23  S           1     -21.614  -3.025 -11.333  0.00  0.00    -0.180 SA
HETATM   24  H           1     -20.347  -3.477 -11.366  0.00  0.00     0.101 HD
ENDBRANCH  22  23
ENDBRANCH  21  22
BRANCH  21  25
HETATM   25  N           1     -24.566  -3.748 -10.694  0.00  0.00    -0.066 N 
HETATM   26  H           1     -24.726  -3.162  -9.843  0.00  0.00     0.275 HD
HETATM   27  H           1     -25.454  -4.234 -10.953  0.00  0.00     0.275 HD
HETATM   28  H           1     -24.259  -3.139 -11.485  0.00  0.00     0.275 HD
ENDBRANCH  21  25
ENDBRANCH  19  21
ENDBRANCH   1  17
TORSDOF 10
ENDMDL
MODEL 6
REMARK VINA RESULT:      -4.9      2.722      3.979
REMARK  10 active torsions:
REMARK  status: ('A' for Active; 'I' for Inactive)
REMARK    1  A    between atoms: S_5  and  C_6 
REMARK    2  A    between atoms: C_6  and  C_28 
REMARK    3  A    between atoms: C_7  and  C_8 
REMARK    4  A    between atoms: C_7  and  C_19 
REMARK    5  A    between atoms: C_7  and  N_15 
REMARK    6  A    between atoms: C_8  and  C_9 
REMARK    7  A    between atoms: C_9  and  C_10 
REMARK    8  A    between atoms: C_10  and  N_11 
REMARK       I    between atoms: N_11  and  C_13 
REMARK       I    between atoms: N_12  and  C_13 
REMARK       I    between atoms: C_14  and  N_15 
REMARK    9  A    between atoms: C_14  and  C_28 
REMARK   10  A    between atoms: N_21  and  C_28 
ROOT
HETATM    1  C           1     -20.681  -6.737  -4.465  0.00  0.00     0.185 C 
ENDROOT
BRANCH   1   2
HETATM    2  C           1     -20.307  -6.207  -5.843  0.00  0.00     0.038 C 
BRANCH   2   3
HETATM    3  C           1     -20.173  -4.691  -5.786  0.00  0.00     0.023 C 
BRANCH   3   4
HETATM    4  C           1     -20.656  -4.089  -7.099  0.00  0.00     0.138 C 
BRANCH   4   5
HETATM    5  N           1     -22.125  -4.066  -7.118  0.00  0.00    -0.227 N 
HETATM    6  C           1     -22.743  -4.014  -8.221  0.00  0.00     0.665 C 
HETATM    7  N           1     -22.096  -3.980  -9.309  0.00  0.00    -0.235 N 
HETATM    8  N           1     -24.043  -3.994  -8.238  0.00  0.00    -0.235 N 
HETATM    9  H           1     -21.046  -3.996  -9.296  0.00  0.00     0.174 HD
HETATM   10  H           1     -22.609  -3.937 -10.224  0.00  0.00     0.174 HD
HETATM   11  H           1     -24.578  -4.021  -7.340  0.00  0.00     0.174 HD
HETATM   12  H           1     -24.554  -3.950  -9.149  0.00  0.00     0.174 HD
HETATM   13  H           1     -22.662  -4.094  -6.216  0.00  0.00     0.177 HD
ENDBRANCH   4   5
ENDBRANCH   3   4
ENDBRANCH   2   3
ENDBRANCH   1   2
BRANCH   1  14
HETATM   14  C           1     -22.091  -6.319  -4.130  0.00  0.00     0.196 C 
HETATM   15  O           1     -22.401  -6.052  -2.949  0.00  0.00    -0.646 OA
HETATM   16  O           1     -22.951  -6.239  -5.034  0.00  0.00    -0.646 OA
ENDBRANCH   1  14
BRANCH   1  17
HETATM   17  N           1     -20.593  -8.184  -4.465  0.00  0.00    -0.345 N 
HETATM   18  H           1     -20.841  -8.707  -5.296  0.00  0.00     0.163 HD
HETATM   19  C           1     -20.177  -8.845  -3.340  0.00  0.00     0.249 C 
HETATM   20  O           1     -19.882  -8.221  -2.348  0.00  0.00    -0.271 OA
BRANCH  19  21
HETATM   21  C           1     -20.085 -10.351  -3.340  0.00  0.00     0.283 C 
BRANCH  21  22
HETATM   22  C           1     -21.114 -10.923  -2.373  0.00  0.00     0.113 C 
BRANCH  22  23
HETATM   23  S           1     -22.668 -11.236  -3.258  0.00  0.00    -0.180 SA
HETATM   24  H           1     -23.466 -11.131  -2.180  0.00  0.00     0.101 HD
ENDBRANCH  22  23
ENDBRANCH  21  22
BRANCH  21  25
HETATM   25  N           1     -18.710 -10.767  -2.909  0.00  0.00    -0.066 N 
HETATM   26  H           1     -17.998 -10.262  -3.484  0.00  0.00     0.275 HD
HETATM   27  H           1     -18.598 -11.798  -3.045  0.00  0.00     0.275 HD
HETATM   28  H           1     -18.575 -10.533  -1.900  0.00  0.00     0.275 HD
ENDBRANCH  21  25
ENDBRANCH  19  21
ENDBRANCH   1  17
TORSDOF 10
ENDMDL
MODEL 7
REMARK VINA RESULT:      -4.8      2.474      3.823
REMARK  10 active torsions:
REMARK  status: ('A' for Active; 'I' for Inactive)
REMARK    1  A    between atoms: S_5  and  C_6 
REMARK    2  A    between atoms: C_6  and  C_28 
REMARK    3  A    between atoms: C_7  and  C_8 
REMARK    4  A    between atoms: C_7  and  C_19 
REMARK    5  A    between atoms: C_7  and  N_15 
REMARK    6  A    between atoms: C_8  and  C_9 
REMARK    7  A    between atoms: C_9  and  C_10 
REMARK    8  A    between atoms: C_10  and  N_11 
REMARK       I    between atoms: N_11  and  C_13 
REMARK       I    between atoms: N_12  and  C_13 
REMARK       I    between atoms: C_14  and  N_15 
REMARK    9  A    between atoms: C_14  and  C_28 
REMARK   10  A    between atoms: N_21  and  C_28 
ROOT
HETATM    1  C           1     -20.691  -8.565  -4.547  0.00  0.00     0.185 C 
ENDROOT
BRANCH   1   2
HETATM    2  C           1     -21.239  -7.545  -5.536  0.00  0.00     0.038 C 
BRANCH   2   3
HETATM    3  C           1     -21.138  -6.149  -4.936  0.00  0.00     0.023 C 
BRANCH   3   4
HETATM    4  C           1     -21.087  -5.118  -6.055  0.00  0.00     0.138 C 
BRANCH   4   5
HETATM    5  N           1     -22.453  -4.806  -6.498  0.00  0.00    -0.227 N 
HETATM    6  C           1     -22.652  -4.340  -7.657  0.00  0.00     0.665 C 
HETATM    7  N           1     -21.674  -4.143  -8.437  0.00  0.00    -0.235 N 
HETATM    8  N           1     -23.861  -4.064  -8.049  0.00  0.00    -0.235 N 
HETATM    9  H           1     -20.698  -4.365  -8.121  0.00  0.00     0.174 HD
HETATM   10  H           1     -21.839  -3.756  -9.399  0.00  0.00     0.174 HD
HETATM   11  H           1     -24.669  -4.227  -7.406  0.00  0.00     0.174 HD
HETATM   12  H           1     -24.025  -3.680  -9.007  0.00  0.00     0.174 HD
HETATM   13  H           1     -23.264  -4.969  -5.852  0.00  0.00     0.177 HD
ENDBRANCH   4   5
ENDBRANCH   3   4
ENDBRANCH   2   3
ENDBRANCH   1   2
BRANCH   1  14
HETATM   14  C           1     -19.248  -8.860  -4.875  0.00  0.00     0.196 C 
HETATM   15  O           1     -18.435  -9.106  -3.958  0.00  0.00    -0.646 OA
HETATM   16  O           1     -18.866  -8.860  -6.065  0.00  0.00    -0.646 OA
ENDBRANCH   1  14
BRANCH   1  17
HETATM   17  N           1     -20.780  -8.030  -3.202  0.00  0.00    -0.345 N 
HETATM   18  H           1     -20.322  -7.157  -2.973  0.00  0.00     0.163 HD
HETATM   19  C           1     -21.484  -8.706  -2.242  0.00  0.00     0.249 C 
HETATM   20  O           1     -22.031  -9.749  -2.515  0.00  0.00    -0.271 OA
BRANCH  19  21
HETATM   21  C           1     -21.577  -8.150  -0.842  0.00  0.00     0.283 C 
BRANCH  21  22
HETATM   22  C           1     -22.200  -9.192   0.078  0.00  0.00     0.113 C 
BRANCH  22  23
HETATM   23  S           1     -20.894 -10.240   0.778  0.00  0.00    -0.180 SA
HETATM   24  H           1     -20.522 -10.798  -0.388  0.00  0.00     0.101 HD
ENDBRANCH  22  23
ENDBRANCH  21  22
BRANCH  21  25
HETATM   25  N           1     -22.432  -6.917  -0.851  0.00  0.00    -0.066 N 
HETATM   26  H           1     -23.241  -7.059  -1.497  0.00  0.00     0.275 HD
HETATM   27  H           1     -21.865  -6.102  -1.179  0.00  0.00     0.275 HD
HETATM   28  H           1     -22.784  -6.730   0.114  0.00  0.00     0.275 HD
ENDBRANCH  21  25
ENDBRANCH  19  21
ENDBRANCH   1  17
TORSDOF 10
ENDMDL
MODEL 8
REMARK VINA RESULT:      -4.7      4.519      7.220
REMARK  10 active torsions:
REMARK  status: ('A' for Active; 'I' for Inactive)
REMARK    1  A    between atoms: S_5  and  C_6 
REMARK    2  A    between atoms: C_6  and  C_28 
REMARK    3  A    between atoms: C_7  and  C_8 
REMARK    4  A    between atoms: C_7  and  C_19 
REMARK    5  A    between atoms: C_7  and  N_15 
REMARK    6  A    between atoms: C_8  and  C_9 
REMARK    7  A    between atoms: C_9  and  C_10 
REMARK    8  A    between atoms: C_10  and  N_11 
REMARK       I    between atoms: N_11  and  C_13 
REMARK       I    between atoms: N_12  and  C_13 
REMARK       I    between atoms: C_14  and  N_15 
REMARK    9  A    between atoms: C_14  and  C_28 
REMARK   10  A    between atoms: N_21  and  C_28 
ROOT
HETATM    1  C           1     -21.393  -7.265  -4.226  0.00  0.00     0.185 C 
ENDROOT
BRANCH   1   2
HETATM    2  C           1     -21.276  -6.212  -3.132  0.00  0.00     0.038 C 
BRANCH   2   3
HETATM    3  C           1     -22.415  -6.384  -2.136  0.00  0.00     0.023 C 
BRANCH   3   4
HETATM    4  C           1     -21.895  -7.086  -0.888  0.00  0.00     0.138 C 
BRANCH   4   5
HETATM    5  N           1     -22.255  -8.510  -0.940  0.00  0.00    -0.227 N 
HETATM    6  C           1     -23.067  -8.989  -0.095  0.00  0.00     0.665 C 
HETATM    7  N           1     -23.569  -8.241   0.796  0.00  0.00    -0.235 N 
HETATM    8  N           1     -23.385 -10.248  -0.141  0.00  0.00    -0.235 N 
HETATM    9  H           1     -23.311  -7.224   0.833  0.00  0.00     0.174 HD
HETATM   10  H           1     -24.242  -8.638   1.497  0.00  0.00     0.174 HD
HETATM   11  H           1     -22.971 -10.866  -0.875  0.00  0.00     0.174 HD
HETATM   12  H           1     -24.055 -10.644   0.557  0.00  0.00     0.174 HD
HETATM   13  H           1     -21.840  -9.130  -1.678  0.00  0.00     0.177 HD
ENDBRANCH   4   5
ENDBRANCH   3   4
ENDBRANCH   2   3
ENDBRANCH   1   2
BRANCH   1  14
HETATM   14  C           1     -21.689  -6.592  -5.544  0.00  0.00     0.196 C 
HETATM   15  O           1     -22.558  -5.696  -5.607  0.00  0.00    -0.646 OA
HETATM   16  O           1     -21.065  -6.931  -6.572  0.00  0.00    -0.646 OA
ENDBRANCH   1  14
BRANCH   1  17
HETATM   17  N           1     -20.146  -7.997  -4.327  0.00  0.00    -0.345 N 
HETATM   18  H           1     -19.340  -7.567  -4.764  0.00  0.00     0.163 HD
HETATM   19  C           1     -20.057  -9.271  -3.833  0.00  0.00     0.249 C 
HETATM   20  O           1     -21.019  -9.784  -3.312  0.00  0.00    -0.271 OA
BRANCH  19  21
HETATM   21  C           1     -18.759 -10.032  -3.937  0.00  0.00     0.283 C 
BRANCH  21  22
HETATM   22  C           1     -17.871  -9.689  -2.749  0.00  0.00     0.113 C 
BRANCH  22  23
HETATM   23  S           1     -16.129  -9.741  -3.259  0.00  0.00    -0.180 SA
HETATM   24  H           1     -15.994 -11.075  -3.161  0.00  0.00     0.101 HD
ENDBRANCH  22  23
ENDBRANCH  21  22
BRANCH  21  25
HETATM   25  N           1     -18.059  -9.654  -5.209  0.00  0.00    -0.066 N 
HETATM   26  H           1     -17.394 -10.414  -5.480  0.00  0.00     0.275 HD
HETATM   27  H           1     -17.530  -8.764  -5.065  0.00  0.00     0.275 HD
HETATM   28  H           1     -18.764  -9.520  -5.968  0.00  0.00     0.275 HD
ENDBRANCH  21  25
ENDBRANCH  19  21
ENDBRANCH   1  17
TORSDOF 10
ENDMDL
MODEL 9
REMARK VINA RESULT:      -4.7      3.558      7.799
REMARK  10 active torsions:
REMARK  status: ('A' for Active; 'I' for Inactive)
REMARK    1  A    between atoms: S_5  and  C_6 
REMARK    2  A    between atoms: C_6  and  C_28 
REMARK    3  A    between atoms: C_7  and  C_8 
REMARK    4  A    between atoms: C_7  and  C_19 
REMARK    5  A    between atoms: C_7  and  N_15 
REMARK    6  A    between atoms: C_8  and  C_9 
REMARK    7  A    between atoms: C_9  and  C_10 
REMARK    8  A    between atoms: C_10  and  N_11 
REMARK       I    between atoms: N_11  and  C_13 
REMARK       I    between atoms: N_12  and  C_13 
REMARK       I    between atoms: C_14  and  N_15 
REMARK    9  A    between atoms: C_14  and  C_28 
REMARK   10  A    between atoms: N_21  and  C_28 
ROOT
HETATM    1  C           1     -21.574  -7.619  -3.691  0.00  0.00     0.185 C 
ENDROOT
BRANCH   1   2
HETATM    2  C           1     -20.945  -8.997  -3.536  0.00  0.00     0.038 C 
BRANCH   2   3
HETATM    3  C           1     -21.953 -10.065  -3.940  0.00  0.00     0.023 C 
BRANCH   3   4
HETATM    4  C           1     -22.493 -10.751  -2.692  0.00  0.00     0.138 C 
BRANCH   4   5
HETATM    5  N           1     -21.632 -10.432  -1.545  0.00  0.00    -0.227 N 
HETATM    6  C           1     -22.145 -10.221  -0.407  0.00  0.00     0.665 C 
HETATM    7  N           1     -23.401 -10.285  -0.257  0.00  0.00    -0.235 N 
HETATM    8  N           1     -21.383  -9.938   0.607  0.00  0.00    -0.235 N 
HETATM    9  H           1     -24.016 -10.513  -1.077  0.00  0.00     0.174 HD
HETATM   10  H           1     -23.826 -10.110   0.686  0.00  0.00     0.174 HD
HETATM   11  H           1     -20.346  -9.885   0.484  0.00  0.00     0.174 HD
HETATM   12  H           1     -21.806  -9.764   1.547  0.00  0.00     0.174 HD
HETATM   13  H           1     -20.591 -10.378  -1.669  0.00  0.00     0.177 HD
ENDBRANCH   4   5
ENDBRANCH   3   4
ENDBRANCH   2   3
ENDBRANCH   1   2
BRANCH   1  14
HETATM   14  C           1     -21.632  -6.938  -2.346  0.00  0.00     0.196 C 
HETATM   15  O           1     -22.339  -5.919  -2.191  0.00  0.00    -0.646 OA
HETATM   16  O           1     -20.973  -7.393  -1.386  0.00  0.00    -0.646 OA
ENDBRANCH   1  14
BRANCH   1  17
HETATM   17  N           1     -20.775  -6.823  -4.602  0.00  0.00    -0.345 N 
HETATM   18  H           1     -19.765  -6.902  -4.590  0.00  0.00     0.163 HD
HETATM   19  C           1     -21.384  -5.964  -5.476  0.00  0.00     0.249 C 
HETATM   20  O           1     -22.589  -5.869  -5.489  0.00  0.00    -0.271 OA
BRANCH  19  21
HETATM   21  C           1     -20.552  -5.136  -6.424  0.00  0.00     0.283 C 
BRANCH  21  22
HETATM   22  C           1     -21.424  -4.060  -7.059  0.00  0.00     0.113 C 
BRANCH  22  23
HETATM   23  S           1     -21.728  -4.475  -8.799  0.00  0.00    -0.180 SA
HETATM   24  H           1     -23.006  -4.060  -8.822  0.00  0.00     0.101 HD
ENDBRANCH  22  23
ENDBRANCH  21  22
BRANCH  21  25
HETATM   25  N           1     -19.990  -6.020  -7.498  0.00  0.00    -0.066 N 
HETATM   26  H           1     -19.034  -6.340  -7.219  0.00  0.00     0.275 HD
HETATM   27  H           1     -19.929  -5.485  -8.394  0.00  0.00     0.275 HD
HETATM   28  H           1     -20.612  -6.849  -7.628  0.00  0.00     0.275 HD
ENDBRANCH  21  25
ENDBRANCH  19  21
ENDBRANCH   1  17
TORSDOF 10
ENDMDL
