MODEL 1
REMARK VINA RESULT:      -8.2      0.000      0.000
REMARK  8 active torsions:
REMARK  status: ('A' for Active; 'I' for Inactive)
REMARK    1  A    between atoms: C_3  and  C_12 
REMARK    2  A    between atoms: C_3  and  C_20 
REMARK    3  A    between atoms: C_9  and  C_11 
REMARK    4  A    between atoms: C_10  and  C_14 
REMARK    5  A    between atoms: C_10  and  C_11 
REMARK    6  A    between atoms: C_11  and  N_22 
REMARK    7  A    between atoms: C_12  and  C_13 
REMARK    8  A    between atoms: C_12  and  N_16 
REMARK       I    between atoms: C_13  and  N_22 
ROOT
HETATM    1  C           1     -21.068  -5.369  -6.543  0.00  0.00     0.278 C 
ENDROOT
BRANCH   1   2
HETATM    2  C           1     -22.214  -5.910  -5.700  0.00  0.00     0.083 C 
BRANCH   2   3
HETATM    3  C           1     -21.718  -7.031  -4.842  0.00  0.00    -0.028 A 
HETATM    4  C           1     -21.773  -7.089  -3.422  0.00  0.00    -0.002 A 
HETATM    5  C           1     -21.203  -8.303  -3.037  0.00  0.00     0.042 A 
HETATM    6  C           1     -22.254  -6.220  -2.424  0.00  0.00     0.014 A 
HETATM    7  C           1     -21.090  -8.694  -1.698  0.00  0.00     0.030 A 
HETATM    8  N           1     -20.819  -8.952  -4.189  0.00  0.00    -0.365 N 
HETATM    9  C           1     -21.575  -7.816  -0.725  0.00  0.00     0.002 A 
HETATM   10  C           1     -22.149  -6.597  -1.080  0.00  0.00     0.001 A 
HETATM   11  C           1     -21.126  -8.191  -5.287  0.00  0.00     0.096 A 
HETATM   12  H           1     -20.357  -9.895  -4.222  0.00  0.00     0.165 HD
ENDBRANCH   2   3
ENDBRANCH   1   2
BRANCH   1  13
HETATM   13  C           1     -21.600  -4.349  -7.521  0.00  0.00     0.249 C 
HETATM   14  O           1     -21.459  -3.170  -7.302  0.00  0.00    -0.271 OA
HETATM   15  N           1     -22.241  -4.762  -8.658  0.00  0.00    -0.344 N 
HETATM   16  H           1     -22.360  -5.750  -8.843  0.00  0.00     0.163 HD
BRANCH  15  17
HETATM   17  C           1     -22.752  -3.783  -9.598  0.00  0.00     0.195 C 
BRANCH  17  18
HETATM   18  C           1     -24.259  -3.861  -9.636  0.00  0.00     0.197 C 
HETATM   19  O           1     -24.824  -4.958  -9.835  0.00  0.00    -0.646 OA
HETATM   20  O           1     -24.942  -2.828  -9.467  0.00  0.00    -0.646 OA
ENDBRANCH  17  18
BRANCH  17  21
HETATM   21  C           1     -22.195  -4.072 -10.987  0.00  0.00     0.149 C 
BRANCH  21  22
HETATM   22  C           1     -20.704  -3.837 -10.990  0.00  0.00     0.175 C 
HETATM   23  O           1     -20.250  -2.714 -11.298  0.00  0.00    -0.648 OA
HETATM   24  O           1     -19.924  -4.765 -10.686  0.00  0.00    -0.648 OA
ENDBRANCH  21  22
ENDBRANCH  17  21
ENDBRANCH  15  17
ENDBRANCH   1  13
BRANCH   1  25
HETATM   25  N           1     -20.053  -4.721  -5.649  0.00  0.00    -0.066 N 
HETATM   26  H           1     -19.506  -5.459  -5.152  0.00  0.00     0.275 HD
HETATM   27  H           1     -20.540  -4.117  -4.950  0.00  0.00     0.275 HD
HETATM   28  H           1     -19.406  -4.135  -6.224  0.00  0.00     0.275 HD
ENDBRANCH   1  25
TORSDOF 8
ENDMDL
MODEL 2
REMARK VINA RESULT:      -7.5      1.099      2.503
REMARK  8 active torsions:
REMARK  status: ('A' for Active; 'I' for Inactive)
REMARK    1  A    between atoms: C_3  and  C_12 
REMARK    2  A    between atoms: C_3  and  C_20 
REMARK    3  A    between atoms: C_9  and  C_11 
REMARK    4  A    between atoms: C_10  and  C_14 
REMARK    5  A    between atoms: C_10  and  C_11 
REMARK    6  A    between atoms: C_11  and  N_22 
REMARK    7  A    between atoms: C_12  and  C_13 
REMARK    8  A    between atoms: C_12  and  N_16 
REMARK       I    between atoms: C_13  and  N_22 
ROOT
HETATM    1  C           1     -20.064  -5.522  -6.617  0.00  0.00     0.278 C 
ENDROOT
BRANCH   1   2
HETATM    2  C           1     -20.797  -5.370  -5.291  0.00  0.00     0.083 C 
BRANCH   2   3
HETATM    3  C           1     -20.775  -6.674  -4.555  0.00  0.00    -0.028 A 
HETATM    4  C           1     -21.301  -6.913  -3.255  0.00  0.00    -0.002 A 
HETATM    5  C           1     -21.069  -8.256  -2.959  0.00  0.00     0.042 A 
HETATM    6  C           1     -21.954  -6.112  -2.300  0.00  0.00     0.014 A 
HETATM    7  C           1     -21.459  -8.841  -1.749  0.00  0.00     0.030 A 
HETATM    8  N           1     -20.425  -8.805  -4.045  0.00  0.00    -0.365 N 
HETATM    9  C           1     -22.107  -8.026  -0.816  0.00  0.00     0.002 A 
HETATM   10  C           1     -22.351  -6.681  -1.085  0.00  0.00     0.001 A 
HETATM   11  C           1     -20.242  -7.856  -5.017  0.00  0.00     0.096 A 
HETATM   12  H           1     -20.117  -9.807  -4.119  0.00  0.00     0.165 HD
ENDBRANCH   2   3
ENDBRANCH   1   2
BRANCH   1  13
HETATM   13  C           1     -21.057  -5.452  -7.751  0.00  0.00     0.249 C 
HETATM   14  O           1     -21.882  -6.323  -7.887  0.00  0.00    -0.271 OA
HETATM   15  N           1     -21.023  -4.399  -8.626  0.00  0.00    -0.344 N 
HETATM   16  H           1     -20.332  -3.669  -8.513  0.00  0.00     0.163 HD
BRANCH  15  17
HETATM   17  C           1     -21.977  -4.332  -9.716  0.00  0.00     0.195 C 
BRANCH  17  18
HETATM   18  C           1     -21.266  -3.915 -10.981  0.00  0.00     0.197 C 
HETATM   19  O           1     -20.066  -4.220 -11.154  0.00  0.00    -0.646 OA
HETATM   20  O           1     -21.877  -3.265 -11.856  0.00  0.00    -0.646 OA
ENDBRANCH  17  18
BRANCH  17  21
HETATM   21  C           1     -23.058  -3.312  -9.383  0.00  0.00     0.149 C 
BRANCH  21  22
HETATM   22  C           1     -24.406  -3.855  -9.790  0.00  0.00     0.175 C 
HETATM   23  O           1     -25.401  -3.100  -9.822  0.00  0.00    -0.648 OA
HETATM   24  O           1     -24.527  -5.062 -10.095  0.00  0.00    -0.648 OA
ENDBRANCH  21  22
ENDBRANCH  17  21
ENDBRANCH  15  17
ENDBRANCH   1  13
BRANCH   1  25
HETATM   25  N           1     -19.061  -4.417  -6.762  0.00  0.00    -0.066 N 
HETATM   26  H           1     -19.496  -3.511  -6.477  0.00  0.00     0.275 HD
HETATM   27  H           1     -18.751  -4.356  -7.758  0.00  0.00     0.275 HD
HETATM   28  H           1     -18.235  -4.614  -6.152  0.00  0.00     0.275 HD
ENDBRANCH   1  25
TORSDOF 8
ENDMDL
MODEL 3
REMARK VINA RESULT:      -7.5      3.828      7.840
REMARK  8 active torsions:
REMARK  status: ('A' for Active; 'I' for Inactive)
REMARK    1  A    between atoms: C_3  and  C_12 
REMARK    2  A    between atoms: C_3  and  C_20 
REMARK    3  A    between atoms: C_9  and  C_11 
REMARK    4  A    between atoms: C_10  and  C_14 
REMARK    5  A    between atoms: C_10  and  C_11 
REMARK    6  A    between atoms: C_11  and  N_22 
REMARK    7  A    between atoms: C_12  and  C_13 
REMARK    8  A    between atoms: C_12  and  N_16 
REMARK       I    between atoms: C_13  and  N_22 
ROOT
HETATM    1  C           1     -21.587  -6.363  -5.463  0.00  0.00     0.278 C 
ENDROOT
BRANCH   1   2
HETATM    2  C           1     -20.978  -5.158  -6.166  0.00  0.00     0.083 C 
BRANCH   2   3
HETATM    3  C           1     -21.888  -4.708  -7.267  0.00  0.00    -0.028 A 
HETATM    4  C           1     -21.519  -4.483  -8.622  0.00  0.00    -0.002 A 
HETATM    5  C           1     -22.668  -4.075  -9.299  0.00  0.00     0.042 A 
HETATM    6  C           1     -20.312  -4.588  -9.339  0.00  0.00     0.014 A 
HETATM    7  C           1     -22.671  -3.765 -10.663  0.00  0.00     0.030 A 
HETATM    8  N           1     -23.693  -4.055  -8.380  0.00  0.00    -0.365 N 
HETATM    9  C           1     -21.461  -3.878 -11.355  0.00  0.00     0.002 A 
HETATM   10  C           1     -20.298  -4.283 -10.705  0.00  0.00     0.001 A 
HETATM   11  C           1     -23.232  -4.436  -7.146  0.00  0.00     0.096 A 
HETATM   12  H           1     -24.686  -3.787  -8.592  0.00  0.00     0.165 HD
ENDBRANCH   2   3
ENDBRANCH   1   2
BRANCH   1  13
HETATM   13  C           1     -20.612  -7.514  -5.501  0.00  0.00     0.249 C 
HETATM   14  O           1     -19.655  -7.472  -6.237  0.00  0.00    -0.271 OA
HETATM   15  N           1     -20.811  -8.606  -4.699  0.00  0.00    -0.344 N 
HETATM   16  H           1     -21.612  -8.642  -4.082  0.00  0.00     0.163 HD
BRANCH  15  17
HETATM   17  C           1     -19.873  -9.712  -4.735  0.00  0.00     0.195 C 
BRANCH  17  18
HETATM   18  C           1     -20.550 -10.925  -5.325  0.00  0.00     0.197 C 
HETATM   19  O           1     -20.588 -11.996  -4.680  0.00  0.00    -0.646 OA
HETATM   20  O           1     -21.073 -10.860  -6.458  0.00  0.00    -0.646 OA
ENDBRANCH  17  18
BRANCH  17  21
HETATM   21  C           1     -19.407 -10.029  -3.320  0.00  0.00     0.149 C 
BRANCH  21  22
HETATM   22  C           1     -20.307  -9.337  -2.326  0.00  0.00     0.175 C 
HETATM   23  O           1     -19.970  -8.236  -1.838  0.00  0.00    -0.648 OA
HETATM   24  O           1     -21.390  -9.864  -1.990  0.00  0.00    -0.648 OA
ENDBRANCH  21  22
ENDBRANCH  17  21
ENDBRANCH  15  17
ENDBRANCH   1  13
BRANCH   1  25
HETATM   25  N           1     -21.888  -6.010  -4.037  0.00  0.00    -0.066 N 
HETATM   26  H           1     -22.412  -6.793  -3.588  0.00  0.00     0.275 HD
HETATM   27  H           1     -22.467  -5.141  -4.008  0.00  0.00     0.275 HD
HETATM   28  H           1     -20.993  -5.848  -3.522  0.00  0.00     0.275 HD
ENDBRANCH   1  25
TORSDOF 8
ENDMDL
MODEL 4
REMARK VINA RESULT:      -7.2      3.504      7.599
REMARK  8 active torsions:
REMARK  status: ('A' for Active; 'I' for Inactive)
REMARK    1  A    between atoms: C_3  and  C_12 
REMARK    2  A    between atoms: C_3  and  C_20 
REMARK    3  A    between atoms: C_9  and  C_11 
REMARK    4  A    between atoms: C_10  and  C_14 
REMARK    5  A    between atoms: C_10  and  C_11 
REMARK    6  A    between atoms: C_11  and  N_22 
REMARK    7  A    between atoms: C_12  and  C_13 
REMARK    8  A    between atoms: C_12  and  N_16 
REMARK       I    between atoms: C_13  and  N_22 
ROOT
HETATM    1  C           1     -20.146  -5.776  -6.024  0.00  0.00     0.278 C 
ENDROOT
BRANCH   1   2
HETATM    2  C           1     -20.644  -4.346  -6.182  0.00  0.00     0.083 C 
BRANCH   2   3
HETATM    3  C           1     -21.685  -4.295  -7.257  0.00  0.00    -0.028 A 
HETATM    4  C           1     -21.445  -4.139  -8.650  0.00  0.00    -0.002 A 
HETATM    5  C           1     -22.688  -4.143  -9.284  0.00  0.00     0.042 A 
HETATM    6  C           1     -20.285  -3.992  -9.434  0.00  0.00     0.014 A 
HETATM    7  C           1     -22.829  -4.009 -10.670  0.00  0.00     0.030 A 
HETATM    8  N           1     -23.642  -4.298  -8.304  0.00  0.00    -0.365 N 
HETATM    9  C           1     -21.663  -3.866 -11.428  0.00  0.00     0.002 A 
HETATM   10  C           1     -20.409  -3.857 -10.822  0.00  0.00     0.001 A 
HETATM   11  C           1     -23.046  -4.390  -7.073  0.00  0.00     0.096 A 
HETATM   12  H           1     -24.677  -4.339  -8.473  0.00  0.00     0.165 HD
ENDBRANCH   2   3
ENDBRANCH   1   2
BRANCH   1  13
HETATM   13  C           1     -20.874  -6.440  -4.880  0.00  0.00     0.249 C 
HETATM   14  O           1     -21.676  -5.813  -4.229  0.00  0.00    -0.271 OA
HETATM   15  N           1     -20.625  -7.752  -4.581  0.00  0.00    -0.344 N 
HETATM   16  H           1     -19.954  -8.278  -5.126  0.00  0.00     0.163 HD
BRANCH  15  17
HETATM   17  C           1     -21.325  -8.390  -3.482  0.00  0.00     0.195 C 
BRANCH  17  18
HETATM   18  C           1     -20.471  -8.328  -2.239  0.00  0.00     0.197 C 
HETATM   19  O           1     -20.889  -7.734  -1.222  0.00  0.00    -0.646 OA
HETATM   20  O           1     -19.345  -8.869  -2.227  0.00  0.00    -0.646 OA
ENDBRANCH  17  18
BRANCH  17  21
HETATM   21  C           1     -21.603  -9.846  -3.833  0.00  0.00     0.149 C 
BRANCH  21  22
HETATM   22  C           1     -20.791 -10.236  -5.044  0.00  0.00     0.175 C 
HETATM   23  O           1     -19.651 -10.730  -4.899  0.00  0.00    -0.648 OA
HETATM   24  O           1     -21.257 -10.066  -6.191  0.00  0.00    -0.648 OA
ENDBRANCH  21  22
ENDBRANCH  17  21
ENDBRANCH  15  17
ENDBRANCH   1  13
BRANCH   1  25
HETATM   25  N           1     -20.405  -6.538  -7.290  0.00  0.00    -0.066 N 
HETATM   26  H           1     -19.789  -7.381  -7.321  0.00  0.00     0.275 HD
HETATM   27  H           1     -20.201  -5.927  -8.112  0.00  0.00     0.275 HD
HETATM   28  H           1     -21.407  -6.836  -7.318  0.00  0.00     0.275 HD
ENDBRANCH   1  25
TORSDOF 8
ENDMDL
MODEL 5
REMARK VINA RESULT:      -7.1      1.501      2.205
REMARK  8 active torsions:
REMARK  status: ('A' for Active; 'I' for Inactive)
REMARK    1  A    between atoms: C_3  and  C_12 
REMARK    2  A    between atoms: C_3  and  C_20 
REMARK    3  A    between atoms: C_9  and  C_11 
REMARK    4  A    between atoms: C_10  and  C_14 
REMARK    5  A    between atoms: C_10  and  C_11 
REMARK    6  A    between atoms: C_11  and  N_22 
REMARK    7  A    between atoms: C_12  and  C_13 
REMARK    8  A    between atoms: C_12  and  N_16 
REMARK       I    between atoms: C_13  and  N_22 
ROOT
HETATM    1  C           1     -22.364  -5.026  -6.131  0.00  0.00     0.278 C 
ENDROOT
BRANCH   1   2
HETATM    2  C           1     -21.423  -6.224  -6.125  0.00  0.00     0.083 C 
BRANCH   2   3
HETATM    3  C           1     -21.364  -6.806  -4.747  0.00  0.00    -0.028 A 
HETATM    4  C           1     -21.340  -8.191  -4.421  0.00  0.00    -0.002 A 
HETATM    5  C           1     -21.285  -8.285  -3.031  0.00  0.00     0.042 A 
HETATM    6  C           1     -21.363  -9.376  -5.180  0.00  0.00     0.014 A 
HETATM    7  C           1     -21.249  -9.511  -2.358  0.00  0.00     0.030 A 
HETATM    8  N           1     -21.274  -6.999  -2.538  0.00  0.00    -0.365 N 
HETATM    9  C           1     -21.271 -10.675  -3.132  0.00  0.00     0.002 A 
HETATM   10  C           1     -21.327 -10.611  -4.523  0.00  0.00     0.001 A 
HETATM   11  C           1     -21.322  -6.096  -3.568  0.00  0.00     0.096 A 
HETATM   12  H           1     -21.236  -6.746  -1.520  0.00  0.00     0.165 HD
ENDBRANCH   2   3
ENDBRANCH   1   2
BRANCH   1  13
HETATM   13  C           1     -22.249  -4.303  -7.450  0.00  0.00     0.249 C 
HETATM   14  O           1     -21.246  -3.684  -7.715  0.00  0.00    -0.271 OA
HETATM   15  N           1     -23.282  -4.348  -8.348  0.00  0.00    -0.344 N 
HETATM   16  H           1     -24.122  -4.866  -8.127  0.00  0.00     0.163 HD
BRANCH  15  17
HETATM   17  C           1     -23.172  -3.653  -9.615  0.00  0.00     0.195 C 
BRANCH  17  18
HETATM   18  C           1     -24.553  -3.347 -10.143  0.00  0.00     0.197 C 
HETATM   19  O           1     -25.394  -2.787  -9.406  0.00  0.00    -0.646 OA
HETATM   20  O           1     -24.855  -3.653 -11.316  0.00  0.00    -0.646 OA
ENDBRANCH  17  18
BRANCH  17  21
HETATM   21  C           1     -22.431  -4.532 -10.615  0.00  0.00     0.149 C 
BRANCH  21  22
HETATM   22  C           1     -21.281  -3.759 -11.211  0.00  0.00     0.175 C 
HETATM   23  O           1     -21.494  -2.681 -11.807  0.00  0.00    -0.648 OA
HETATM   24  O           1     -20.114  -4.196 -11.108  0.00  0.00    -0.648 OA
ENDBRANCH  21  22
ENDBRANCH  17  21
ENDBRANCH  15  17
ENDBRANCH   1  13
BRANCH   1  25
HETATM   25  N           1     -23.774  -5.498  -5.941  0.00  0.00    -0.066 N 
HETATM   26  H           1     -23.788  -6.290  -5.260  0.00  0.00     0.275 HD
HETATM   27  H           1     -24.161  -5.820  -6.857  0.00  0.00     0.275 HD
HETATM   28  H           1     -24.358  -4.712  -5.574  0.00  0.00     0.275 HD
ENDBRANCH   1  25
TORSDOF 8
ENDMDL
MODEL 6
REMARK VINA RESULT:      -7.1      3.332      7.407
REMARK  8 active torsions:
REMARK  status: ('A' for Active; 'I' for Inactive)
REMARK    1  A    between atoms: C_3  and  C_12 
REMARK    2  A    between atoms: C_3  and  C_20 
REMARK    3  A    between atoms: C_9  and  C_11 
REMARK    4  A    between atoms: C_10  and  C_14 
REMARK    5  A    between atoms: C_10  and  C_11 
REMARK    6  A    between atoms: C_11  and  N_22 
REMARK    7  A    between atoms: C_12  and  C_13 
REMARK    8  A    between atoms: C_12  and  N_16 
REMARK       I    between atoms: C_13  and  N_22 
ROOT
HETATM    1  C           1     -20.232  -5.411  -6.087  0.00  0.00     0.278 C 
ENDROOT
BRANCH   1   2
HETATM    2  C           1     -20.861  -4.141  -6.644  0.00  0.00     0.083 C 
BRANCH   2   3
HETATM    3  C           1     -20.883  -4.208  -8.139  0.00  0.00    -0.028 A 
HETATM    4  C           1     -22.042  -4.311  -8.958  0.00  0.00    -0.002 A 
HETATM    5  C           1     -21.607  -4.345 -10.283  0.00  0.00     0.042 A 
HETATM    6  C           1     -23.423  -4.380  -8.695  0.00  0.00     0.014 A 
HETATM    7  C           1     -22.489  -4.444 -11.364  0.00  0.00     0.030 A 
HETATM    8  N           1     -20.233  -4.265 -10.260  0.00  0.00    -0.365 N 
HETATM    9  C           1     -23.857  -4.511 -11.080  0.00  0.00     0.002 A 
HETATM   10  C           1     -24.319  -4.479  -9.766  0.00  0.00     0.001 A 
HETATM   11  C           1     -19.784  -4.182  -8.968  0.00  0.00     0.096 A 
HETATM   12  H           1     -19.616  -4.267 -11.110  0.00  0.00     0.165 HD
ENDBRANCH   2   3
ENDBRANCH   1   2
BRANCH   1  13
HETATM   13  C           1     -21.220  -6.107  -5.182  0.00  0.00     0.249 C 
HETATM   14  O           1     -22.393  -5.823  -5.236  0.00  0.00    -0.271 OA
HETATM   15  N           1     -20.786  -7.062  -4.302  0.00  0.00    -0.344 N 
HETATM   16  H           1     -19.805  -7.301  -4.257  0.00  0.00     0.163 HD
BRANCH  15  17
HETATM   17  C           1     -21.736  -7.731  -3.434  0.00  0.00     0.195 C 
BRANCH  17  18
HETATM   18  C           1     -21.506  -7.294  -2.007  0.00  0.00     0.197 C 
HETATM   19  O           1     -20.596  -7.820  -1.331  0.00  0.00    -0.646 OA
HETATM   20  O           1     -22.226  -6.406  -1.502  0.00  0.00    -0.646 OA
ENDBRANCH  17  18
BRANCH  17  21
HETATM   21  C           1     -21.546  -9.239  -3.538  0.00  0.00     0.149 C 
BRANCH  21  22
HETATM   22  C           1     -20.450  -9.540  -4.532  0.00  0.00     0.175 C 
HETATM   23  O           1     -19.262  -9.612  -4.149  0.00  0.00    -0.648 OA
HETATM   24  O           1     -20.731  -9.718  -5.737  0.00  0.00    -0.648 OA
ENDBRANCH  21  22
ENDBRANCH  17  21
ENDBRANCH  15  17
ENDBRANCH   1  13
BRANCH   1  25
HETATM   25  N           1     -19.862  -6.323  -7.218  0.00  0.00    -0.066 N 
HETATM   26  H           1     -19.557  -7.246  -6.836  0.00  0.00     0.275 HD
HETATM   27  H           1     -19.082  -5.898  -7.768  0.00  0.00     0.275 HD
HETATM   28  H           1     -20.691  -6.460  -7.841  0.00  0.00     0.275 HD
ENDBRANCH   1  25
TORSDOF 8
ENDMDL
MODEL 7
REMARK VINA RESULT:      -6.9      3.794      7.618
REMARK  8 active torsions:
REMARK  status: ('A' for Active; 'I' for Inactive)
REMARK    1  A    between atoms: C_3  and  C_12 
REMARK    2  A    between atoms: C_3  and  C_20 
REMARK    3  A    between atoms: C_9  and  C_11 
REMARK    4  A    between atoms: C_10  and  C_14 
REMARK    5  A    between atoms: C_10  and  C_11 
REMARK    6  A    between atoms: C_11  and  N_22 
REMARK    7  A    between atoms: C_12  and  C_13 
REMARK    8  A    between atoms: C_12  and  N_16 
REMARK       I    between atoms: C_13  and  N_22 
ROOT
HETATM    1  C           1     -21.543  -6.239  -5.547  0.00  0.00     0.278 C 
ENDROOT
BRANCH   1   2
HETATM    2  C           1     -20.684  -4.994  -5.717  0.00  0.00     0.083 C 
BRANCH   2   3
HETATM    3  C           1     -20.600  -4.638  -7.169  0.00  0.00    -0.028 A 
HETATM    4  C           1     -21.696  -4.347  -8.027  0.00  0.00    -0.002 A 
HETATM    5  C           1     -21.169  -4.071  -9.289  0.00  0.00     0.042 A 
HETATM    6  C           1     -23.091  -4.293  -7.849  0.00  0.00     0.014 A 
HETATM    7  C           1     -21.972  -3.741 -10.386  0.00  0.00     0.030 A 
HETATM    8  N           1     -19.801  -4.192  -9.191  0.00  0.00    -0.365 N 
HETATM    9  C           1     -23.355  -3.693 -10.186  0.00  0.00     0.002 A 
HETATM   10  C           1     -23.909  -3.964  -8.937  0.00  0.00     0.001 A 
HETATM   11  C           1     -19.446  -4.536  -7.913  0.00  0.00     0.096 A 
HETATM   12  H           1     -19.127  -4.044  -9.982  0.00  0.00     0.165 HD
ENDBRANCH   2   3
ENDBRANCH   1   2
BRANCH   1  13
HETATM   13  C           1     -20.654  -7.453  -5.434  0.00  0.00     0.249 C 
HETATM   14  O           1     -19.661  -7.540  -6.116  0.00  0.00    -0.271 OA
HETATM   15  N           1     -20.974  -8.456  -4.559  0.00  0.00    -0.344 N 
HETATM   16  H           1     -21.805  -8.383  -3.988  0.00  0.00     0.163 HD
BRANCH  15  17
HETATM   17  C           1     -20.119  -9.622  -4.450  0.00  0.00     0.195 C 
BRANCH  17  18
HETATM   18  C           1     -20.779 -10.794  -5.136  0.00  0.00     0.197 C 
HETATM   19  O           1     -20.592 -10.990  -6.356  0.00  0.00    -0.646 OA
HETATM   20  O           1     -21.512 -11.568  -4.484  0.00  0.00    -0.646 OA
ENDBRANCH  17  18
BRANCH  17  21
HETATM   21  C           1     -19.897  -9.955  -2.980  0.00  0.00     0.149 C 
BRANCH  21  22
HETATM   22  C           1     -20.724  -9.028  -2.123  0.00  0.00     0.175 C 
HETATM   23  O           1     -21.897  -9.338  -1.819  0.00  0.00    -0.648 OA
HETATM   24  O           1     -20.237  -7.950  -1.719  0.00  0.00    -0.648 OA
ENDBRANCH  21  22
ENDBRANCH  17  21
ENDBRANCH  15  17
ENDBRANCH   1  13
BRANCH   1  25
HETATM   25  N           1     -22.371  -6.108  -4.304  0.00  0.00    -0.066 N 
HETATM   26  H           1     -22.965  -6.960  -4.190  0.00  0.00     0.275 HD
HETATM   27  H           1     -22.982  -5.264  -4.378  0.00  0.00     0.275 HD
HETATM   28  H           1     -21.741  -6.009  -3.475  0.00  0.00     0.275 HD
ENDBRANCH   1  25
TORSDOF 8
ENDMDL
MODEL 8
REMARK VINA RESULT:      -6.8      1.834      3.290
REMARK  8 active torsions:
REMARK  status: ('A' for Active; 'I' for Inactive)
REMARK    1  A    between atoms: C_3  and  C_12 
REMARK    2  A    between atoms: C_3  and  C_20 
REMARK    3  A    between atoms: C_9  and  C_11 
REMARK    4  A    between atoms: C_10  and  C_14 
REMARK    5  A    between atoms: C_10  and  C_11 
REMARK    6  A    between atoms: C_11  and  N_22 
REMARK    7  A    between atoms: C_12  and  C_13 
REMARK    8  A    between atoms: C_12  and  N_16 
REMARK       I    between atoms: C_13  and  N_22 
ROOT
HETATM    1  C           1     -21.992  -5.828  -5.164  0.00  0.00     0.278 C 
ENDROOT
BRANCH   1   2
HETATM    2  C           1     -21.117  -6.888  -4.509  0.00  0.00     0.083 C 
BRANCH   2   3
HETATM    3  C           1     -21.525  -7.059  -3.078  0.00  0.00    -0.028 A 
HETATM    4  C           1     -21.710  -8.296  -2.401  0.00  0.00    -0.002 A 
HETATM    5  C           1     -22.087  -7.995  -1.092  0.00  0.00     0.042 A 
HETATM    6  C           1     -21.593  -9.646  -2.779  0.00  0.00     0.014 A 
HETATM    7  C           1     -22.353  -8.982  -0.137  0.00  0.00     0.030 A 
HETATM    8  N           1     -22.126  -6.623  -0.988  0.00  0.00    -0.365 N 
HETATM    9  C           1     -22.230 -10.317  -0.534  0.00  0.00     0.002 A 
HETATM   10  C           1     -21.855 -10.647  -1.835  0.00  0.00     0.001 A 
HETATM   11  C           1     -21.788  -6.046  -2.184  0.00  0.00     0.096 A 
HETATM   12  H           1     -22.379  -6.093  -0.117  0.00  0.00     0.165 HD
ENDBRANCH   2   3
ENDBRANCH   1   2
BRANCH   1  13
HETATM   13  C           1     -21.699  -5.777  -6.644  0.00  0.00     0.249 C 
HETATM   14  O           1     -21.051  -6.654  -7.162  0.00  0.00    -0.271 OA
HETATM   15  N           1     -22.170  -4.736  -7.399  0.00  0.00    -0.344 N 
HETATM   16  H           1     -22.713  -4.001  -6.965  0.00  0.00     0.163 HD
BRANCH  15  17
HETATM   17  C           1     -21.888  -4.687  -8.820  0.00  0.00     0.195 C 
BRANCH  17  18
HETATM   18  C           1     -20.428  -4.370  -9.033  0.00  0.00     0.197 C 
HETATM   19  O           1     -19.826  -4.829 -10.028  0.00  0.00    -0.646 OA
HETATM   20  O           1     -19.819  -3.650  -8.213  0.00  0.00    -0.646 OA
ENDBRANCH  17  18
BRANCH  17  21
HETATM   21  C           1     -22.741  -3.606  -9.471  0.00  0.00     0.149 C 
BRANCH  21  22
HETATM   22  C           1     -23.800  -4.250 -10.332  0.00  0.00     0.175 C 
HETATM   23  O           1     -23.798  -5.488 -10.503  0.00  0.00    -0.648 OA
HETATM   24  O           1     -24.679  -3.545 -10.874  0.00  0.00    -0.648 OA
ENDBRANCH  21  22
ENDBRANCH  17  21
ENDBRANCH  15  17
ENDBRANCH   1  13
BRANCH   1  25
HETATM   25  N           1     -23.437  -6.173  -4.952  0.00  0.00    -0.066 N 
HETATM   26  H           1     -24.025  -5.325  -5.118  0.00  0.00     0.275 HD
HETATM   27  H           1     -23.576  -6.507  -3.972  0.00  0.00     0.275 HD
HETATM   28  H           1     -23.716  -6.928  -5.620  0.00  0.00     0.275 HD
ENDBRANCH   1  25
TORSDOF 8
ENDMDL
MODEL 9
REMARK VINA RESULT:      -6.6      1.939      2.822
REMARK  8 active torsions:
REMARK  status: ('A' for Active; 'I' for Inactive)
REMARK    1  A    between atoms: C_3  and  C_12 
REMARK    2  A    between atoms: C_3  and  C_20 
REMARK    3  A    between atoms: C_9  and  C_11 
REMARK    4  A    between atoms: C_10  and  C_14 
REMARK    5  A    between atoms: C_10  and  C_11 
REMARK    6  A    between atoms: C_11  and  N_22 
REMARK    7  A    between atoms: C_12  and  C_13 
REMARK    8  A    between atoms: C_12  and  N_16 
REMARK       I    between atoms: C_13  and  N_22 
ROOT
HETATM    1  C           1     -20.876  -7.579  -5.279  0.00  0.00     0.278 C 
ENDROOT
BRANCH   1   2
HETATM    2  C           1     -20.486  -7.647  -3.808  0.00  0.00     0.083 C 
BRANCH   2   3
HETATM    3  C           1     -21.257  -8.741  -3.137  0.00  0.00    -0.028 A 
HETATM    4  C           1     -21.911  -8.654  -1.876  0.00  0.00    -0.002 A 
HETATM    5  C           1     -22.501  -9.895  -1.634  0.00  0.00     0.042 A 
HETATM    6  C           1     -22.056  -7.636  -0.916  0.00  0.00     0.014 A 
HETATM    7  C           1     -23.233 -10.169  -0.473  0.00  0.00     0.030 A 
HETATM    8  N           1     -22.211 -10.699  -2.714  0.00  0.00    -0.365 N 
HETATM    9  C           1     -23.365  -9.142   0.466  0.00  0.00     0.002 A 
HETATM   10  C           1     -22.786  -7.893   0.251  0.00  0.00     0.001 A 
HETATM   11  C           1     -21.458 -10.010  -3.629  0.00  0.00     0.096 A 
HETATM   12  H           1     -22.521 -11.696  -2.821  0.00  0.00     0.165 HD
ENDBRANCH   2   3
ENDBRANCH   1   2
BRANCH   1  13
HETATM   13  C           1     -21.518  -6.245  -5.568  0.00  0.00     0.249 C 
HETATM   14  O           1     -22.032  -5.614  -4.675  0.00  0.00    -0.271 OA
HETATM   15  N           1     -21.518  -5.748  -6.844  0.00  0.00    -0.344 N 
HETATM   16  H           1     -21.088  -6.275  -7.593  0.00  0.00     0.163 HD
BRANCH  15  17
HETATM   17  C           1     -22.135  -4.466  -7.123  0.00  0.00     0.195 C 
BRANCH  17  18
HETATM   18  C           1     -22.965  -4.570  -8.380  0.00  0.00     0.197 C 
HETATM   19  O           1     -24.056  -3.965  -8.460  0.00  0.00    -0.646 OA
HETATM   20  O           1     -22.561  -5.260  -9.339  0.00  0.00    -0.646 OA
ENDBRANCH  17  18
BRANCH  17  21
HETATM   21  C           1     -21.053  -3.411  -7.316  0.00  0.00     0.149 C 
BRANCH  21  22
HETATM   22  C           1     -19.787  -4.073  -7.801  0.00  0.00     0.175 C 
HETATM   23  O           1     -18.961  -4.523  -6.977  0.00  0.00    -0.648 OA
HETATM   24  O           1     -19.563  -4.171  -9.027  0.00  0.00    -0.648 OA
ENDBRANCH  21  22
ENDBRANCH  17  21
ENDBRANCH  15  17
ENDBRANCH   1  13
BRANCH   1  25
HETATM   25  N           1     -19.650  -7.738  -6.128  0.00  0.00    -0.066 N 
HETATM   26  H           1     -19.506  -8.750  -6.346  0.00  0.00     0.275 HD
HETATM   27  H           1     -18.818  -7.371  -5.612  0.00  0.00     0.275 HD
HETATM   28  H           1     -19.771  -7.203  -7.018  0.00  0.00     0.275 HD
ENDBRANCH   1  25
TORSDOF 8
ENDMDL
