MODEL 1
REMARK VINA RESULT:      -7.9      0.000      0.000
REMARK  8 active torsions:
REMARK  status: ('A' for Active; 'I' for Inactive)
REMARK    1  A    between atoms: C_4  and  C_10 
REMARK    2  A    between atoms: C_10  and  C_25 
REMARK    3  A    between atoms: C_10  and  N_20 
REMARK    4  A    between atoms: S_12  and  C_25 
REMARK    5  A    between atoms: N_15  and  C_26 
REMARK       I    between atoms: N_20  and  C_21 
REMARK    6  A    between atoms: C_21  and  C_26 
REMARK    7  A    between atoms: C_23  and  C_24 
REMARK    8  A    between atoms: C_24  and  C_26 
ROOT
HETATM    1  C           1     -21.189  -5.819  -6.975  0.00  0.00     0.278 C 
ENDROOT
BRANCH   1   2
HETATM    2  N           1     -19.794  -6.059  -7.473  0.00  0.00    -0.066 N 
HETATM    3  H           1     -19.454  -5.209  -7.978  0.00  0.00     0.275 HD
HETATM    4  H           1     -19.794  -6.877  -8.125  0.00  0.00     0.275 HD
HETATM    5  H           1     -19.165  -6.259  -6.664  0.00  0.00     0.275 HD
ENDBRANCH   1   2
BRANCH   1   6
HETATM    6  C           1     -21.780  -4.629  -7.691  0.00  0.00     0.249 C 
HETATM    7  O           1     -21.823  -3.554  -7.142  0.00  0.00    -0.271 OA
HETATM    8  N           1     -22.268  -4.768  -8.963  0.00  0.00    -0.344 N 
HETATM    9  H           1     -22.231  -5.668  -9.423  0.00  0.00     0.163 HD
BRANCH   8  10
HETATM   10  C           1     -22.836  -3.625  -9.650  0.00  0.00     0.194 C 
BRANCH  10  11
HETATM   11  C           1     -24.242  -3.952 -10.093  0.00  0.00     0.197 C 
HETATM   12  O           1     -24.935  -3.083 -10.663  0.00  0.00    -0.646 OA
HETATM   13  O           1     -24.711  -5.093  -9.889  0.00  0.00    -0.646 OA
ENDBRANCH  10  11
BRANCH  10  14
HETATM   14  C           1     -21.986  -3.290 -10.869  0.00  0.00     0.106 C 
BRANCH  14  15
HETATM   15  S           1     -20.531  -4.374 -10.909  0.00  0.00    -0.180 SA
HETATM   16  H           1     -19.744  -3.581 -10.160  0.00  0.00     0.101 HD
ENDBRANCH  14  15
ENDBRANCH  10  14
ENDBRANCH   8  10
ENDBRANCH   1   6
BRANCH   1  17
HETATM   17  C           1     -21.152  -5.544  -5.478  0.00  0.00     0.083 C 
BRANCH  17  18
HETATM   18  C           1     -21.181  -6.842  -4.732  0.00  0.00    -0.028 A 
HETATM   19  C           1     -20.857  -8.078  -5.241  0.00  0.00     0.096 A 
HETATM   20  N           1     -21.013  -8.999  -4.238  0.00  0.00    -0.365 N 
HETATM   21  H           1     -20.837 -10.029  -4.336  0.00  0.00     0.165 HD
HETATM   22  C           1     -21.434  -8.378  -3.084  0.00  0.00     0.042 A 
HETATM   23  C           1     -21.718  -8.912  -1.821  0.00  0.00     0.030 A 
HETATM   24  C           1     -21.546  -7.017  -3.368  0.00  0.00    -0.002 A 
HETATM   25  C           1     -22.132  -8.025  -0.822  0.00  0.00     0.002 A 
HETATM   26  C           1     -22.254  -6.661  -1.078  0.00  0.00     0.001 A 
HETATM   27  C           1     -21.965  -6.143  -2.346  0.00  0.00     0.014 A 
ENDBRANCH  17  18
ENDBRANCH   1  17
TORSDOF 8
ENDMDL
MODEL 2
REMARK VINA RESULT:      -7.4      4.000      7.655
REMARK  8 active torsions:
REMARK  status: ('A' for Active; 'I' for Inactive)
REMARK    1  A    between atoms: C_4  and  C_10 
REMARK    2  A    between atoms: C_10  and  C_25 
REMARK    3  A    between atoms: C_10  and  N_20 
REMARK    4  A    between atoms: S_12  and  C_25 
REMARK    5  A    between atoms: N_15  and  C_26 
REMARK       I    between atoms: N_20  and  C_21 
REMARK    6  A    between atoms: C_21  and  C_26 
REMARK    7  A    between atoms: C_23  and  C_24 
REMARK    8  A    between atoms: C_24  and  C_26 
ROOT
HETATM    1  C           1     -21.341  -6.283  -5.456  0.00  0.00     0.278 C 
ENDROOT
BRANCH   1   2
HETATM    2  N           1     -21.701  -6.007  -4.026  0.00  0.00    -0.066 N 
HETATM    3  H           1     -21.770  -6.910  -3.504  0.00  0.00     0.275 HD
HETATM    4  H           1     -22.621  -5.511  -3.989  0.00  0.00     0.275 HD
HETATM    5  H           1     -20.965  -5.407  -3.590  0.00  0.00     0.275 HD
ENDBRANCH   1   2
BRANCH   1   6
HETATM    6  C           1     -20.226  -7.299  -5.506  0.00  0.00     0.249 C 
HETATM    7  O           1     -19.485  -7.336  -6.459  0.00  0.00    -0.271 OA
HETATM    8  N           1     -20.056  -8.180  -4.472  0.00  0.00    -0.344 N 
HETATM    9  H           1     -20.677  -8.149  -3.673  0.00  0.00     0.163 HD
BRANCH   8  10
HETATM   10  C           1     -18.986  -9.157  -4.520  0.00  0.00     0.194 C 
BRANCH  10  11
HETATM   11  C           1     -19.526 -10.469  -5.035  0.00  0.00     0.197 C 
HETATM   12  O           1     -20.064 -11.275  -4.246  0.00  0.00    -0.646 OA
HETATM   13  O           1     -19.434 -10.750  -6.250  0.00  0.00    -0.646 OA
ENDBRANCH  10  11
BRANCH  10  14
HETATM   14  C           1     -18.416  -9.357  -3.121  0.00  0.00     0.106 C 
BRANCH  14  15
HETATM   15  S           1     -16.642  -9.724  -3.236  0.00  0.00    -0.180 SA
HETATM   16  H           1     -16.256  -8.463  -3.501  0.00  0.00     0.101 HD
ENDBRANCH  14  15
ENDBRANCH  10  14
ENDBRANCH   8  10
ENDBRANCH   1   6
BRANCH   1  17
HETATM   17  C           1     -20.881  -4.992  -6.120  0.00  0.00     0.083 C 
BRANCH  17  18
HETATM   18  C           1     -21.823  -4.638  -7.229  0.00  0.00    -0.028 A 
HETATM   19  C           1     -23.175  -4.418  -7.104  0.00  0.00     0.096 A 
HETATM   20  N           1     -23.668  -4.121  -8.349  0.00  0.00    -0.365 N 
HETATM   21  H           1     -24.673  -3.905  -8.561  0.00  0.00     0.165 HD
HETATM   22  C           1     -22.654  -4.145  -9.280  0.00  0.00     0.042 A 
HETATM   23  C           1     -22.686  -3.907 -10.658  0.00  0.00     0.030 A 
HETATM   24  C           1     -21.480  -4.468  -8.599  0.00  0.00    -0.002 A 
HETATM   25  C           1     -21.480  -4.004 -11.360  0.00  0.00     0.002 A 
HETATM   26  C           1     -20.292  -4.326 -10.706  0.00  0.00     0.001 A 
HETATM   27  C           1     -20.278  -4.561  -9.326  0.00  0.00     0.014 A 
ENDBRANCH  17  18
ENDBRANCH   1  17
TORSDOF 8
ENDMDL
MODEL 3
REMARK VINA RESULT:      -7.0      3.311      7.550
REMARK  8 active torsions:
REMARK  status: ('A' for Active; 'I' for Inactive)
REMARK    1  A    between atoms: C_4  and  C_10 
REMARK    2  A    between atoms: C_10  and  C_25 
REMARK    3  A    between atoms: C_10  and  N_20 
REMARK    4  A    between atoms: S_12  and  C_25 
REMARK    5  A    between atoms: N_15  and  C_26 
REMARK       I    between atoms: N_20  and  C_21 
REMARK    6  A    between atoms: C_21  and  C_26 
REMARK    7  A    between atoms: C_23  and  C_24 
REMARK    8  A    between atoms: C_24  and  C_26 
ROOT
HETATM    1  C           1     -20.208  -5.868  -5.974  0.00  0.00     0.278 C 
ENDROOT
BRANCH   1   2
HETATM    2  N           1     -20.614  -6.648  -7.190  0.00  0.00    -0.066 N 
HETATM    3  H           1     -20.252  -6.170  -8.046  0.00  0.00     0.275 HD
HETATM    4  H           1     -21.657  -6.703  -7.235  0.00  0.00     0.275 HD
HETATM    5  H           1     -20.217  -7.612  -7.135  0.00  0.00     0.275 HD
ENDBRANCH   1   2
BRANCH   1   6
HETATM    6  C           1     -20.866  -6.463  -4.754  0.00  0.00     0.249 C 
HETATM    7  O           1     -21.542  -5.770  -4.032  0.00  0.00    -0.271 OA
HETATM    8  N           1     -20.695  -7.791  -4.463  0.00  0.00    -0.344 N 
HETATM    9  H           1     -20.130  -8.373  -5.067  0.00  0.00     0.163 HD
BRANCH   8  10
HETATM   10  C           1     -21.327  -8.363  -3.290  0.00  0.00     0.194 C 
BRANCH  10  11
HETATM   11  C           1     -20.334  -8.402  -2.153  0.00  0.00     0.197 C 
HETATM   12  O           1     -19.198  -8.891  -2.333  0.00  0.00    -0.646 OA
HETATM   13  O           1     -20.648  -7.947  -1.032  0.00  0.00    -0.646 OA
ENDBRANCH  10  11
BRANCH  10  14
HETATM   14  C           1     -21.795  -9.778  -3.603  0.00  0.00     0.106 C 
BRANCH  14  15
HETATM   15  S           1     -21.017 -10.347  -5.141  0.00  0.00    -0.180 SA
HETATM   16  H           1     -20.128 -11.167  -4.553  0.00  0.00     0.101 HD
ENDBRANCH  14  15
ENDBRANCH  10  14
ENDBRANCH   8  10
ENDBRANCH   1   6
BRANCH   1  17
HETATM   17  C           1     -20.647  -4.419  -6.132  0.00  0.00     0.083 C 
BRANCH  17  18
HETATM   18  C           1     -21.689  -4.326  -7.203  0.00  0.00    -0.028 A 
HETATM   19  C           1     -23.051  -4.386  -7.016  0.00  0.00     0.096 A 
HETATM   20  N           1     -23.648  -4.263  -8.244  0.00  0.00    -0.365 N 
HETATM   21  H           1     -24.683  -4.272  -8.412  0.00  0.00     0.165 HD
HETATM   22  C           1     -22.692  -4.124  -9.226  0.00  0.00     0.042 A 
HETATM   23  C           1     -22.833  -3.969 -10.610  0.00  0.00     0.030 A 
HETATM   24  C           1     -21.448  -4.160  -8.595  0.00  0.00    -0.002 A 
HETATM   25  C           1     -21.664  -3.850 -11.370  0.00  0.00     0.002 A 
HETATM   26  C           1     -20.409  -3.883 -10.767  0.00  0.00     0.001 A 
HETATM   27  C           1     -20.286  -4.038  -9.381  0.00  0.00     0.014 A 
ENDBRANCH  17  18
ENDBRANCH   1  17
TORSDOF 8
ENDMDL
MODEL 4
REMARK VINA RESULT:      -6.9      3.922      7.643
REMARK  8 active torsions:
REMARK  status: ('A' for Active; 'I' for Inactive)
REMARK    1  A    between atoms: C_4  and  C_10 
REMARK    2  A    between atoms: C_10  and  C_25 
REMARK    3  A    between atoms: C_10  and  N_20 
REMARK    4  A    between atoms: S_12  and  C_25 
REMARK    5  A    between atoms: N_15  and  C_26 
REMARK       I    between atoms: N_20  and  C_21 
REMARK    6  A    between atoms: C_21  and  C_26 
REMARK    7  A    between atoms: C_23  and  C_24 
REMARK    8  A    between atoms: C_24  and  C_26 
ROOT
HETATM    1  C           1     -21.657  -6.465  -5.461  0.00  0.00     0.278 C 
ENDROOT
BRANCH   1   2
HETATM    2  N           1     -23.023  -6.212  -4.896  0.00  0.00    -0.066 N 
HETATM    3  H           1     -23.486  -5.445  -5.435  0.00  0.00     0.275 HD
HETATM    4  H           1     -22.938  -5.932  -3.892  0.00  0.00     0.275 HD
HETATM    5  H           1     -23.596  -7.083  -4.966  0.00  0.00     0.275 HD
ENDBRANCH   1   2
BRANCH   1   6
HETATM    6  C           1     -20.906  -7.410  -4.557  0.00  0.00     0.249 C 
HETATM    7  O           1     -19.809  -7.806  -4.872  0.00  0.00    -0.271 OA
HETATM    8  N           1     -21.469  -7.821  -3.378  0.00  0.00    -0.344 N 
HETATM    9  H           1     -22.387  -7.489  -3.113  0.00  0.00     0.163 HD
BRANCH   8  10
HETATM   10  C           1     -20.747  -8.730  -2.508  0.00  0.00     0.194 C 
BRANCH  10  11
HETATM   11  C           1     -21.403 -10.090  -2.547  0.00  0.00     0.197 C 
HETATM   12  O           1     -21.116 -10.947  -1.685  0.00  0.00    -0.646 OA
HETATM   13  O           1     -22.233 -10.358  -3.444  0.00  0.00    -0.646 OA
ENDBRANCH  10  11
BRANCH  10  14
HETATM   14  C           1     -20.772  -8.197  -1.081  0.00  0.00     0.106 C 
BRANCH  14  15
HETATM   15  S           1     -22.242  -7.158  -0.849  0.00  0.00    -0.180 SA
HETATM   16  H           1     -23.127  -8.170  -0.822  0.00  0.00     0.101 HD
ENDBRANCH  14  15
ENDBRANCH  10  14
ENDBRANCH   8  10
ENDBRANCH   1   6
BRANCH   1  17
HETATM   17  C           1     -20.899  -5.148  -5.561  0.00  0.00     0.083 C 
BRANCH  17  18
HETATM   18  C           1     -20.671  -4.811  -7.002  0.00  0.00    -0.028 A 
HETATM   19  C           1     -19.459  -4.811  -7.653  0.00  0.00     0.096 A 
HETATM   20  N           1     -19.682  -4.447  -8.955  0.00  0.00    -0.365 N 
HETATM   21  H           1     -18.939  -4.362  -9.691  0.00  0.00     0.165 HD
HETATM   22  C           1     -21.023  -4.211  -9.160  0.00  0.00     0.042 A 
HETATM   23  C           1     -21.707  -3.822 -10.317  0.00  0.00     0.030 A 
HETATM   24  C           1     -21.669  -4.434  -7.943  0.00  0.00    -0.002 A 
HETATM   25  C           1     -23.093  -3.656 -10.225  0.00  0.00     0.002 A 
HETATM   26  C           1     -23.764  -3.871  -9.023  0.00  0.00     0.001 A 
HETATM   27  C           1     -23.065  -4.260  -7.874  0.00  0.00     0.014 A 
ENDBRANCH  17  18
ENDBRANCH   1  17
TORSDOF 8
ENDMDL
MODEL 5
REMARK VINA RESULT:      -6.9      3.223      7.365
REMARK  8 active torsions:
REMARK  status: ('A' for Active; 'I' for Inactive)
REMARK    1  A    between atoms: C_4  and  C_10 
REMARK    2  A    between atoms: C_10  and  C_25 
REMARK    3  A    between atoms: C_10  and  N_20 
REMARK    4  A    between atoms: S_12  and  C_25 
REMARK    5  A    between atoms: N_15  and  C_26 
REMARK       I    between atoms: N_20  and  C_21 
REMARK    6  A    between atoms: C_21  and  C_26 
REMARK    7  A    between atoms: C_23  and  C_24 
REMARK    8  A    between atoms: C_24  and  C_26 
ROOT
HETATM    1  C           1     -20.376  -5.518  -5.864  0.00  0.00     0.278 C 
ENDROOT
BRANCH   1   2
HETATM    2  N           1     -20.041  -6.426  -7.011  0.00  0.00    -0.066 N 
HETATM    3  H           1     -20.200  -5.921  -7.912  0.00  0.00     0.275 HD
HETATM    4  H           1     -20.651  -7.274  -6.973  0.00  0.00     0.275 HD
HETATM    5  H           1     -19.039  -6.715  -6.945  0.00  0.00     0.275 HD
ENDBRANCH   1   2
BRANCH   1   6
HETATM    6  C           1     -21.365  -6.204  -4.954  0.00  0.00     0.249 C 
HETATM    7  O           1     -22.551  -6.069  -5.140  0.00  0.00    -0.271 OA
HETATM    8  N           1     -20.919  -6.978  -3.917  0.00  0.00    -0.344 N 
HETATM    9  H           1     -19.926  -7.091  -3.761  0.00  0.00     0.163 HD
BRANCH   8  10
HETATM   10  C           1     -21.870  -7.636  -3.042  0.00  0.00     0.194 C 
BRANCH  10  11
HETATM   11  C           1     -22.014  -6.841  -1.767  0.00  0.00     0.197 C 
HETATM   12  O           1     -22.307  -5.627  -1.818  0.00  0.00    -0.646 OA
HETATM   13  O           1     -21.839  -7.396  -0.661  0.00  0.00    -0.646 OA
ENDBRANCH  10  11
BRANCH  10  14
HETATM   14  C           1     -21.371  -9.037  -2.711  0.00  0.00     0.106 C 
BRANCH  14  15
HETATM   15  S           1     -19.570  -9.106  -2.924  0.00  0.00    -0.180 SA
HETATM   16  H           1     -19.408 -10.314  -2.357  0.00  0.00     0.101 HD
ENDBRANCH  14  15
ENDBRANCH  10  14
ENDBRANCH   8  10
ENDBRANCH   1   6
BRANCH   1  17
HETATM   17  C           1     -20.986  -4.230  -6.399  0.00  0.00     0.083 C 
BRANCH  17  18
HETATM   18  C           1     -20.920  -4.230  -7.895  0.00  0.00    -0.028 A 
HETATM   19  C           1     -19.779  -4.134  -8.656  0.00  0.00     0.096 A 
HETATM   20  N           1     -20.150  -4.171  -9.975  0.00  0.00    -0.365 N 
HETATM   21  H           1     -19.488  -4.117 -10.788  0.00  0.00     0.165 HD
HETATM   22  C           1     -21.517  -4.291 -10.081  0.00  0.00     0.042 A 
HETATM   23  C           1     -22.334  -4.368 -11.215  0.00  0.00     0.030 A 
HETATM   24  C           1     -22.027  -4.331  -8.783  0.00  0.00    -0.002 A 
HETATM   25  C           1     -23.713  -4.487 -11.014  0.00  0.00     0.002 A 
HETATM   26  C           1     -24.250  -4.529  -9.729  0.00  0.00     0.001 A 
HETATM   27  C           1     -23.419  -4.451  -8.604  0.00  0.00     0.014 A 
ENDBRANCH  17  18
ENDBRANCH   1  17
TORSDOF 8
ENDMDL
MODEL 6
REMARK VINA RESULT:      -6.7      1.650      2.473
REMARK  8 active torsions:
REMARK  status: ('A' for Active; 'I' for Inactive)
REMARK    1  A    between atoms: C_4  and  C_10 
REMARK    2  A    between atoms: C_10  and  C_25 
REMARK    3  A    between atoms: C_10  and  N_20 
REMARK    4  A    between atoms: S_12  and  C_25 
REMARK    5  A    between atoms: N_15  and  C_26 
REMARK       I    between atoms: N_20  and  C_21 
REMARK    6  A    between atoms: C_21  and  C_26 
REMARK    7  A    between atoms: C_23  and  C_24 
REMARK    8  A    between atoms: C_24  and  C_26 
ROOT
HETATM    1  C           1     -22.391  -5.143  -6.082  0.00  0.00     0.278 C 
ENDROOT
BRANCH   1   2
HETATM    2  N           1     -23.827  -5.547  -5.916  0.00  0.00    -0.066 N 
HETATM    3  H           1     -23.887  -6.586  -5.826  0.00  0.00     0.275 HD
HETATM    4  H           1     -24.375  -5.235  -6.750  0.00  0.00     0.275 HD
HETATM    5  H           1     -24.218  -5.099  -5.057  0.00  0.00     0.275 HD
ENDBRANCH   1   2
BRANCH   1   6
HETATM    6  C           1     -22.234  -4.365  -7.365  0.00  0.00     0.249 C 
HETATM    7  O           1     -21.244  -3.698  -7.551  0.00  0.00    -0.271 OA
HETATM    8  N           1     -23.215  -4.414  -8.320  0.00  0.00    -0.344 N 
HETATM    9  H           1     -24.044  -4.973  -8.165  0.00  0.00     0.163 HD
BRANCH   8  10
HETATM   10  C           1     -23.064  -3.666  -9.553  0.00  0.00     0.194 C 
BRANCH  10  11
HETATM   11  C           1     -24.427  -3.364 -10.127  0.00  0.00     0.197 C 
HETATM   12  O           1     -25.279  -2.769  -9.433  0.00  0.00    -0.646 OA
HETATM   13  O           1     -24.703  -3.709 -11.297  0.00  0.00    -0.646 OA
ENDBRANCH  10  11
BRANCH  10  14
HETATM   14  C           1     -22.264  -4.491 -10.554  0.00  0.00     0.106 C 
BRANCH  14  15
HETATM   15  S           1     -21.000  -3.445 -11.328  0.00  0.00    -0.180 SA
HETATM   16  H           1     -20.422  -4.427 -12.041  0.00  0.00     0.101 HD
ENDBRANCH  14  15
ENDBRANCH  10  14
ENDBRANCH   8  10
ENDBRANCH   1   6
BRANCH   1  17
HETATM   17  C           1     -21.517  -6.388  -6.133  0.00  0.00     0.083 C 
BRANCH  17  18
HETATM   18  C           1     -21.241  -6.861  -4.739  0.00  0.00    -0.028 A 
HETATM   19  C           1     -21.785  -6.347  -3.586  0.00  0.00     0.096 A 
HETATM   20  N           1     -21.276  -7.057  -2.529  0.00  0.00    -0.365 N 
HETATM   21  H           1     -21.514  -6.888  -1.521  0.00  0.00     0.165 HD
HETATM   22  C           1     -20.408  -8.026  -2.981  0.00  0.00     0.042 A 
HETATM   23  C           1     -19.664  -8.976  -2.273  0.00  0.00     0.030 A 
HETATM   24  C           1     -20.369  -7.924  -4.372  0.00  0.00    -0.002 A 
HETATM   25  C           1     -18.854  -9.846  -3.011  0.00  0.00     0.002 A 
HETATM   26  C           1     -18.795  -9.766  -4.400  0.00  0.00     0.001 A 
HETATM   27  C           1     -19.546  -8.810  -5.094  0.00  0.00     0.014 A 
ENDBRANCH  17  18
ENDBRANCH   1  17
TORSDOF 8
ENDMDL
MODEL 7
REMARK VINA RESULT:      -6.7      4.957      7.838
REMARK  8 active torsions:
REMARK  status: ('A' for Active; 'I' for Inactive)
REMARK    1  A    between atoms: C_4  and  C_10 
REMARK    2  A    between atoms: C_10  and  C_25 
REMARK    3  A    between atoms: C_10  and  N_20 
REMARK    4  A    between atoms: S_12  and  C_25 
REMARK    5  A    between atoms: N_15  and  C_26 
REMARK       I    between atoms: N_20  and  C_21 
REMARK    6  A    between atoms: C_21  and  C_26 
REMARK    7  A    between atoms: C_23  and  C_24 
REMARK    8  A    between atoms: C_24  and  C_26 
ROOT
HETATM    1  C           1     -19.631  -8.487  -3.738  0.00  0.00     0.278 C 
ENDROOT
BRANCH   1   2
HETATM    2  N           1     -18.379  -9.312  -3.669  0.00  0.00    -0.066 N 
HETATM    3  H           1     -17.552  -8.682  -3.569  0.00  0.00     0.275 HD
HETATM    4  H           1     -18.286  -9.875  -4.545  0.00  0.00     0.275 HD
HETATM    5  H           1     -18.430  -9.955  -2.847  0.00  0.00     0.275 HD
ENDBRANCH   1   2
BRANCH   1   6
HETATM    6  C           1     -20.637  -9.017  -2.746  0.00  0.00     0.249 C 
HETATM    7  O           1     -21.322  -9.970  -3.030  0.00  0.00    -0.271 OA
HETATM    8  N           1     -20.774  -8.416  -1.523  0.00  0.00    -0.344 N 
HETATM    9  H           1     -20.199  -7.618  -1.284  0.00  0.00     0.163 HD
BRANCH   8  10
HETATM   10  C           1     -21.741  -8.925  -0.570  0.00  0.00     0.194 C 
BRANCH  10  11
HETATM   11  C           1     -22.696  -7.821  -0.185  0.00  0.00     0.197 C 
HETATM   12  O           1     -22.719  -6.758  -0.842  0.00  0.00    -0.646 OA
HETATM   13  O           1     -23.462  -7.970   0.792  0.00  0.00    -0.646 OA
ENDBRANCH  10  11
BRANCH  10  14
HETATM   14  C           1     -21.016  -9.424   0.674  0.00  0.00     0.106 C 
BRANCH  14  15
HETATM   15  S           1     -20.532 -11.157   0.438  0.00  0.00    -0.180 SA
HETATM   16  H           1     -21.700 -11.686   0.842  0.00  0.00     0.101 HD
ENDBRANCH  14  15
ENDBRANCH  10  14
ENDBRANCH   8  10
ENDBRANCH   1   6
BRANCH   1  17
HETATM   17  C           1     -20.212  -8.566  -5.142  0.00  0.00     0.083 C 
BRANCH  17  18
HETATM   18  C           1     -21.027  -7.339  -5.415  0.00  0.00    -0.028 A 
HETATM   19  C           1     -22.281  -7.072  -4.917  0.00  0.00     0.096 A 
HETATM   20  N           1     -22.674  -5.853  -5.404  0.00  0.00    -0.365 N 
HETATM   21  H           1     -23.591  -5.388  -5.192  0.00  0.00     0.165 HD
HETATM   22  C           1     -21.692  -5.324  -6.211  0.00  0.00     0.042 A 
HETATM   23  C           1     -21.653  -4.114  -6.914  0.00  0.00     0.030 A 
HETATM   24  C           1     -20.642  -6.242  -6.234  0.00  0.00    -0.002 A 
HETATM   25  C           1     -20.505  -3.838  -7.664  0.00  0.00     0.002 A 
HETATM   26  C           1     -19.441  -4.737  -7.706  0.00  0.00     0.001 A 
HETATM   27  C           1     -19.496  -5.943  -6.996  0.00  0.00     0.014 A 
ENDBRANCH  17  18
ENDBRANCH   1  17
TORSDOF 8
ENDMDL
MODEL 8
REMARK VINA RESULT:      -6.6      2.051      3.063
REMARK  8 active torsions:
REMARK  status: ('A' for Active; 'I' for Inactive)
REMARK    1  A    between atoms: C_4  and  C_10 
REMARK    2  A    between atoms: C_10  and  C_25 
REMARK    3  A    between atoms: C_10  and  N_20 
REMARK    4  A    between atoms: S_12  and  C_25 
REMARK    5  A    between atoms: N_15  and  C_26 
REMARK       I    between atoms: N_20  and  C_21 
REMARK    6  A    between atoms: C_21  and  C_26 
REMARK    7  A    between atoms: C_23  and  C_24 
REMARK    8  A    between atoms: C_24  and  C_26 
ROOT
HETATM    1  C           1     -21.833  -7.546  -5.001  0.00  0.00     0.278 C 
ENDROOT
BRANCH   1   2
HETATM    2  N           1     -21.282  -8.432  -6.079  0.00  0.00    -0.066 N 
HETATM    3  H           1     -20.905  -9.308  -5.650  0.00  0.00     0.275 HD
HETATM    4  H           1     -20.514  -7.931  -6.582  0.00  0.00     0.275 HD
HETATM    5  H           1     -22.041  -8.673  -6.754  0.00  0.00     0.275 HD
ENDBRANCH   1   2
BRANCH   1   6
HETATM    6  C           1     -22.332  -6.261  -5.614  0.00  0.00     0.249 C 
HETATM    7  O           1     -23.416  -5.825  -5.307  0.00  0.00    -0.271 OA
HETATM    8  N           1     -21.556  -5.588  -6.520  0.00  0.00    -0.344 N 
HETATM    9  H           1     -20.648  -5.952  -6.777  0.00  0.00     0.163 HD
BRANCH   8  10
HETATM   10  C           1     -22.036  -4.353  -7.110  0.00  0.00     0.194 C 
BRANCH  10  11
HETATM   11  C           1     -22.696  -4.652  -8.434  0.00  0.00     0.197 C 
HETATM   12  O           1     -23.878  -4.301  -8.636  0.00  0.00    -0.646 OA
HETATM   13  O           1     -22.060  -5.250  -9.329  0.00  0.00    -0.646 OA
ENDBRANCH  10  11
BRANCH  10  14
HETATM   14  C           1     -20.863  -3.406  -7.330  0.00  0.00     0.106 C 
BRANCH  14  15
HETATM   15  S           1     -19.330  -4.364  -7.480  0.00  0.00    -0.180 SA
HETATM   16  H           1     -19.441  -4.993  -6.296  0.00  0.00     0.101 HD
ENDBRANCH  14  15
ENDBRANCH  10  14
ENDBRANCH   8  10
ENDBRANCH   1   6
BRANCH   1  17
HETATM   17  C           1     -20.737  -7.235  -3.991  0.00  0.00     0.083 C 
BRANCH  17  18
HETATM   18  C           1     -21.310  -7.265  -2.607  0.00  0.00    -0.028 A 
HETATM   19  C           1     -22.097  -6.294  -2.034  0.00  0.00     0.096 A 
HETATM   20  N           1     -22.410  -6.703  -0.764  0.00  0.00    -0.365 N 
HETATM   21  H           1     -23.001  -6.162  -0.087  0.00  0.00     0.165 HD
HETATM   22  C           1     -21.837  -7.928  -0.505  0.00  0.00     0.042 A 
HETATM   23  C           1     -21.884  -8.724   0.646  0.00  0.00     0.030 A 
HETATM   24  C           1     -21.138  -8.305  -1.652  0.00  0.00    -0.002 A 
HETATM   25  C           1     -21.194  -9.940   0.621  0.00  0.00     0.002 A 
HETATM   26  C           1     -20.487 -10.341  -0.511  0.00  0.00     0.001 A 
HETATM   27  C           1     -20.450  -9.534  -1.654  0.00  0.00     0.014 A 
ENDBRANCH  17  18
ENDBRANCH   1  17
TORSDOF 8
ENDMDL
MODEL 9
REMARK VINA RESULT:      -6.6      2.054      3.021
REMARK  8 active torsions:
REMARK  status: ('A' for Active; 'I' for Inactive)
REMARK    1  A    between atoms: C_4  and  C_10 
REMARK    2  A    between atoms: C_10  and  C_25 
REMARK    3  A    between atoms: C_10  and  N_20 
REMARK    4  A    between atoms: S_12  and  C_25 
REMARK    5  A    between atoms: N_15  and  C_26 
REMARK       I    between atoms: N_20  and  C_21 
REMARK    6  A    between atoms: C_21  and  C_26 
REMARK    7  A    between atoms: C_23  and  C_24 
REMARK    8  A    between atoms: C_24  and  C_26 
ROOT
HETATM    1  C           1     -21.087  -7.960  -4.750  0.00  0.00     0.278 C 
ENDROOT
BRANCH   1   2
HETATM    2  N           1     -21.129  -8.863  -5.947  0.00  0.00    -0.066 N 
HETATM    3  H           1     -21.451  -8.321  -6.780  0.00  0.00     0.275 HD
HETATM    4  H           1     -21.793  -9.651  -5.765  0.00  0.00     0.275 HD
HETATM    5  H           1     -20.175  -9.248  -6.128  0.00  0.00     0.275 HD
ENDBRANCH   1   2
BRANCH   1   6
HETATM    6  C           1     -21.141  -6.522  -5.203  0.00  0.00     0.249 C 
HETATM    7  O           1     -20.971  -5.630  -4.406  0.00  0.00    -0.271 OA
HETATM    8  N           1     -21.383  -6.228  -6.518  0.00  0.00    -0.344 N 
HETATM    9  H           1     -21.525  -6.974  -7.186  0.00  0.00     0.163 HD
BRANCH   8  10
HETATM   10  C           1     -21.435  -4.846  -6.954  0.00  0.00     0.194 C 
BRANCH  10  11
HETATM   11  C           1     -22.847  -4.500  -7.361  0.00  0.00     0.197 C 
HETATM   12  O           1     -23.071  -4.023  -8.495  0.00  0.00    -0.646 OA
HETATM   13  O           1     -23.792  -4.691  -6.565  0.00  0.00    -0.646 OA
ENDBRANCH  10  11
BRANCH  10  14
HETATM   14  C           1     -20.503  -4.651  -8.143  0.00  0.00     0.106 C 
BRANCH  14  15
HETATM   15  S           1     -18.810  -4.379  -7.547  0.00  0.00    -0.180 SA
HETATM   16  H           1     -19.003  -4.913  -6.327  0.00  0.00     0.101 HD
ENDBRANCH  14  15
ENDBRANCH  10  14
ENDBRANCH   8  10
ENDBRANCH   1   6
BRANCH   1  17
HETATM   17  C           1     -19.797  -8.202  -3.978  0.00  0.00     0.083 C 
BRANCH  17  18
HETATM   18  C           1     -20.107  -8.910  -2.696  0.00  0.00    -0.028 A 
HETATM   19  C           1     -19.604 -10.127  -2.299  0.00  0.00     0.096 A 
HETATM   20  N           1     -20.133 -10.419  -1.069  0.00  0.00    -0.365 N 
HETATM   21  H           1     -19.927 -11.288  -0.517  0.00  0.00     0.165 HD
HETATM   22  C           1     -20.973  -9.408  -0.661  0.00  0.00     0.042 A 
HETATM   23  C           1     -21.724  -9.274   0.513  0.00  0.00     0.030 A 
HETATM   24  C           1     -20.974  -8.443  -1.668  0.00  0.00    -0.002 A 
HETATM   25  C           1     -22.499  -8.119   0.657  0.00  0.00     0.002 A 
HETATM   26  C           1     -22.520  -7.139  -0.333  0.00  0.00     0.001 A 
HETATM   27  C           1     -21.762  -7.288  -1.501  0.00  0.00     0.014 A 
ENDBRANCH  17  18
ENDBRANCH   1  17
TORSDOF 8
ENDMDL
