MODEL 1
REMARK VINA RESULT:      -5.3      0.000      0.000
REMARK  7 active torsions:
REMARK  status: ('A' for Active; 'I' for Inactive)
REMARK    1  A    between atoms: C_2  and  C_14 
REMARK    2  A    between atoms: C_2  and  S_3 
REMARK    3  A    between atoms: N_4  and  C_14 
REMARK    4  A    between atoms: C_7  and  C_12 
REMARK    5  A    between atoms: C_12  and  C_19 
REMARK    6  A    between atoms: C_12  and  N_16 
REMARK    7  A    between atoms: C_14  and  C_15 
REMARK       I    between atoms: C_15  and  N_16 
ROOT
HETATM    1  H           1     -27.686  -7.056 -18.689  0.00  0.00     0.163 HD
HETATM    2  O           1     -24.626  -6.399 -18.464  0.00  0.00    -0.271 OA
HETATM    3  C           1     -25.642  -6.846 -18.941  0.00  0.00     0.249 C 
HETATM    4  N           1     -26.835  -6.681 -18.290  0.00  0.00    -0.344 N 
ENDROOT
BRANCH   3   5
HETATM    5  C           1     -25.597  -7.586 -20.255  0.00  0.00     0.283 C 
BRANCH   5   6
HETATM    6  C           1     -24.928  -6.712 -21.309  0.00  0.00     0.113 C 
BRANCH   6   7
HETATM    7  S           1     -23.951  -7.755 -22.428  0.00  0.00    -0.180 SA
HETATM    8  H           1     -24.791  -7.663 -23.474  0.00  0.00     0.101 HD
ENDBRANCH   6   7
ENDBRANCH   5   6
BRANCH   5   9
HETATM    9  N           1     -26.993  -7.915 -20.692  0.00  0.00    -0.066 N 
HETATM   10  H           1     -27.465  -8.486 -19.955  0.00  0.00     0.275 HD
HETATM   11  H           1     -27.529  -7.029 -20.841  0.00  0.00     0.275 HD
HETATM   12  H           1     -26.960  -8.457 -21.585  0.00  0.00     0.275 HD
ENDBRANCH   5   9
ENDBRANCH   3   5
BRANCH   4  13
HETATM   13  C           1     -26.879  -5.970 -17.027  0.00  0.00     0.189 C 
BRANCH  13  14
HETATM   14  C           1     -28.231  -5.284 -16.878  0.00  0.00     0.010 C 
HETATM   15  C           1     -28.026  -3.779 -16.765  0.00  0.00     0.012 C 
HETATM   16  C           1     -29.091  -5.589 -18.097  0.00  0.00     0.012 C 
ENDBRANCH  13  14
BRANCH  13  17
HETATM   17  C           1     -26.682  -6.945 -15.893  0.00  0.00     0.197 C 
HETATM   18  O           1     -27.673  -7.465 -15.337  0.00  0.00    -0.646 OA
HETATM   19  O           1     -25.527  -7.234 -15.511  0.00  0.00    -0.646 OA
ENDBRANCH  13  17
ENDBRANCH   4  13
TORSDOF 7
ENDMDL
MODEL 2
REMARK VINA RESULT:      -5.3      1.929      2.563
REMARK  7 active torsions:
REMARK  status: ('A' for Active; 'I' for Inactive)
REMARK    1  A    between atoms: C_2  and  C_14 
REMARK    2  A    between atoms: C_2  and  S_3 
REMARK    3  A    between atoms: N_4  and  C_14 
REMARK    4  A    between atoms: C_7  and  C_12 
REMARK    5  A    between atoms: C_12  and  C_19 
REMARK    6  A    between atoms: C_12  and  N_16 
REMARK    7  A    between atoms: C_14  and  C_15 
REMARK       I    between atoms: C_15  and  N_16 
ROOT
HETATM    1  H           1     -27.959  -6.754 -19.624  0.00  0.00     0.163 HD
HETATM    2  O           1     -26.116  -6.254 -17.135  0.00  0.00    -0.271 OA
HETATM    3  C           1     -26.404  -6.458 -18.290  0.00  0.00     0.249 C 
HETATM    4  N           1     -27.718  -6.582 -18.657  0.00  0.00    -0.344 N 
ENDROOT
BRANCH   3   5
HETATM    5  C           1     -25.317  -6.576 -19.329  0.00  0.00     0.283 C 
BRANCH   5   6
HETATM    6  C           1     -25.892  -7.189 -20.600  0.00  0.00     0.113 C 
BRANCH   6   7
HETATM    7  S           1     -24.542  -7.849 -21.618  0.00  0.00    -0.180 SA
HETATM    8  H           1     -24.710  -6.994 -22.643  0.00  0.00     0.101 HD
ENDBRANCH   6   7
ENDBRANCH   5   6
BRANCH   5   9
HETATM    9  N           1     -24.218  -7.453 -18.805  0.00  0.00    -0.066 N 
HETATM   10  H           1     -24.203  -8.351 -19.339  0.00  0.00     0.275 HD
HETATM   11  H           1     -23.300  -6.966 -18.918  0.00  0.00     0.275 HD
HETATM   12  H           1     -24.385  -7.652 -17.793  0.00  0.00     0.275 HD
ENDBRANCH   5   9
ENDBRANCH   3   5
BRANCH   4  13
HETATM   13  C           1     -28.763  -6.469 -17.658  0.00  0.00     0.189 C 
BRANCH  13  14
HETATM   14  C           1     -29.682  -5.309 -18.016  0.00  0.00     0.010 C 
HETATM   15  C           1     -30.933  -5.367 -17.149  0.00  0.00     0.012 C 
HETATM   16  C           1     -28.955  -3.992 -17.772  0.00  0.00     0.012 C 
ENDBRANCH  13  14
BRANCH  13  17
HETATM   17  C           1     -29.560  -7.749 -17.617  0.00  0.00     0.197 C 
HETATM   18  O           1     -30.243  -8.092 -18.606  0.00  0.00    -0.646 OA
HETATM   19  O           1     -29.538  -8.467 -16.594  0.00  0.00    -0.646 OA
ENDBRANCH  13  17
ENDBRANCH   4  13
TORSDOF 7
ENDMDL
MODEL 3
REMARK VINA RESULT:      -5.3      2.116      2.586
REMARK  7 active torsions:
REMARK  status: ('A' for Active; 'I' for Inactive)
REMARK    1  A    between atoms: C_2  and  C_14 
REMARK    2  A    between atoms: C_2  and  S_3 
REMARK    3  A    between atoms: N_4  and  C_14 
REMARK    4  A    between atoms: C_7  and  C_12 
REMARK    5  A    between atoms: C_12  and  C_19 
REMARK    6  A    between atoms: C_12  and  N_16 
REMARK    7  A    between atoms: C_14  and  C_15 
REMARK       I    between atoms: C_15  and  N_16 
ROOT
HETATM    1  H           1     -26.515  -6.817 -17.733  0.00  0.00     0.163 HD
HETATM    2  O           1     -27.127  -5.866 -20.659  0.00  0.00    -0.271 OA
HETATM    3  C           1     -26.502  -6.362 -19.751  0.00  0.00     0.249 C 
HETATM    4  N           1     -27.038  -6.403 -18.492  0.00  0.00    -0.344 N 
ENDROOT
BRANCH   3   5
HETATM    5  C           1     -25.129  -6.936 -20.005  0.00  0.00     0.283 C 
BRANCH   5   6
HETATM    6  C           1     -25.232  -8.074 -21.012  0.00  0.00     0.113 C 
BRANCH   6   7
HETATM    7  S           1     -24.000  -7.835 -22.323  0.00  0.00    -0.180 SA
HETATM    8  H           1     -24.505  -6.676 -22.780  0.00  0.00     0.101 HD
ENDBRANCH   6   7
ENDBRANCH   5   6
BRANCH   5   9
HETATM    9  N           1     -24.560  -7.456 -18.719  0.00  0.00    -0.066 N 
HETATM   10  H           1     -23.687  -6.932 -18.486  0.00  0.00     0.275 HD
HETATM   11  H           1     -25.258  -7.327 -17.952  0.00  0.00     0.275 HD
HETATM   12  H           1     -24.340  -8.473 -18.822  0.00  0.00     0.275 HD
ENDBRANCH   5   9
ENDBRANCH   3   5
BRANCH   4  13
HETATM   13  C           1     -28.357  -5.851 -18.249  0.00  0.00     0.189 C 
BRANCH  13  14
HETATM   14  C           1     -29.249  -6.923 -17.636  0.00  0.00     0.010 C 
HETATM   15  C           1     -30.482  -6.268 -17.027  0.00  0.00     0.012 C 
HETATM   16  C           1     -29.677  -7.906 -18.717  0.00  0.00     0.012 C 
ENDBRANCH  13  14
BRANCH  13  17
HETATM   17  C           1     -28.246  -4.685 -17.299  0.00  0.00     0.197 C 
HETATM   18  O           1     -28.836  -3.613 -17.553  0.00  0.00    -0.646 OA
HETATM   19  O           1     -27.564  -4.790 -16.256  0.00  0.00    -0.646 OA
ENDBRANCH  13  17
ENDBRANCH   4  13
TORSDOF 7
ENDMDL
MODEL 4
REMARK VINA RESULT:      -4.6     10.790     12.372
REMARK  7 active torsions:
REMARK  status: ('A' for Active; 'I' for Inactive)
REMARK    1  A    between atoms: C_2  and  C_14 
REMARK    2  A    between atoms: C_2  and  S_3 
REMARK    3  A    between atoms: N_4  and  C_14 
REMARK    4  A    between atoms: C_7  and  C_12 
REMARK    5  A    between atoms: C_12  and  C_19 
REMARK    6  A    between atoms: C_12  and  N_16 
REMARK    7  A    between atoms: C_14  and  C_15 
REMARK       I    between atoms: C_15  and  N_16 
ROOT
HETATM    1  H           1     -22.444  -6.152  -7.788  0.00  0.00     0.163 HD
HETATM    2  O           1     -21.814  -3.080  -7.715  0.00  0.00    -0.271 OA
HETATM    3  C           1     -22.309  -4.111  -8.103  0.00  0.00     0.249 C 
HETATM    4  N           1     -22.030  -5.288  -7.463  0.00  0.00    -0.344 N 
ENDROOT
BRANCH   3   5
HETATM    5  C           1     -23.235  -4.102  -9.295  0.00  0.00     0.283 C 
BRANCH   5   6
HETATM    6  C           1     -22.568  -3.370 -10.452  0.00  0.00     0.113 C 
BRANCH   6   7
HETATM    7  S           1     -21.115  -4.308 -11.003  0.00  0.00    -0.180 SA
HETATM    8  H           1     -21.324  -5.370 -10.206  0.00  0.00     0.101 HD
ENDBRANCH   6   7
ENDBRANCH   5   6
BRANCH   5   9
HETATM    9  N           1     -24.511  -3.401  -8.930  0.00  0.00    -0.066 N 
HETATM   10  H           1     -25.234  -3.590  -9.661  0.00  0.00     0.275 HD
HETATM   11  H           1     -24.850  -3.754  -8.007  0.00  0.00     0.275 HD
HETATM   12  H           1     -24.338  -2.373  -8.868  0.00  0.00     0.275 HD
ENDBRANCH   5   9
ENDBRANCH   3   5
BRANCH   4  13
HETATM   13  C           1     -21.140  -5.297  -6.318  0.00  0.00     0.189 C 
BRANCH  13  14
HETATM   14  C           1     -21.636  -6.313  -5.298  0.00  0.00     0.010 C 
HETATM   15  C           1     -21.098  -5.953  -3.920  0.00  0.00     0.012 C 
HETATM   16  C           1     -23.159  -6.299  -5.268  0.00  0.00     0.012 C 
ENDBRANCH  13  14
BRANCH  13  17
HETATM   17  C           1     -19.749  -5.672  -6.766  0.00  0.00     0.197 C 
HETATM   18  O           1     -18.913  -4.779  -7.023  0.00  0.00    -0.646 OA
HETATM   19  O           1     -19.432  -6.877  -6.880  0.00  0.00    -0.646 OA
ENDBRANCH  13  17
ENDBRANCH   4  13
TORSDOF 7
ENDMDL
MODEL 5
REMARK VINA RESULT:      -4.5     13.040     14.737
REMARK  7 active torsions:
REMARK  status: ('A' for Active; 'I' for Inactive)
REMARK    1  A    between atoms: C_2  and  C_14 
REMARK    2  A    between atoms: C_2  and  S_3 
REMARK    3  A    between atoms: N_4  and  C_14 
REMARK    4  A    between atoms: C_7  and  C_12 
REMARK    5  A    between atoms: C_12  and  C_19 
REMARK    6  A    between atoms: C_12  and  N_16 
REMARK    7  A    between atoms: C_14  and  C_15 
REMARK       I    between atoms: C_15  and  N_16 
ROOT
HETATM    1  H           1     -19.837  -6.781  -4.748  0.00  0.00     0.163 HD
HETATM    2  O           1     -22.735  -5.867  -5.526  0.00  0.00    -0.271 OA
HETATM    3  C           1     -21.529  -5.912  -5.565  0.00  0.00     0.249 C 
HETATM    4  N           1     -20.847  -6.744  -4.717  0.00  0.00    -0.344 N 
ENDROOT
BRANCH   3   5
HETATM    5  C           1     -20.772  -5.052  -6.547  0.00  0.00     0.283 C 
BRANCH   5   6
HETATM    6  C           1     -21.739  -4.101  -7.240  0.00  0.00     0.113 C 
BRANCH   6   7
HETATM    7  S           1     -21.693  -4.390  -9.031  0.00  0.00    -0.180 SA
HETATM    8  H           1     -20.954  -3.307  -9.329  0.00  0.00     0.101 HD
ENDBRANCH   6   7
ENDBRANCH   5   6
BRANCH   5   9
HETATM    9  N           1     -20.111  -5.925  -7.571  0.00  0.00    -0.066 N 
HETATM   10  H           1     -20.692  -6.779  -7.729  0.00  0.00     0.275 HD
HETATM   11  H           1     -20.015  -5.399  -8.468  0.00  0.00     0.275 HD
HETATM   12  H           1     -19.164  -6.207  -7.229  0.00  0.00     0.275 HD
ENDBRANCH   5   9
ENDBRANCH   3   5
BRANCH   4  13
HETATM   13  C           1     -21.574  -7.570  -3.773  0.00  0.00     0.189 C 
BRANCH  13  14
HETATM   14  C           1     -20.906  -8.935  -3.676  0.00  0.00     0.010 C 
HETATM   15  C           1     -21.935 -10.024  -3.950  0.00  0.00     0.012 C 
HETATM   16  C           1     -19.785  -9.026  -4.702  0.00  0.00     0.012 C 
ENDBRANCH  13  14
BRANCH  13  17
HETATM   17  C           1     -21.569  -6.909  -2.417  0.00  0.00     0.197 C 
HETATM   18  O           1     -20.859  -7.372  -1.499  0.00  0.00    -0.646 OA
HETATM   19  O           1     -22.274  -5.897  -2.212  0.00  0.00    -0.646 OA
ENDBRANCH  13  17
ENDBRANCH   4  13
TORSDOF 7
ENDMDL
MODEL 6
REMARK VINA RESULT:      -4.4     15.286     16.860
REMARK  7 active torsions:
REMARK  status: ('A' for Active; 'I' for Inactive)
REMARK    1  A    between atoms: C_2  and  C_14 
REMARK    2  A    between atoms: C_2  and  S_3 
REMARK    3  A    between atoms: N_4  and  C_14 
REMARK    4  A    between atoms: C_7  and  C_12 
REMARK    5  A    between atoms: C_12  and  C_19 
REMARK    6  A    between atoms: C_12  and  N_16 
REMARK    7  A    between atoms: C_14  and  C_15 
REMARK       I    between atoms: C_15  and  N_16 
ROOT
HETATM    1  H           1     -22.370  -8.423  -3.147  0.00  0.00     0.163 HD
HETATM    2  O           1     -19.308  -9.003  -2.786  0.00  0.00    -0.271 OA
HETATM    3  C           1     -20.328  -8.692  -3.353  0.00  0.00     0.249 C 
HETATM    4  N           1     -21.516  -8.683  -2.671  0.00  0.00    -0.344 N 
ENDROOT
BRANCH   3   5
HETATM    5  C           1     -20.294  -8.315  -4.814  0.00  0.00     0.283 C 
BRANCH   5   6
HETATM    6  C           1     -21.476  -7.407  -5.132  0.00  0.00     0.113 C 
BRANCH   6   7
HETATM    7  S           1     -20.898  -5.693  -5.286  0.00  0.00    -0.180 SA
HETATM    8  H           1     -22.002  -5.127  -4.766  0.00  0.00     0.101 HD
ENDBRANCH   6   7
ENDBRANCH   5   6
BRANCH   5   9
HETATM    9  N           1     -20.378  -9.555  -5.652  0.00  0.00    -0.066 N 
HETATM   10  H           1     -19.428  -9.981  -5.742  0.00  0.00     0.275 HD
HETATM   11  H           1     -21.023 -10.240  -5.197  0.00  0.00     0.275 HD
HETATM   12  H           1     -20.741  -9.311  -6.601  0.00  0.00     0.275 HD
ENDBRANCH   5   9
ENDBRANCH   3   5
BRANCH   4  13
HETATM   13  C           1     -21.548  -9.046  -1.268  0.00  0.00     0.189 C 
BRANCH  13  14
HETATM   14  C           1     -22.427  -8.060  -0.510  0.00  0.00     0.010 C 
HETATM   15  C           1     -21.991  -8.010   0.949  0.00  0.00     0.012 C 
HETATM   16  C           1     -22.286  -6.675  -1.129  0.00  0.00     0.012 C 
ENDBRANCH  13  14
BRANCH  13  17
HETATM   17  C           1     -22.112 -10.437  -1.122  0.00  0.00     0.197 C 
HETATM   18  O           1     -23.348 -10.617  -1.141  0.00  0.00    -0.646 OA
HETATM   19  O           1     -21.341 -11.412  -0.981  0.00  0.00    -0.646 OA
ENDBRANCH  13  17
ENDBRANCH   4  13
TORSDOF 7
ENDMDL
MODEL 7
REMARK VINA RESULT:      -4.4     15.794     17.412
REMARK  7 active torsions:
REMARK  status: ('A' for Active; 'I' for Inactive)
REMARK    1  A    between atoms: C_2  and  C_14 
REMARK    2  A    between atoms: C_2  and  S_3 
REMARK    3  A    between atoms: N_4  and  C_14 
REMARK    4  A    between atoms: C_7  and  C_12 
REMARK    5  A    between atoms: C_12  and  C_19 
REMARK    6  A    between atoms: C_12  and  N_16 
REMARK    7  A    between atoms: C_14  and  C_15 
REMARK       I    between atoms: C_15  and  N_16 
ROOT
HETATM    1  H           1     -22.418  -8.374  -2.426  0.00  0.00     0.163 HD
HETATM    2  O           1     -19.663  -9.808  -1.982  0.00  0.00    -0.271 OA
HETATM    3  C           1     -20.487  -9.112  -2.527  0.00  0.00     0.249 C 
HETATM    4  N           1     -21.728  -8.956  -1.970  0.00  0.00    -0.344 N 
ENDROOT
BRANCH   3   5
HETATM    5  C           1     -20.149  -8.418  -3.823  0.00  0.00     0.283 C 
BRANCH   5   6
HETATM    6  C           1     -21.363  -8.440  -4.744  0.00  0.00     0.113 C 
BRANCH   6   7
HETATM    7  S           1     -21.961  -6.746  -4.999  0.00  0.00    -0.180 SA
HETATM    8  H           1     -21.011  -6.394  -5.883  0.00  0.00     0.101 HD
ENDBRANCH   6   7
ENDBRANCH   5   6
BRANCH   5   9
HETATM    9  N           1     -19.006  -9.126  -4.487  0.00  0.00    -0.066 N 
HETATM   10  H           1     -18.205  -9.197  -3.820  0.00  0.00     0.275 HD
HETATM   11  H           1     -19.309 -10.086  -4.770  0.00  0.00     0.275 HD
HETATM   12  H           1     -18.709  -8.590  -5.334  0.00  0.00     0.275 HD
ENDBRANCH   5   9
ENDBRANCH   3   5
BRANCH   4  13
HETATM   13  C           1     -22.052  -9.624  -0.724  0.00  0.00     0.189 C 
BRANCH  13  14
HETATM   14  C           1     -22.353  -8.583   0.346  0.00  0.00     0.010 C 
HETATM   15  C           1     -21.192  -8.515   1.328  0.00  0.00     0.012 C 
HETATM   16  C           1     -22.543  -7.222  -0.310  0.00  0.00     0.012 C 
ENDBRANCH  13  14
BRANCH  13  17
HETATM   17  C           1     -23.261 -10.503  -0.926  0.00  0.00     0.197 C 
HETATM   18  O           1     -24.108 -10.620  -0.014  0.00  0.00    -0.646 OA
HETATM   19  O           1     -23.417 -11.114  -2.006  0.00  0.00    -0.646 OA
ENDBRANCH  13  17
ENDBRANCH   4  13
TORSDOF 7
ENDMDL
MODEL 8
REMARK VINA RESULT:      -4.4      3.714      5.297
REMARK  7 active torsions:
REMARK  status: ('A' for Active; 'I' for Inactive)
REMARK    1  A    between atoms: C_2  and  C_14 
REMARK    2  A    between atoms: C_2  and  S_3 
REMARK    3  A    between atoms: N_4  and  C_14 
REMARK    4  A    between atoms: C_7  and  C_12 
REMARK    5  A    between atoms: C_12  and  C_19 
REMARK    6  A    between atoms: C_12  and  N_16 
REMARK    7  A    between atoms: C_14  and  C_15 
REMARK       I    between atoms: C_15  and  N_16 
ROOT
HETATM    1  H           1     -28.935  -6.168 -17.454  0.00  0.00     0.163 HD
HETATM    2  O           1     -27.676  -3.419 -16.617  0.00  0.00    -0.271 OA
HETATM    3  C           1     -28.543  -4.219 -16.880  0.00  0.00     0.249 C 
HETATM    4  N           1     -28.209  -5.499 -17.232  0.00  0.00    -0.344 N 
ENDROOT
BRANCH   3   5
HETATM    5  C           1     -29.993  -3.806 -16.823  0.00  0.00     0.283 C 
BRANCH   5   6
HETATM    6  C           1     -30.873  -4.985 -17.216  0.00  0.00     0.113 C 
BRANCH   6   7
HETATM    7  S           1     -32.568  -4.694 -16.635  0.00  0.00    -0.180 SA
HETATM    8  H           1     -32.863  -3.740 -17.535  0.00  0.00     0.101 HD
ENDBRANCH   6   7
ENDBRANCH   5   6
BRANCH   5   9
HETATM    9  N           1     -30.226  -2.669 -17.774  0.00  0.00    -0.066 N 
HETATM   10  H           1     -29.482  -1.947 -17.645  0.00  0.00     0.275 HD
HETATM   11  H           1     -30.198  -3.026 -18.756  0.00  0.00     0.275 HD
HETATM   12  H           1     -31.162  -2.244 -17.584  0.00  0.00     0.275 HD
ENDBRANCH   5   9
ENDBRANCH   3   5
BRANCH   4  13
HETATM   13  C           1     -26.816  -5.896 -17.288  0.00  0.00     0.189 C 
BRANCH  13  14
HETATM   14  C           1     -26.574  -7.037 -16.308  0.00  0.00     0.010 C 
HETATM   15  C           1     -25.378  -6.703 -15.427  0.00  0.00     0.012 C 
HETATM   16  C           1     -27.809  -7.227 -15.437  0.00  0.00     0.012 C 
ENDBRANCH  13  14
BRANCH  13  17
HETATM   17  C           1     -26.478  -6.353 -18.685  0.00  0.00     0.197 C 
HETATM   18  O           1     -25.289  -6.565 -19.004  0.00  0.00    -0.646 OA
HETATM   19  O           1     -27.390  -6.520 -19.526  0.00  0.00    -0.646 OA
ENDBRANCH  13  17
ENDBRANCH   4  13
TORSDOF 7
ENDMDL
MODEL 9
REMARK VINA RESULT:      -4.3      2.520      3.115
REMARK  7 active torsions:
REMARK  status: ('A' for Active; 'I' for Inactive)
REMARK    1  A    between atoms: C_2  and  C_14 
REMARK    2  A    between atoms: C_2  and  S_3 
REMARK    3  A    between atoms: N_4  and  C_14 
REMARK    4  A    between atoms: C_7  and  C_12 
REMARK    5  A    between atoms: C_12  and  C_19 
REMARK    6  A    between atoms: C_12  and  N_16 
REMARK    7  A    between atoms: C_14  and  C_15 
REMARK       I    between atoms: C_15  and  N_16 
ROOT
HETATM    1  H           1     -27.374  -7.060 -17.791  0.00  0.00     0.163 HD
HETATM    2  O           1     -27.028  -5.696 -20.595  0.00  0.00    -0.271 OA
HETATM    3  C           1     -26.795  -6.454 -19.683  0.00  0.00     0.249 C 
HETATM    4  N           1     -27.570  -6.427 -18.555  0.00  0.00    -0.344 N 
ENDROOT
BRANCH   3   5
HETATM    5  C           1     -25.648  -7.428 -19.786  0.00  0.00     0.283 C 
BRANCH   5   6
HETATM    6  C           1     -24.400  -6.813 -19.166  0.00  0.00     0.113 C 
BRANCH   6   7
HETATM    7  S           1     -24.347  -7.206 -17.395  0.00  0.00    -0.180 SA
HETATM    8  H           1     -23.677  -8.364 -17.528  0.00  0.00     0.101 HD
ENDBRANCH   6   7
ENDBRANCH   5   6
BRANCH   5   9
HETATM    9  N           1     -25.386  -7.740 -21.230  0.00  0.00    -0.066 N 
HETATM   10  H           1     -25.351  -6.852 -21.779  0.00  0.00     0.275 HD
HETATM   11  H           1     -24.471  -8.239 -21.318  0.00  0.00     0.275 HD
HETATM   12  H           1     -26.151  -8.348 -21.599  0.00  0.00     0.275 HD
ENDBRANCH   5   9
ENDBRANCH   3   5
BRANCH   4  13
HETATM   13  C           1     -28.673  -5.490 -18.456  0.00  0.00     0.189 C 
BRANCH  13  14
HETATM   14  C           1     -29.918  -6.222 -17.975  0.00  0.00     0.010 C 
HETATM   15  C           1     -29.893  -7.656 -18.487  0.00  0.00     0.012 C 
HETATM   16  C           1     -29.947  -6.227 -16.452  0.00  0.00     0.012 C 
ENDBRANCH  13  14
BRANCH  13  17
HETATM   17  C           1     -28.319  -4.400 -17.474  0.00  0.00     0.197 C 
HETATM   18  O           1     -27.388  -4.571 -16.658  0.00  0.00    -0.646 OA
HETATM   19  O           1     -28.957  -3.325 -17.477  0.00  0.00    -0.646 OA
ENDBRANCH  13  17
ENDBRANCH   4  13
TORSDOF 7
ENDMDL
