MODEL 1
REMARK VINA RESULT:      -6.9      0.000      0.000
REMARK  10 active torsions:
REMARK  status: ('A' for Active; 'I' for Inactive)
REMARK    1  A    between atoms: C_5  and  C_14 
REMARK    2  A    between atoms: C_7  and  C_15 
REMARK       I    between atoms: C_12  and  N_26 
REMARK    3  A    between atoms: C_12  and  C_13 
REMARK    4  A    between atoms: C_13  and  C_14 
REMARK    5  A    between atoms: C_13  and  N_27 
REMARK    6  A    between atoms: C_15  and  C_25 
REMARK    7  A    between atoms: C_15  and  N_26 
REMARK       I    between atoms: N_17  and  C_18 
REMARK       I    between atoms: C_18  and  N_19 
REMARK    8  A    between atoms: N_20  and  C_21 
REMARK    9  A    between atoms: C_21  and  C_22 
REMARK   10  A    between atoms: C_22  and  C_25 
ROOT
HETATM    1  C           1     -35.749  -0.369 -11.480  0.00  0.00     0.185 C 
ENDROOT
BRANCH   1   2
HETATM    2  C           1     -36.747   0.058 -10.431  0.00  0.00     0.196 C 
HETATM    3  O           1     -36.447  -0.011  -9.220  0.00  0.00    -0.646 OA
HETATM    4  O           1     -37.872   0.480 -10.775  0.00  0.00    -0.646 OA
ENDBRANCH   1   2
BRANCH   1   5
HETATM    5  C           1     -36.303  -0.057 -12.865  0.00  0.00     0.038 C 
BRANCH   5   6
HETATM    6  C           1     -35.299   0.791 -13.634  0.00  0.00     0.023 C 
BRANCH   6   7
HETATM    7  C           1     -35.497   0.585 -15.129  0.00  0.00     0.138 C 
BRANCH   7   8
HETATM    8  N           1     -34.889  -0.692 -15.532  0.00  0.00    -0.227 N 
HETATM    9  H           1     -34.082  -1.085 -14.986  0.00  0.00     0.177 HD
HETATM   10  C           1     -35.339  -1.318 -16.536  0.00  0.00     0.665 C 
HETATM   11  N           1     -34.802  -2.447 -16.893  0.00  0.00    -0.235 N 
HETATM   12  N           1     -36.312  -0.844 -17.193  0.00  0.00    -0.235 N 
HETATM   13  H           1     -35.173  -2.963 -17.722  0.00  0.00     0.174 HD
HETATM   14  H           1     -33.999  -2.838 -16.350  0.00  0.00     0.174 HD
HETATM   15  H           1     -36.685  -1.363 -18.027  0.00  0.00     0.174 HD
HETATM   16  H           1     -36.745   0.068 -16.905  0.00  0.00     0.174 HD
ENDBRANCH   7   8
ENDBRANCH   6   7
ENDBRANCH   5   6
ENDBRANCH   1   5
BRANCH   1  17
HETATM   17  N           1     -35.508  -1.794 -11.366  0.00  0.00    -0.345 N 
HETATM   18  H           1     -36.228  -2.452 -11.635  0.00  0.00     0.163 HD
HETATM   19  C           1     -34.306  -2.248 -10.895  0.00  0.00     0.249 C 
HETATM   20  O           1     -33.446  -1.463 -10.574  0.00  0.00    -0.271 OA
BRANCH  19  21
HETATM   21  C           1     -34.054  -3.732 -10.776  0.00  0.00     0.284 C 
BRANCH  21  22
HETATM   22  C           1     -33.316  -4.224 -12.014  0.00  0.00     0.155 C 
BRANCH  22  23
HETATM   23  C           1     -34.272  -4.283 -13.180  0.00  0.00     0.175 C 
HETATM   24  O           1     -34.319  -3.339 -13.997  0.00  0.00    -0.648 OA
HETATM   25  O           1     -35.016  -5.277 -13.330  0.00  0.00    -0.648 OA
ENDBRANCH  22  23
ENDBRANCH  21  22
BRANCH  21  26
HETATM   26  N           1     -35.365  -4.452 -10.657  0.00  0.00    -0.066 N 
HETATM   27  H           1     -35.324  -5.122  -9.857  0.00  0.00     0.275 HD
HETATM   28  H           1     -36.129  -3.758 -10.493  0.00  0.00     0.275 HD
HETATM   29  H           1     -35.555  -4.977 -11.541  0.00  0.00     0.275 HD
ENDBRANCH  21  26
ENDBRANCH  19  21
ENDBRANCH   1  17
TORSDOF 10
ENDMDL
MODEL 2
REMARK VINA RESULT:      -6.9      8.842     10.826
REMARK  10 active torsions:
REMARK  status: ('A' for Active; 'I' for Inactive)
REMARK    1  A    between atoms: C_5  and  C_14 
REMARK    2  A    between atoms: C_7  and  C_15 
REMARK       I    between atoms: C_12  and  N_26 
REMARK    3  A    between atoms: C_12  and  C_13 
REMARK    4  A    between atoms: C_13  and  C_14 
REMARK    5  A    between atoms: C_13  and  N_27 
REMARK    6  A    between atoms: C_15  and  C_25 
REMARK    7  A    between atoms: C_15  and  N_26 
REMARK       I    between atoms: N_17  and  C_18 
REMARK       I    between atoms: C_18  and  N_19 
REMARK    8  A    between atoms: N_20  and  C_21 
REMARK    9  A    between atoms: C_21  and  C_22 
REMARK   10  A    between atoms: C_22  and  C_25 
ROOT
HETATM    1  C           1     -27.303  -5.906 -16.507  0.00  0.00     0.185 C 
ENDROOT
BRANCH   1   2
HETATM    2  C           1     -28.190  -7.041 -16.059  0.00  0.00     0.196 C 
HETATM    3  O           1     -27.965  -7.621 -14.975  0.00  0.00    -0.646 OA
HETATM    4  O           1     -29.151  -7.402 -16.773  0.00  0.00    -0.646 OA
ENDBRANCH   1   2
BRANCH   1   5
HETATM    5  C           1     -28.094  -4.604 -16.488  0.00  0.00     0.038 C 
BRANCH   5   6
HETATM    6  C           1     -28.835  -4.441 -17.808  0.00  0.00     0.023 C 
BRANCH   6   7
HETATM    7  C           1     -30.160  -3.733 -17.565  0.00  0.00     0.138 C 
BRANCH   7   8
HETATM    8  N           1     -31.134  -4.688 -17.019  0.00  0.00    -0.227 N 
HETATM    9  H           1     -30.807  -5.611 -16.637  0.00  0.00     0.177 HD
HETATM   10  C           1     -32.366  -4.400 -17.008  0.00  0.00     0.665 C 
HETATM   11  N           1     -33.228  -5.245 -16.525  0.00  0.00    -0.235 N 
HETATM   12  N           1     -32.760  -3.288 -17.468  0.00  0.00    -0.235 N 
HETATM   13  H           1     -34.246  -5.007 -16.516  0.00  0.00     0.174 HD
HETATM   14  H           1     -32.904  -6.163 -16.145  0.00  0.00     0.174 HD
HETATM   15  H           1     -33.782  -3.048 -17.459  0.00  0.00     0.174 HD
HETATM   16  H           1     -32.064  -2.605 -17.858  0.00  0.00     0.174 HD
ENDBRANCH   7   8
ENDBRANCH   6   7
ENDBRANCH   5   6
ENDBRANCH   1   5
BRANCH   1  17
HETATM   17  N           1     -26.830  -6.164 -17.853  0.00  0.00    -0.345 N 
HETATM   18  H           1     -27.469  -6.092 -18.635  0.00  0.00     0.163 HD
HETATM   19  C           1     -25.522  -6.505 -18.065  0.00  0.00     0.249 C 
HETATM   20  O           1     -24.760  -6.591 -17.132  0.00  0.00    -0.271 OA
BRANCH  19  21
HETATM   21  C           1     -25.030  -6.774 -19.467  0.00  0.00     0.284 C 
BRANCH  21  22
HETATM   22  C           1     -26.218  -6.843 -20.418  0.00  0.00     0.155 C 
BRANCH  22  23
HETATM   23  C           1     -26.034  -8.000 -21.370  0.00  0.00     0.175 C 
HETATM   24  O           1     -25.024  -8.050 -22.104  0.00  0.00    -0.648 OA
HETATM   25  O           1     -26.892  -8.909 -21.422  0.00  0.00    -0.648 OA
ENDBRANCH  22  23
ENDBRANCH  21  22
BRANCH  21  26
HETATM   26  N           1     -24.292  -8.081 -19.494  0.00  0.00    -0.066 N 
HETATM   27  H           1     -24.842  -8.779 -20.044  0.00  0.00     0.275 HD
HETATM   28  H           1     -23.358  -7.942 -19.941  0.00  0.00     0.275 HD
HETATM   29  H           1     -24.165  -8.428 -18.518  0.00  0.00     0.275 HD
ENDBRANCH  21  26
ENDBRANCH  19  21
ENDBRANCH   1  17
TORSDOF 10
ENDMDL
MODEL 3
REMARK VINA RESULT:      -6.6      2.507      6.053
REMARK  10 active torsions:
REMARK  status: ('A' for Active; 'I' for Inactive)
REMARK    1  A    between atoms: C_5  and  C_14 
REMARK    2  A    between atoms: C_7  and  C_15 
REMARK       I    between atoms: C_12  and  N_26 
REMARK    3  A    between atoms: C_12  and  C_13 
REMARK    4  A    between atoms: C_13  and  C_14 
REMARK    5  A    between atoms: C_13  and  N_27 
REMARK    6  A    between atoms: C_15  and  C_25 
REMARK    7  A    between atoms: C_15  and  N_26 
REMARK       I    between atoms: N_17  and  C_18 
REMARK       I    between atoms: C_18  and  N_19 
REMARK    8  A    between atoms: N_20  and  C_21 
REMARK    9  A    between atoms: C_21  and  C_22 
REMARK   10  A    between atoms: C_22  and  C_25 
ROOT
HETATM    1  C           1     -34.717  -2.835 -11.859  0.00  0.00     0.185 C 
ENDROOT
BRANCH   1   2
HETATM    2  C           1     -33.607  -2.434 -10.918  0.00  0.00     0.196 C 
HETATM    3  O           1     -33.856  -1.706  -9.933  0.00  0.00    -0.646 OA
HETATM    4  O           1     -32.440  -2.830 -11.125  0.00  0.00    -0.646 OA
ENDBRANCH   1   2
BRANCH   1   5
HETATM    5  C           1     -34.277  -4.042 -12.679  0.00  0.00     0.038 C 
BRANCH   5   6
HETATM    6  C           1     -34.958  -5.294 -12.142  0.00  0.00     0.023 C 
BRANCH   6   7
HETATM    7  C           1     -34.390  -5.634 -10.771  0.00  0.00     0.138 C 
BRANCH   7   8
HETATM    8  N           1     -33.713  -6.938 -10.830  0.00  0.00    -0.227 N 
HETATM    9  H           1     -32.851  -7.056 -11.419  0.00  0.00     0.177 HD
HETATM   10  C           1     -34.169  -7.918 -10.171  0.00  0.00     0.665 C 
HETATM   11  N           1     -33.570  -9.071 -10.223  0.00  0.00    -0.235 N 
HETATM   12  N           1     -35.207  -7.775  -9.462  0.00  0.00    -0.235 N 
HETATM   13  H           1     -33.946  -9.880  -9.679  0.00  0.00     0.174 HD
HETATM   14  H           1     -32.713  -9.189 -10.809  0.00  0.00     0.174 HD
HETATM   15  H           1     -35.586  -8.588  -8.915  0.00  0.00     0.174 HD
HETATM   16  H           1     -35.691  -6.844  -9.420  0.00  0.00     0.174 HD
ENDBRANCH   7   8
ENDBRANCH   6   7
ENDBRANCH   5   6
ENDBRANCH   1   5
BRANCH   1  17
HETATM   17  N           1     -35.019  -1.731 -12.749  0.00  0.00    -0.345 N 
HETATM   18  H           1     -34.420  -1.544 -13.544  0.00  0.00     0.163 HD
HETATM   19  C           1     -36.112  -0.943 -12.515  0.00  0.00     0.249 C 
HETATM   20  O           1     -36.827  -1.166 -11.566  0.00  0.00    -0.271 OA
BRANCH  19  21
HETATM   21  C           1     -36.426   0.208 -13.441  0.00  0.00     0.284 C 
BRANCH  21  22
HETATM   22  C           1     -37.154  -0.315 -14.672  0.00  0.00     0.155 C 
BRANCH  22  23
HETATM   23  C           1     -36.158  -0.571 -15.776  0.00  0.00     0.175 C 
HETATM   24  O           1     -36.103   0.199 -16.759  0.00  0.00    -0.648 OA
HETATM   25  O           1     -35.386  -1.553 -15.707  0.00  0.00    -0.648 OA
ENDBRANCH  22  23
ENDBRANCH  21  22
BRANCH  21  26
HETATM   26  N           1     -35.148   0.872 -13.862  0.00  0.00    -0.066 N 
HETATM   27  H           1     -35.014   1.749 -13.310  0.00  0.00     0.275 HD
HETATM   28  H           1     -34.347   0.224 -13.688  0.00  0.00     0.275 HD
HETATM   29  H           1     -35.196   1.104 -14.879  0.00  0.00     0.275 HD
ENDBRANCH  21  26
ENDBRANCH  19  21
ENDBRANCH   1  17
TORSDOF 10
ENDMDL
MODEL 4
REMARK VINA RESULT:      -6.4      1.971      4.806
REMARK  10 active torsions:
REMARK  status: ('A' for Active; 'I' for Inactive)
REMARK    1  A    between atoms: C_5  and  C_14 
REMARK    2  A    between atoms: C_7  and  C_15 
REMARK       I    between atoms: C_12  and  N_26 
REMARK    3  A    between atoms: C_12  and  C_13 
REMARK    4  A    between atoms: C_13  and  C_14 
REMARK    5  A    between atoms: C_13  and  N_27 
REMARK    6  A    between atoms: C_15  and  C_25 
REMARK    7  A    between atoms: C_15  and  N_26 
REMARK       I    between atoms: N_17  and  C_18 
REMARK       I    between atoms: C_18  and  N_19 
REMARK    8  A    between atoms: N_20  and  C_21 
REMARK    9  A    between atoms: C_21  and  C_22 
REMARK   10  A    between atoms: C_22  and  C_25 
ROOT
HETATM    1  C           1     -36.636  -0.888 -11.238  0.00  0.00     0.185 C 
ENDROOT
BRANCH   1   2
HETATM    2  C           1     -36.918   0.142 -10.172  0.00  0.00     0.196 C 
HETATM    3  O           1     -37.901   0.905 -10.283  0.00  0.00    -0.646 OA
HETATM    4  O           1     -36.167   0.231  -9.176  0.00  0.00    -0.646 OA
ENDBRANCH   1   2
BRANCH   1   5
HETATM    5  C           1     -35.669  -1.932 -10.695  0.00  0.00     0.038 C 
BRANCH   5   6
HETATM    6  C           1     -34.370  -1.883 -11.489  0.00  0.00     0.023 C 
BRANCH   6   7
HETATM    7  C           1     -33.320  -2.743 -10.801  0.00  0.00     0.138 C 
BRANCH   7   8
HETATM    8  N           1     -33.830  -4.113 -10.649  0.00  0.00    -0.227 N 
HETATM    9  H           1     -34.601  -4.313  -9.964  0.00  0.00     0.177 HD
HETATM   10  C           1     -33.340  -5.051 -11.343  0.00  0.00     0.665 C 
HETATM   11  N           1     -33.791  -6.263 -11.208  0.00  0.00    -0.235 N 
HETATM   12  N           1     -32.411  -4.810 -12.167  0.00  0.00    -0.235 N 
HETATM   13  H           1     -33.387  -7.038 -11.781  0.00  0.00     0.174 HD
HETATM   14  H           1     -34.559  -6.463 -10.527  0.00  0.00     0.174 HD
HETATM   15  H           1     -32.004  -5.588 -12.743  0.00  0.00     0.174 HD
HETATM   16  H           1     -32.046  -3.831 -12.276  0.00  0.00     0.174 HD
ENDBRANCH   7   8
ENDBRANCH   6   7
ENDBRANCH   5   6
ENDBRANCH   1   5
BRANCH   1  17
HETATM   17  N           1     -36.047  -0.239 -12.393  0.00  0.00    -0.345 N 
HETATM   18  H           1     -35.136   0.195 -12.319  0.00  0.00     0.163 HD
HETATM   19  C           1     -36.724  -0.213 -13.582  0.00  0.00     0.249 C 
HETATM   20  O           1     -37.812  -0.730 -13.671  0.00  0.00    -0.271 OA
BRANCH  19  21
HETATM   21  C           1     -36.111   0.464 -14.785  0.00  0.00     0.284 C 
BRANCH  21  22
HETATM   22  C           1     -36.284  -0.423 -16.011  0.00  0.00     0.155 C 
BRANCH  22  23
HETATM   23  C           1     -35.259  -1.529 -15.982  0.00  0.00     0.175 C 
HETATM   24  O           1     -34.653  -1.847 -17.028  0.00  0.00    -0.648 OA
HETATM   25  O           1     -35.013  -2.127 -14.911  0.00  0.00    -0.648 OA
ENDBRANCH  22  23
ENDBRANCH  21  22
BRANCH  21  26
HETATM   26  N           1     -34.648   0.692 -14.537  0.00  0.00    -0.066 N 
HETATM   27  H           1     -34.526   1.232 -13.651  0.00  0.00     0.275 HD
HETATM   28  H           1     -34.163  -0.229 -14.455  0.00  0.00     0.275 HD
HETATM   29  H           1     -34.241   1.232 -15.333  0.00  0.00     0.275 HD
ENDBRANCH  21  26
ENDBRANCH  19  21
ENDBRANCH   1  17
TORSDOF 10
ENDMDL
MODEL 5
REMARK VINA RESULT:      -6.4      9.255     11.571
REMARK  10 active torsions:
REMARK  status: ('A' for Active; 'I' for Inactive)
REMARK    1  A    between atoms: C_5  and  C_14 
REMARK    2  A    between atoms: C_7  and  C_15 
REMARK       I    between atoms: C_12  and  N_26 
REMARK    3  A    between atoms: C_12  and  C_13 
REMARK    4  A    between atoms: C_13  and  C_14 
REMARK    5  A    between atoms: C_13  and  N_27 
REMARK    6  A    between atoms: C_15  and  C_25 
REMARK    7  A    between atoms: C_15  and  N_26 
REMARK       I    between atoms: N_17  and  C_18 
REMARK       I    between atoms: C_18  and  N_19 
REMARK    8  A    between atoms: N_20  and  C_21 
REMARK    9  A    between atoms: C_21  and  C_22 
REMARK   10  A    between atoms: C_22  and  C_25 
ROOT
HETATM    1  C           1     -26.667  -6.238 -16.886  0.00  0.00     0.185 C 
ENDROOT
BRANCH   1   2
HETATM    2  C           1     -25.517  -6.533 -15.954  0.00  0.00     0.196 C 
HETATM    3  O           1     -25.273  -7.711 -15.616  0.00  0.00    -0.646 OA
HETATM    4  O           1     -24.808  -5.598 -15.522  0.00  0.00    -0.646 OA
ENDBRANCH   1   2
BRANCH   1   5
HETATM    5  C           1     -27.881  -7.059 -16.470  0.00  0.00     0.038 C 
BRANCH   5   6
HETATM    6  C           1     -28.869  -6.167 -15.731  0.00  0.00     0.023 C 
BRANCH   6   7
HETATM    7  C           1     -30.190  -6.134 -16.487  0.00  0.00     0.138 C 
BRANCH   7   8
HETATM    8  N           1     -30.283  -4.884 -17.256  0.00  0.00    -0.227 N 
HETATM    9  H           1     -29.503  -4.605 -17.902  0.00  0.00     0.177 HD
HETATM   10  C           1     -31.304  -4.145 -17.140  0.00  0.00     0.665 C 
HETATM   11  N           1     -31.387  -3.040 -17.820  0.00  0.00    -0.235 N 
HETATM   12  N           1     -32.244  -4.481 -16.362  0.00  0.00    -0.235 N 
HETATM   13  H           1     -32.230  -2.429 -17.724  0.00  0.00     0.174 HD
HETATM   14  H           1     -30.611  -2.762 -18.463  0.00  0.00     0.174 HD
HETATM   15  H           1     -33.091  -3.868 -16.265  0.00  0.00     0.174 HD
HETATM   16  H           1     -32.177  -5.374 -15.812  0.00  0.00     0.174 HD
ENDBRANCH   7   8
ENDBRANCH   6   7
ENDBRANCH   5   6
ENDBRANCH   1   5
BRANCH   1  17
HETATM   17  N           1     -26.291  -6.584 -18.242  0.00  0.00    -0.345 N 
HETATM   18  H           1     -25.472  -7.154 -18.410  0.00  0.00     0.163 HD
HETATM   19  C           1     -27.044  -6.138 -19.295  0.00  0.00     0.249 C 
HETATM   20  O           1     -28.021  -5.457 -19.095  0.00  0.00    -0.271 OA
BRANCH  19  21
HETATM   21  C           1     -26.652  -6.498 -20.708  0.00  0.00     0.284 C 
BRANCH  21  22
HETATM   22  C           1     -26.243  -7.964 -20.765  0.00  0.00     0.155 C 
BRANCH  22  23
HETATM   23  C           1     -24.831  -8.072 -21.286  0.00  0.00     0.175 C 
HETATM   24  O           1     -24.624  -8.169 -22.515  0.00  0.00    -0.648 OA
HETATM   25  O           1     -23.868  -8.064 -20.489  0.00  0.00    -0.648 OA
ENDBRANCH  22  23
ENDBRANCH  21  22
BRANCH  21  26
HETATM   26  N           1     -25.499  -5.640 -21.140  0.00  0.00    -0.066 N 
HETATM   27  H           1     -25.181  -5.937 -22.090  0.00  0.00     0.275 HD
HETATM   28  H           1     -25.802  -4.641 -21.170  0.00  0.00     0.275 HD
HETATM   29  H           1     -24.713  -5.747 -20.460  0.00  0.00     0.275 HD
ENDBRANCH  21  26
ENDBRANCH  19  21
ENDBRANCH   1  17
TORSDOF 10
ENDMDL
MODEL 6
REMARK VINA RESULT:      -6.2      2.132      4.440
REMARK  10 active torsions:
REMARK  status: ('A' for Active; 'I' for Inactive)
REMARK    1  A    between atoms: C_5  and  C_14 
REMARK    2  A    between atoms: C_7  and  C_15 
REMARK       I    between atoms: C_12  and  N_26 
REMARK    3  A    between atoms: C_12  and  C_13 
REMARK    4  A    between atoms: C_13  and  C_14 
REMARK    5  A    between atoms: C_13  and  N_27 
REMARK    6  A    between atoms: C_15  and  C_25 
REMARK    7  A    between atoms: C_15  and  N_26 
REMARK       I    between atoms: N_17  and  C_18 
REMARK       I    between atoms: C_18  and  N_19 
REMARK    8  A    between atoms: N_20  and  C_21 
REMARK    9  A    between atoms: C_21  and  C_22 
REMARK   10  A    between atoms: C_22  and  C_25 
ROOT
HETATM    1  C           1     -34.670  -2.157 -11.689  0.00  0.00     0.185 C 
ENDROOT
BRANCH   1   2
HETATM    2  C           1     -34.675  -1.574 -10.297  0.00  0.00     0.196 C 
HETATM    3  O           1     -35.711  -1.040  -9.847  0.00  0.00    -0.646 OA
HETATM    4  O           1     -33.641  -1.624  -9.595  0.00  0.00    -0.646 OA
ENDBRANCH   1   2
BRANCH   1   5
HETATM    5  C           1     -33.430  -3.023 -11.873  0.00  0.00     0.038 C 
BRANCH   5   6
HETATM    6  C           1     -33.840  -4.488 -11.940  0.00  0.00     0.023 C 
BRANCH   6   7
HETATM    7  C           1     -34.586  -4.749 -13.240  0.00  0.00     0.138 C 
BRANCH   7   8
HETATM    8  N           1     -33.877  -4.100 -14.352  0.00  0.00    -0.227 N 
HETATM    9  H           1     -33.256  -3.273 -14.167  0.00  0.00     0.177 HD
HETATM   10  C           1     -34.014  -4.537 -15.532  0.00  0.00     0.665 C 
HETATM   11  N           1     -33.386  -3.963 -16.515  0.00  0.00    -0.235 N 
HETATM   12  N           1     -34.761  -5.534 -15.754  0.00  0.00    -0.235 N 
HETATM   13  H           1     -33.499  -4.324 -17.489  0.00  0.00     0.174 HD
HETATM   14  H           1     -32.769  -3.140 -16.332  0.00  0.00     0.174 HD
HETATM   15  H           1     -34.875  -5.898 -16.733  0.00  0.00     0.174 HD
HETATM   16  H           1     -35.268  -5.998 -14.960  0.00  0.00     0.174 HD
ENDBRANCH   7   8
ENDBRANCH   6   7
ENDBRANCH   5   6
ENDBRANCH   1   5
BRANCH   1  17
HETATM   17  N           1     -34.658  -1.084 -12.663  0.00  0.00    -0.345 N 
HETATM   18  H           1     -33.779  -0.677 -12.957  0.00  0.00     0.163 HD
HETATM   19  C           1     -35.836  -0.620 -13.184  0.00  0.00     0.249 C 
HETATM   20  O           1     -36.885  -1.105 -12.834  0.00  0.00    -0.271 OA
BRANCH  19  21
HETATM   21  C           1     -35.824   0.498 -14.198  0.00  0.00     0.284 C 
BRANCH  21  22
HETATM   22  C           1     -36.778   0.163 -15.337  0.00  0.00     0.155 C 
BRANCH  22  23
HETATM   23  C           1     -36.129  -0.841 -16.259  0.00  0.00     0.175 C 
HETATM   24  O           1     -36.361  -0.803 -17.486  0.00  0.00    -0.648 OA
HETATM   25  O           1     -35.358  -1.709 -15.795  0.00  0.00    -0.648 OA
ENDBRANCH  22  23
ENDBRANCH  21  22
BRANCH  21  26
HETATM   26  N           1     -34.435   0.663 -14.743  0.00  0.00    -0.066 N 
HETATM   27  H           1     -34.213   1.681 -14.828  0.00  0.00     0.275 HD
HETATM   28  H           1     -33.753   0.210 -14.095  0.00  0.00     0.275 HD
HETATM   29  H           1     -34.375   0.213 -15.684  0.00  0.00     0.275 HD
ENDBRANCH  21  26
ENDBRANCH  19  21
ENDBRANCH   1  17
TORSDOF 10
ENDMDL
MODEL 7
REMARK VINA RESULT:      -6.1      9.383     11.458
REMARK  10 active torsions:
REMARK  status: ('A' for Active; 'I' for Inactive)
REMARK    1  A    between atoms: C_5  and  C_14 
REMARK    2  A    between atoms: C_7  and  C_15 
REMARK       I    between atoms: C_12  and  N_26 
REMARK    3  A    between atoms: C_12  and  C_13 
REMARK    4  A    between atoms: C_13  and  C_14 
REMARK    5  A    between atoms: C_13  and  N_27 
REMARK    6  A    between atoms: C_15  and  C_25 
REMARK    7  A    between atoms: C_15  and  N_26 
REMARK       I    between atoms: N_17  and  C_18 
REMARK       I    between atoms: C_18  and  N_19 
REMARK    8  A    between atoms: N_20  and  C_21 
REMARK    9  A    between atoms: C_21  and  C_22 
REMARK   10  A    between atoms: C_22  and  C_25 
ROOT
HETATM    1  C           1     -28.238  -5.959 -18.137  0.00  0.00     0.185 C 
ENDROOT
BRANCH   1   2
HETATM    2  C           1     -28.170  -4.677 -17.345  0.00  0.00     0.196 C 
HETATM    3  O           1     -28.978  -3.753 -17.580  0.00  0.00    -0.646 OA
HETATM    4  O           1     -27.304  -4.539 -16.453  0.00  0.00    -0.646 OA
ENDBRANCH   1   2
BRANCH   1   5
HETATM    5  C           1     -29.007  -7.008 -17.343  0.00  0.00     0.038 C 
BRANCH   5   6
HETATM    6  C           1     -30.308  -7.336 -18.063  0.00  0.00     0.023 C 
BRANCH   6   7
HETATM    7  C           1     -31.483  -6.790 -17.264  0.00  0.00     0.138 C 
BRANCH   7   8
HETATM    8  N           1     -31.811  -5.437 -17.736  0.00  0.00    -0.227 N 
HETATM    9  H           1     -32.001  -5.269 -18.755  0.00  0.00     0.177 HD
HETATM   10  C           1     -31.865  -4.476 -16.915  0.00  0.00     0.665 C 
HETATM   11  N           1     -32.156  -3.279 -17.332  0.00  0.00    -0.235 N 
HETATM   12  N           1     -31.636  -4.679 -15.687  0.00  0.00    -0.235 N 
HETATM   13  H           1     -32.200  -2.485 -16.654  0.00  0.00     0.174 HD
HETATM   14  H           1     -32.345  -3.111 -18.347  0.00  0.00     0.174 HD
HETATM   15  H           1     -31.681  -3.881 -15.005  0.00  0.00     0.174 HD
HETATM   16  H           1     -31.402  -5.645 -15.349  0.00  0.00     0.174 HD
ENDBRANCH   7   8
ENDBRANCH   6   7
ENDBRANCH   5   6
ENDBRANCH   1   5
BRANCH   1  17
HETATM   17  N           1     -26.894  -6.439 -18.396  0.00  0.00    -0.345 N 
HETATM   18  H           1     -26.329  -6.795 -17.636  0.00  0.00     0.163 HD
HETATM   19  C           1     -26.391  -6.410 -19.669  0.00  0.00     0.249 C 
HETATM   20  O           1     -27.065  -5.985 -20.576  0.00  0.00    -0.271 OA
BRANCH  19  21
HETATM   21  C           1     -24.992  -6.909 -19.938  0.00  0.00     0.284 C 
BRANCH  21  22
HETATM   22  C           1     -25.043  -8.044 -20.954  0.00  0.00     0.155 C 
BRANCH  22  23
HETATM   23  C           1     -23.751  -8.081 -21.733  0.00  0.00     0.175 C 
HETATM   24  O           1     -23.709  -7.622 -22.894  0.00  0.00    -0.648 OA
HETATM   25  O           1     -22.723  -8.569 -21.216  0.00  0.00    -0.648 OA
ENDBRANCH  22  23
ENDBRANCH  21  22
BRANCH  21  26
HETATM   26  N           1     -24.386  -7.410 -18.660  0.00  0.00    -0.066 N 
HETATM   27  H           1     -25.146  -7.710 -18.009  0.00  0.00     0.275 HD
HETATM   28  H           1     -23.763  -8.223 -18.867  0.00  0.00     0.275 HD
HETATM   29  H           1     -23.829  -6.646 -18.217  0.00  0.00     0.275 HD
ENDBRANCH  21  26
ENDBRANCH  19  21
ENDBRANCH   1  17
TORSDOF 10
ENDMDL
MODEL 8
REMARK VINA RESULT:      -5.8     14.186     17.142
REMARK  10 active torsions:
REMARK  status: ('A' for Active; 'I' for Inactive)
REMARK    1  A    between atoms: C_5  and  C_14 
REMARK    2  A    between atoms: C_7  and  C_15 
REMARK       I    between atoms: C_12  and  N_26 
REMARK    3  A    between atoms: C_12  and  C_13 
REMARK    4  A    between atoms: C_13  and  C_14 
REMARK    5  A    between atoms: C_13  and  N_27 
REMARK    6  A    between atoms: C_15  and  C_25 
REMARK    7  A    between atoms: C_15  and  N_26 
REMARK       I    between atoms: N_17  and  C_18 
REMARK       I    between atoms: C_18  and  N_19 
REMARK    8  A    between atoms: N_20  and  C_21 
REMARK    9  A    between atoms: C_21  and  C_22 
REMARK   10  A    between atoms: C_22  and  C_25 
ROOT
HETATM    1  C           1     -21.106  -6.120  -5.445  0.00  0.00     0.185 C 
ENDROOT
BRANCH   1   2
HETATM    2  C           1     -20.041  -7.148  -5.737  0.00  0.00     0.196 C 
HETATM    3  O           1     -19.341  -7.048  -6.768  0.00  0.00    -0.646 OA
HETATM    4  O           1     -19.859  -8.101  -4.948  0.00  0.00    -0.646 OA
ENDBRANCH   1   2
BRANCH   1   5
HETATM    5  C           1     -21.985  -6.609  -4.300  0.00  0.00     0.038 C 
BRANCH   5   6
HETATM    6  C           1     -21.468  -6.041  -2.985  0.00  0.00     0.023 C 
BRANCH   6   7
HETATM    7  C           1     -21.331  -7.162  -1.965  0.00  0.00     0.138 C 
BRANCH   7   8
HETATM    8  N           1     -22.453  -7.103  -1.017  0.00  0.00    -0.227 N 
HETATM    9  H           1     -23.176  -6.347  -1.107  0.00  0.00     0.177 HD
HETATM   10  C           1     -22.546  -7.963  -0.093  0.00  0.00     0.665 C 
HETATM   11  N           1     -23.539  -7.911   0.745  0.00  0.00    -0.235 N 
HETATM   12  N           1     -21.674  -8.874   0.014  0.00  0.00    -0.235 N 
HETATM   13  H           1     -23.616  -8.621   1.508  0.00  0.00     0.174 HD
HETATM   14  H           1     -24.259  -7.159   0.656  0.00  0.00     0.174 HD
HETATM   15  H           1     -21.752  -9.588   0.781  0.00  0.00     0.174 HD
HETATM   16  H           1     -20.873  -8.916  -0.663  0.00  0.00     0.174 HD
ENDBRANCH   7   8
ENDBRANCH   6   7
ENDBRANCH   5   6
ENDBRANCH   1   5
BRANCH   1  17
HETATM   17  N           1     -21.921  -5.919  -6.627  0.00  0.00    -0.345 N 
HETATM   18  H           1     -22.594  -6.623  -6.903  0.00  0.00     0.163 HD
HETATM   19  C           1     -21.780  -4.777  -7.369  0.00  0.00     0.249 C 
HETATM   20  O           1     -20.977  -3.937  -7.039  0.00  0.00    -0.271 OA
BRANCH  19  21
HETATM   21  C           1     -22.628  -4.568  -8.600  0.00  0.00     0.284 C 
BRANCH  21  22
HETATM   22  C           1     -21.825  -3.807  -9.647  0.00  0.00     0.155 C 
BRANCH  22  23
HETATM   23  C           1     -22.468  -3.983 -11.001  0.00  0.00     0.175 C 
HETATM   24  O           1     -21.822  -3.720 -12.038  0.00  0.00    -0.648 OA
HETATM   25  O           1     -23.647  -4.393 -11.085  0.00  0.00    -0.648 OA
ENDBRANCH  22  23
ENDBRANCH  21  22
BRANCH  21  26
HETATM   26  N           1     -23.850  -3.777  -8.236  0.00  0.00    -0.066 N 
HETATM   27  H           1     -24.055  -3.086  -8.992  0.00  0.00     0.275 HD
HETATM   28  H           1     -24.662  -4.425  -8.125  0.00  0.00     0.275 HD
HETATM   29  H           1     -23.681  -3.271  -7.338  0.00  0.00     0.275 HD
ENDBRANCH  21  26
ENDBRANCH  19  21
ENDBRANCH   1  17
TORSDOF 10
ENDMDL
MODEL 9
REMARK VINA RESULT:      -5.7     15.109     17.045
REMARK  10 active torsions:
REMARK  status: ('A' for Active; 'I' for Inactive)
REMARK    1  A    between atoms: C_5  and  C_14 
REMARK    2  A    between atoms: C_7  and  C_15 
REMARK       I    between atoms: C_12  and  N_26 
REMARK    3  A    between atoms: C_12  and  C_13 
REMARK    4  A    between atoms: C_13  and  C_14 
REMARK    5  A    between atoms: C_13  and  N_27 
REMARK    6  A    between atoms: C_15  and  C_25 
REMARK    7  A    between atoms: C_15  and  N_26 
REMARK       I    between atoms: N_17  and  C_18 
REMARK       I    between atoms: C_18  and  N_19 
REMARK    8  A    between atoms: N_20  and  C_21 
REMARK    9  A    between atoms: C_21  and  C_22 
REMARK   10  A    between atoms: C_22  and  C_25 
ROOT
HETATM    1  C           1     -20.579  -6.801  -5.432  0.00  0.00     0.185 C 
ENDROOT
BRANCH   1   2
HETATM    2  C           1     -21.795  -6.239  -4.737  0.00  0.00     0.196 C 
HETATM    3  O           1     -22.835  -6.005  -5.389  0.00  0.00    -0.646 OA
HETATM    4  O           1     -21.762  -6.010  -3.508  0.00  0.00    -0.646 OA
ENDBRANCH   1   2
BRANCH   1   5
HETATM    5  C           1     -20.386  -6.095  -6.768  0.00  0.00     0.038 C 
BRANCH   5   6
HETATM    6  C           1     -19.961  -4.654  -6.524  0.00  0.00     0.023 C 
BRANCH   6   7
HETATM    7  C           1     -20.570  -3.755  -7.591  0.00  0.00     0.138 C 
BRANCH   7   8
HETATM    8  N           1     -22.031  -3.733  -7.438  0.00  0.00    -0.227 N 
HETATM    9  H           1     -22.458  -3.499  -6.507  0.00  0.00     0.177 HD
HETATM   10  C           1     -22.776  -3.995  -8.428  0.00  0.00     0.665 C 
HETATM   11  N           1     -24.068  -3.975  -8.292  0.00  0.00    -0.235 N 
HETATM   12  N           1     -22.261  -4.276  -9.549  0.00  0.00    -0.235 N 
HETATM   13  H           1     -24.683  -4.191  -9.109  0.00  0.00     0.174 HD
HETATM   14  H           1     -24.494  -3.742  -7.366  0.00  0.00     0.174 HD
HETATM   15  H           1     -22.878  -4.494 -10.371  0.00  0.00     0.174 HD
HETATM   16  H           1     -21.217  -4.292  -9.659  0.00  0.00     0.174 HD
ENDBRANCH   7   8
ENDBRANCH   6   7
ENDBRANCH   5   6
ENDBRANCH   1   5
BRANCH   1  17
HETATM   17  N           1     -20.764  -8.221  -5.658  0.00  0.00    -0.345 N 
HETATM   18  H           1     -21.417  -8.540  -6.363  0.00  0.00     0.163 HD
HETATM   19  C           1     -20.057  -9.129  -4.918  0.00  0.00     0.249 C 
HETATM   20  O           1     -19.278  -8.749  -4.076  0.00  0.00    -0.271 OA
BRANCH  19  21
HETATM   21  C           1     -20.250 -10.608  -5.152  0.00  0.00     0.284 C 
BRANCH  21  22
HETATM   22  C           1     -18.910 -11.248  -5.492  0.00  0.00     0.155 C 
BRANCH  22  23
HETATM   23  C           1     -19.065 -12.122  -6.712  0.00  0.00     0.175 C 
HETATM   24  O           1     -19.417 -13.315  -6.586  0.00  0.00    -0.648 OA
HETATM   25  O           1     -18.842 -11.653  -7.850  0.00  0.00    -0.648 OA
ENDBRANCH  22  23
ENDBRANCH  21  22
BRANCH  21  26
HETATM   26  N           1     -21.204 -10.812  -6.293  0.00  0.00    -0.066 N 
HETATM   27  H           1     -22.116 -10.352  -6.070  0.00  0.00     0.275 HD
HETATM   28  H           1     -20.803 -10.389  -7.160  0.00  0.00     0.275 HD
HETATM   29  H           1     -21.356 -11.834  -6.440  0.00  0.00     0.275 HD
ENDBRANCH  21  26
ENDBRANCH  19  21
ENDBRANCH   1  17
TORSDOF 10
ENDMDL
