MODEL 1
REMARK VINA RESULT:      -6.3      0.000      0.000
REMARK  7 active torsions:
REMARK  status: ('A' for Active; 'I' for Inactive)
REMARK    1  A    between atoms: N_5  and  C_11 
REMARK    2  A    between atoms: C_9  and  C_15 
REMARK    3  A    between atoms: C_11  and  C_17 
REMARK    4  A    between atoms: C_11  and  C_12 
REMARK    5  A    between atoms: C_12  and  C_13 
REMARK    6  A    between atoms: C_13  and  C_14 
REMARK    7  A    between atoms: C_15  and  N_18 
REMARK       I    between atoms: C_17  and  N_18 
ROOT
HETATM    1  C           1     -28.926  -6.253 -17.180  0.00  0.00     0.275 C 
ENDROOT
BRANCH   1   2
HETATM    2  N           1     -29.197  -7.728 -17.156  0.00  0.00    -0.066 N 
HETATM    3  H           1     -29.521  -8.008 -16.202  0.00  0.00     0.275 HD
HETATM    4  H           1     -29.939  -7.956 -17.856  0.00  0.00     0.275 HD
HETATM    5  H           1     -28.321  -8.247 -17.392  0.00  0.00     0.275 HD
ENDBRANCH   1   2
BRANCH   1   6
HETATM    6  C           1     -27.522  -5.993 -16.695  0.00  0.00     0.248 C 
HETATM    7  O           1     -27.050  -4.883 -16.777  0.00  0.00    -0.271 OA
HETATM    8  N           1     -26.782  -7.013 -16.161  0.00  0.00    -0.349 N 
HETATM    9  H           1     -27.177  -7.942 -16.092  0.00  0.00     0.163 HD
BRANCH   8  10
HETATM   10  C           1     -25.432  -6.763 -15.694  0.00  0.00     0.235 C 
BRANCH  10  11
HETATM   11  C           1     -24.447  -7.443 -16.613  0.00  0.00     0.191 C 
HETATM   12  O           1     -23.927  -8.529 -16.278  0.00  0.00    -0.647 OA
HETATM   13  O           1     -24.151  -6.920 -17.709  0.00  0.00    -0.647 OA
ENDBRANCH  10  11
ENDBRANCH   8  10
ENDBRANCH   1   6
BRANCH   1  14
HETATM   14  C           1     -29.918  -5.541 -16.270  0.00  0.00     0.053 C 
BRANCH  14  15
HETATM   15  C           1     -31.145  -5.132 -17.075  0.00  0.00     0.115 C 
BRANCH  15  16
HETATM   16  C           1     -31.037  -3.676 -17.455  0.00  0.00     0.172 C 
HETATM   17  O           1     -29.923  -3.109 -17.446  0.00  0.00    -0.648 OA
HETATM   18  O           1     -32.062  -3.035 -17.776  0.00  0.00    -0.648 OA
ENDBRANCH  15  16
ENDBRANCH  14  15
ENDBRANCH   1  14
TORSDOF 7
ENDMDL
MODEL 2
REMARK VINA RESULT:      -6.3      2.198      4.074
REMARK  7 active torsions:
REMARK  status: ('A' for Active; 'I' for Inactive)
REMARK    1  A    between atoms: N_5  and  C_11 
REMARK    2  A    between atoms: C_9  and  C_15 
REMARK    3  A    between atoms: C_11  and  C_17 
REMARK    4  A    between atoms: C_11  and  C_12 
REMARK    5  A    between atoms: C_12  and  C_13 
REMARK    6  A    between atoms: C_13  and  C_14 
REMARK    7  A    between atoms: C_15  and  N_18 
REMARK       I    between atoms: C_17  and  N_18 
ROOT
HETATM    1  C           1     -29.317  -6.621 -17.273  0.00  0.00     0.275 C 
ENDROOT
BRANCH   1   2
HETATM    2  N           1     -29.370  -8.120 -17.317  0.00  0.00    -0.066 N 
HETATM    3  H           1     -29.236  -8.501 -16.353  0.00  0.00     0.275 HD
HETATM    4  H           1     -30.298  -8.424 -17.685  0.00  0.00     0.275 HD
HETATM    5  H           1     -28.611  -8.477 -17.940  0.00  0.00     0.275 HD
ENDBRANCH   1   2
BRANCH   1   6
HETATM    6  C           1     -28.539  -6.111 -18.461  0.00  0.00     0.248 C 
HETATM    7  O           1     -28.792  -5.027 -18.929  0.00  0.00    -0.271 OA
HETATM    8  N           1     -27.545  -6.878 -19.008  0.00  0.00    -0.349 N 
HETATM    9  H           1     -27.333  -7.786 -18.616  0.00  0.00     0.163 HD
BRANCH   8  10
HETATM   10  C           1     -26.797  -6.388 -20.150  0.00  0.00     0.235 C 
BRANCH  10  11
HETATM   11  C           1     -25.392  -6.937 -20.105  0.00  0.00     0.191 C 
HETATM   12  O           1     -24.605  -6.565 -19.207  0.00  0.00    -0.647 OA
HETATM   13  O           1     -25.016  -7.762 -20.964  0.00  0.00    -0.647 OA
ENDBRANCH  10  11
ENDBRANCH   8  10
ENDBRANCH   1   6
BRANCH   1  14
HETATM   14  C           1     -28.632  -6.175 -15.988  0.00  0.00     0.053 C 
BRANCH  14  15
HETATM   15  C           1     -27.654  -7.250 -15.533  0.00  0.00     0.115 C 
BRANCH  15  16
HETATM   16  C           1     -26.240  -6.775 -15.764  0.00  0.00     0.172 C 
HETATM   17  O           1     -26.033  -5.679 -16.329  0.00  0.00    -0.648 OA
HETATM   18  O           1     -25.275  -7.478 -15.391  0.00  0.00    -0.648 OA
ENDBRANCH  15  16
ENDBRANCH  14  15
ENDBRANCH   1  14
TORSDOF 7
ENDMDL
MODEL 3
REMARK VINA RESULT:      -6.0      1.902      6.110
REMARK  7 active torsions:
REMARK  status: ('A' for Active; 'I' for Inactive)
REMARK    1  A    between atoms: N_5  and  C_11 
REMARK    2  A    between atoms: C_9  and  C_15 
REMARK    3  A    between atoms: C_11  and  C_17 
REMARK    4  A    between atoms: C_11  and  C_12 
REMARK    5  A    between atoms: C_12  and  C_13 
REMARK    6  A    between atoms: C_13  and  C_14 
REMARK    7  A    between atoms: C_15  and  N_18 
REMARK       I    between atoms: C_17  and  N_18 
ROOT
HETATM    1  C           1     -29.257  -7.204 -17.071  0.00  0.00     0.275 C 
ENDROOT
BRANCH   1   2
HETATM    2  N           1     -28.554  -7.129 -18.394  0.00  0.00    -0.066 N 
HETATM    3  H           1     -27.744  -7.789 -18.396  0.00  0.00     0.275 HD
HETATM    4  H           1     -29.219  -7.391 -19.156  0.00  0.00     0.275 HD
HETATM    5  H           1     -28.209  -6.155 -18.549  0.00  0.00     0.275 HD
ENDBRANCH   1   2
BRANCH   1   6
HETATM    6  C           1     -30.639  -6.612 -17.202  0.00  0.00     0.248 C 
HETATM    7  O           1     -31.468  -7.158 -17.890  0.00  0.00    -0.271 OA
HETATM    8  N           1     -30.952  -5.455 -16.541  0.00  0.00    -0.349 N 
HETATM    9  H           1     -30.258  -4.997 -15.964  0.00  0.00     0.163 HD
BRANCH   8  10
HETATM   10  C           1     -32.280  -4.885 -16.666  0.00  0.00     0.235 C 
BRANCH  10  11
HETATM   11  C           1     -32.186  -3.526 -17.315  0.00  0.00     0.191 C 
HETATM   12  O           1     -31.066  -3.028 -17.562  0.00  0.00    -0.647 OA
HETATM   13  O           1     -33.227  -2.898 -17.604  0.00  0.00    -0.647 OA
ENDBRANCH  10  11
ENDBRANCH   8  10
ENDBRANCH   1   6
BRANCH   1  14
HETATM   14  C           1     -28.466  -6.422 -16.031  0.00  0.00     0.053 C 
BRANCH  14  15
HETATM   15  C           1     -27.206  -5.855 -16.671  0.00  0.00     0.115 C 
BRANCH  15  16
HETATM   16  C           1     -25.990  -6.401 -15.962  0.00  0.00     0.172 C 
HETATM   17  O           1     -26.055  -7.498 -15.367  0.00  0.00    -0.648 OA
HETATM   18  O           1     -24.920  -5.756 -15.970  0.00  0.00    -0.648 OA
ENDBRANCH  15  16
ENDBRANCH  14  15
ENDBRANCH   1  14
TORSDOF 7
ENDMDL
MODEL 4
REMARK VINA RESULT:      -5.8      8.557     10.309
REMARK  7 active torsions:
REMARK  status: ('A' for Active; 'I' for Inactive)
REMARK    1  A    between atoms: N_5  and  C_11 
REMARK    2  A    between atoms: C_9  and  C_15 
REMARK    3  A    between atoms: C_11  and  C_17 
REMARK    4  A    between atoms: C_11  and  C_12 
REMARK    5  A    between atoms: C_12  and  C_13 
REMARK    6  A    between atoms: C_13  and  C_14 
REMARK    7  A    between atoms: C_15  and  N_18 
REMARK       I    between atoms: C_17  and  N_18 
ROOT
HETATM    1  C           1     -21.581  -3.572 -10.712  0.00  0.00     0.275 C 
ENDROOT
BRANCH   1   2
HETATM    2  N           1     -20.824  -2.777 -11.734  0.00  0.00    -0.066 N 
HETATM    3  H           1     -20.761  -1.781 -11.425  0.00  0.00     0.275 HD
HETATM    4  H           1     -19.862  -3.171 -11.836  0.00  0.00     0.275 HD
HETATM    5  H           1     -21.322  -2.826 -12.651  0.00  0.00     0.275 HD
ENDBRANCH   1   2
BRANCH   1   6
HETATM    6  C           1     -20.607  -4.294  -9.814  0.00  0.00     0.248 C 
HETATM    7  O           1     -19.827  -5.088 -10.283  0.00  0.00    -0.271 OA
HETATM    8  N           1     -20.607  -4.048  -8.467  0.00  0.00    -0.349 N 
HETATM    9  H           1     -21.260  -3.383  -8.074  0.00  0.00     0.163 HD
BRANCH   8  10
HETATM   10  C           1     -19.670  -4.742  -7.604  0.00  0.00     0.235 C 
BRANCH  10  11
HETATM   11  C           1     -20.430  -5.587  -6.612  0.00  0.00     0.191 C 
HETATM   12  O           1     -20.859  -6.712  -6.949  0.00  0.00    -0.647 OA
HETATM   13  O           1     -20.631  -5.163  -5.453  0.00  0.00    -0.647 OA
ENDBRANCH  10  11
ENDBRANCH   8  10
ENDBRANCH   1   6
BRANCH   1  14
HETATM   14  C           1     -22.470  -4.588 -11.417  0.00  0.00     0.053 C 
BRANCH  14  15
HETATM   15  C           1     -23.609  -4.997 -10.492  0.00  0.00     0.115 C 
BRANCH  15  16
HETATM   16  C           1     -24.422  -3.780 -10.125  0.00  0.00     0.172 C 
HETATM   17  O           1     -24.427  -3.364  -8.946  0.00  0.00    -0.648 OA
HETATM   18  O           1     -25.092  -3.189 -10.999  0.00  0.00    -0.648 OA
ENDBRANCH  15  16
ENDBRANCH  14  15
ENDBRANCH   1  14
TORSDOF 7
ENDMDL
MODEL 5
REMARK VINA RESULT:      -5.7      8.291     10.366
REMARK  7 active torsions:
REMARK  status: ('A' for Active; 'I' for Inactive)
REMARK    1  A    between atoms: N_5  and  C_11 
REMARK    2  A    between atoms: C_9  and  C_15 
REMARK    3  A    between atoms: C_11  and  C_17 
REMARK    4  A    between atoms: C_11  and  C_12 
REMARK    5  A    between atoms: C_12  and  C_13 
REMARK    6  A    between atoms: C_13  and  C_14 
REMARK    7  A    between atoms: C_15  and  N_18 
REMARK       I    between atoms: C_17  and  N_18 
ROOT
HETATM    1  C           1     -34.447  -3.205 -12.617  0.00  0.00     0.275 C 
ENDROOT
BRANCH   1   2
HETATM    2  N           1     -33.950  -3.801 -13.901  0.00  0.00    -0.066 N 
HETATM    3  H           1     -34.375  -3.292 -14.709  0.00  0.00     0.275 HD
HETATM    4  H           1     -32.910  -3.716 -13.943  0.00  0.00     0.275 HD
HETATM    5  H           1     -34.221  -4.809 -13.943  0.00  0.00     0.275 HD
ENDBRANCH   1   2
BRANCH   1   6
HETATM    6  C           1     -34.740  -1.740 -12.825  0.00  0.00     0.248 C 
HETATM    7  O           1     -34.637  -0.966 -11.902  0.00  0.00    -0.271 OA
HETATM    8  N           1     -35.124  -1.287 -14.058  0.00  0.00    -0.349 N 
HETATM    9  H           1     -35.210  -1.935 -14.831  0.00  0.00     0.163 HD
BRANCH   8  10
HETATM   10  C           1     -35.406   0.121 -14.258  0.00  0.00     0.235 C 
BRANCH  10  11
HETATM   11  C           1     -36.408   0.281 -15.375  0.00  0.00     0.191 C 
HETATM   12  O           1     -36.376   1.297 -16.102  0.00  0.00    -0.647 OA
HETATM   13  O           1     -37.270  -0.602 -15.572  0.00  0.00    -0.647 OA
ENDBRANCH  10  11
ENDBRANCH   8  10
ENDBRANCH   1   6
BRANCH   1  14
HETATM   14  C           1     -33.381  -3.361 -11.540  0.00  0.00     0.053 C 
BRANCH  14  15
HETATM   15  C           1     -33.969  -4.102 -10.346  0.00  0.00     0.115 C 
BRANCH  15  16
HETATM   16  C           1     -33.930  -5.588 -10.605  0.00  0.00     0.172 C 
HETATM   17  O           1     -32.960  -6.091 -11.213  0.00  0.00    -0.648 OA
HETATM   18  O           1     -34.867  -6.316 -10.213  0.00  0.00    -0.648 OA
ENDBRANCH  15  16
ENDBRANCH  14  15
ENDBRANCH   1  14
TORSDOF 7
ENDMDL
MODEL 6
REMARK VINA RESULT:      -5.6      9.814     11.864
REMARK  7 active torsions:
REMARK  status: ('A' for Active; 'I' for Inactive)
REMARK    1  A    between atoms: N_5  and  C_11 
REMARK    2  A    between atoms: C_9  and  C_15 
REMARK    3  A    between atoms: C_11  and  C_17 
REMARK    4  A    between atoms: C_11  and  C_12 
REMARK    5  A    between atoms: C_12  and  C_13 
REMARK    6  A    between atoms: C_13  and  C_14 
REMARK    7  A    between atoms: C_15  and  N_18 
REMARK       I    between atoms: C_17  and  N_18 
ROOT
HETATM    1  C           1     -21.571  -4.697  -8.561  0.00  0.00     0.275 C 
ENDROOT
BRANCH   1   2
HETATM    2  N           1     -22.580  -3.679  -8.120  0.00  0.00    -0.066 N 
HETATM    3  H           1     -22.498  -3.531  -7.088  0.00  0.00     0.275 HD
HETATM    4  H           1     -22.402  -2.777  -8.615  0.00  0.00     0.275 HD
HETATM    5  H           1     -23.541  -4.020  -8.347  0.00  0.00     0.275 HD
ENDBRANCH   1   2
BRANCH   1   6
HETATM    6  C           1     -20.977  -5.373  -7.350  0.00  0.00     0.248 C 
HETATM    7  O           1     -20.188  -6.278  -7.489  0.00  0.00    -0.271 OA
HETATM    8  N           1     -21.331  -4.961  -6.094  0.00  0.00    -0.349 N 
HETATM    9  H           1     -21.992  -4.203  -5.977  0.00  0.00     0.163 HD
BRANCH   8  10
HETATM   10  C           1     -20.760  -5.610  -4.930  0.00  0.00     0.235 C 
BRANCH  10  11
HETATM   11  C           1     -21.802  -6.489  -4.281  0.00  0.00     0.191 C 
HETATM   12  O           1     -22.394  -6.099  -3.252  0.00  0.00    -0.647 OA
HETATM   13  O           1     -22.071  -7.606  -4.773  0.00  0.00    -0.647 OA
ENDBRANCH  10  11
ENDBRANCH   8  10
ENDBRANCH   1   6
BRANCH   1  14
HETATM   14  C           1     -20.466  -4.007  -9.351  0.00  0.00     0.053 C 
BRANCH  14  15
HETATM   15  C           1     -20.513  -4.468 -10.801  0.00  0.00     0.115 C 
BRANCH  15  16
HETATM   16  C           1     -21.646  -3.773 -11.515  0.00  0.00     0.172 C 
HETATM   17  O           1     -22.591  -4.442 -11.987  0.00  0.00    -0.648 OA
HETATM   18  O           1     -21.639  -2.529 -11.636  0.00  0.00    -0.648 OA
ENDBRANCH  15  16
ENDBRANCH  14  15
ENDBRANCH   1  14
TORSDOF 7
ENDMDL
MODEL 7
REMARK VINA RESULT:      -5.6     10.440     12.116
REMARK  7 active torsions:
REMARK  status: ('A' for Active; 'I' for Inactive)
REMARK    1  A    between atoms: N_5  and  C_11 
REMARK    2  A    between atoms: C_9  and  C_15 
REMARK    3  A    between atoms: C_11  and  C_17 
REMARK    4  A    between atoms: C_11  and  C_12 
REMARK    5  A    between atoms: C_12  and  C_13 
REMARK    6  A    between atoms: C_13  and  C_14 
REMARK    7  A    between atoms: C_15  and  N_18 
REMARK       I    between atoms: C_17  and  N_18 
ROOT
HETATM    1  C           1     -22.310  -4.495  -7.340  0.00  0.00     0.275 C 
ENDROOT
BRANCH   1   2
HETATM    2  N           1     -21.556  -3.221  -7.096  0.00  0.00    -0.066 N 
HETATM    3  H           1     -22.015  -2.439  -7.617  0.00  0.00     0.275 HD
HETATM    4  H           1     -21.559  -3.006  -6.073  0.00  0.00     0.275 HD
HETATM    5  H           1     -20.572  -3.330  -7.428  0.00  0.00     0.275 HD
ENDBRANCH   1   2
BRANCH   1   6
HETATM    6  C           1     -21.661  -5.618  -6.569  0.00  0.00     0.248 C 
HETATM    7  O           1     -20.895  -6.369  -7.124  0.00  0.00    -0.271 OA
HETATM    8  N           1     -21.941  -5.786  -5.240  0.00  0.00    -0.349 N 
HETATM    9  H           1     -22.583  -5.157  -4.774  0.00  0.00     0.163 HD
BRANCH   8  10
HETATM   10  C           1     -21.318  -6.865  -4.498  0.00  0.00     0.235 C 
BRANCH  10  11
HETATM   11  C           1     -21.558  -6.667  -3.022  0.00  0.00     0.191 C 
HETATM   12  O           1     -22.479  -5.917  -2.634  0.00  0.00    -0.647 OA
HETATM   13  O           1     -20.835  -7.253  -2.187  0.00  0.00    -0.647 OA
ENDBRANCH  10  11
ENDBRANCH   8  10
ENDBRANCH   1   6
BRANCH   1  14
HETATM   14  C           1     -22.286  -4.821  -8.828  0.00  0.00     0.053 C 
BRANCH  14  15
HETATM   15  C           1     -22.745  -3.605  -9.622  0.00  0.00     0.115 C 
BRANCH  15  16
HETATM   16  C           1     -24.150  -3.832 -10.125  0.00  0.00     0.172 C 
HETATM   17  O           1     -24.738  -4.906  -9.872  0.00  0.00    -0.648 OA
HETATM   18  O           1     -24.725  -2.947 -10.795  0.00  0.00    -0.648 OA
ENDBRANCH  15  16
ENDBRANCH  14  15
ENDBRANCH   1  14
TORSDOF 7
ENDMDL
MODEL 8
REMARK VINA RESULT:      -5.6      8.026     10.890
REMARK  7 active torsions:
REMARK  status: ('A' for Active; 'I' for Inactive)
REMARK    1  A    between atoms: N_5  and  C_11 
REMARK    2  A    between atoms: C_9  and  C_15 
REMARK    3  A    between atoms: C_11  and  C_17 
REMARK    4  A    between atoms: C_11  and  C_12 
REMARK    5  A    between atoms: C_12  and  C_13 
REMARK    6  A    between atoms: C_13  and  C_14 
REMARK    7  A    between atoms: C_15  and  N_18 
REMARK       I    between atoms: C_17  and  N_18 
ROOT
HETATM    1  C           1     -34.358  -3.531 -12.720  0.00  0.00     0.275 C 
ENDROOT
BRANCH   1   2
HETATM    2  N           1     -33.712  -3.983 -13.996  0.00  0.00    -0.066 N 
HETATM    3  H           1     -33.567  -5.018 -13.967  0.00  0.00     0.275 HD
HETATM    4  H           1     -34.330  -3.741 -14.803  0.00  0.00     0.275 HD
HETATM    5  H           1     -32.789  -3.506 -14.107  0.00  0.00     0.275 HD
ENDBRANCH   1   2
BRANCH   1   6
HETATM    6  C           1     -34.958  -2.161 -12.919  0.00  0.00     0.248 C 
HETATM    7  O           1     -35.005  -1.676 -14.024  0.00  0.00    -0.271 OA
HETATM    8  N           1     -35.449  -1.468 -11.846  0.00  0.00    -0.349 N 
HETATM    9  H           1     -35.411  -1.873 -10.920  0.00  0.00     0.163 HD
BRANCH   8  10
HETATM   10  C           1     -36.027  -0.151 -12.037  0.00  0.00     0.235 C 
BRANCH  10  11
HETATM   11  C           1     -36.839   0.225 -10.822  0.00  0.00     0.191 C 
HETATM   12  O           1     -38.065   0.439 -10.933  0.00  0.00    -0.647 OA
HETATM   13  O           1     -36.286   0.320  -9.706  0.00  0.00    -0.647 OA
ENDBRANCH  10  11
ENDBRANCH   8  10
ENDBRANCH   1   6
BRANCH   1  14
HETATM   14  C           1     -33.311  -3.471 -11.616  0.00  0.00     0.053 C 
BRANCH  14  15
HETATM   15  C           1     -33.834  -4.189 -10.378  0.00  0.00     0.115 C 
BRANCH  15  16
HETATM   16  C           1     -33.854  -5.677 -10.630  0.00  0.00     0.172 C 
HETATM   17  O           1     -32.858  -6.239 -11.135  0.00  0.00    -0.648 OA
HETATM   18  O           1     -34.867  -6.347 -10.335  0.00  0.00    -0.648 OA
ENDBRANCH  15  16
ENDBRANCH  14  15
ENDBRANCH   1  14
TORSDOF 7
ENDMDL
MODEL 9
REMARK VINA RESULT:      -5.6      9.410     11.100
REMARK  7 active torsions:
REMARK  status: ('A' for Active; 'I' for Inactive)
REMARK    1  A    between atoms: N_5  and  C_11 
REMARK    2  A    between atoms: C_9  and  C_15 
REMARK    3  A    between atoms: C_11  and  C_17 
REMARK    4  A    between atoms: C_11  and  C_12 
REMARK    5  A    between atoms: C_12  and  C_13 
REMARK    6  A    between atoms: C_13  and  C_14 
REMARK    7  A    between atoms: C_15  and  N_18 
REMARK       I    between atoms: C_17  and  N_18 
ROOT
HETATM    1  C           1     -21.042  -4.223  -9.276  0.00  0.00     0.275 C 
ENDROOT
BRANCH   1   2
HETATM    2  N           1     -20.165  -4.657 -10.414  0.00  0.00    -0.066 N 
HETATM    3  H           1     -19.704  -5.563 -10.171  0.00  0.00     0.275 HD
HETATM    4  H           1     -20.747  -4.782 -11.272  0.00  0.00     0.275 HD
HETATM    5  H           1     -19.435  -3.930 -10.587  0.00  0.00     0.275 HD
ENDBRANCH   1   2
BRANCH   1   6
HETATM    6  C           1     -20.520  -4.807  -7.988  0.00  0.00     0.248 C 
HETATM    7  O           1     -19.576  -4.298  -7.432  0.00  0.00    -0.271 OA
HETATM    8  N           1     -21.115  -5.916  -7.449  0.00  0.00    -0.349 N 
HETATM    9  H           1     -21.906  -6.343  -7.914  0.00  0.00     0.163 HD
BRANCH   8  10
HETATM   10  C           1     -20.613  -6.478  -6.210  0.00  0.00     0.235 C 
BRANCH  10  11
HETATM   11  C           1     -21.544  -6.118  -5.078  0.00  0.00     0.191 C 
HETATM   12  O           1     -22.769  -5.995  -5.293  0.00  0.00    -0.647 OA
HETATM   13  O           1     -21.090  -5.942  -3.927  0.00  0.00    -0.647 OA
ENDBRANCH  10  11
ENDBRANCH   8  10
ENDBRANCH   1   6
BRANCH   1  14
HETATM   14  C           1     -22.464  -4.713  -9.517  0.00  0.00     0.053 C 
BRANCH  14  15
HETATM   15  C           1     -23.452  -3.624  -9.122  0.00  0.00     0.115 C 
BRANCH  15  16
HETATM   16  C           1     -24.569  -3.564 -10.136  0.00  0.00     0.172 C 
HETATM   17  O           1     -24.384  -3.995 -11.295  0.00  0.00    -0.648 OA
HETATM   18  O           1     -25.678  -3.083  -9.818  0.00  0.00    -0.648 OA
ENDBRANCH  15  16
ENDBRANCH  14  15
ENDBRANCH   1  14
TORSDOF 7
ENDMDL
