MODEL 1
REMARK VINA RESULT:      -8.0      0.000      0.000
REMARK  11 active torsions:
REMARK  status: ('A' for Active; 'I' for Inactive)
REMARK    1  A    between atoms: C_1  and  C_6 
REMARK       I    between atoms: C_2  and  N_9 
REMARK    2  A    between atoms: C_2  and  C_3 
REMARK    3  A    between atoms: C_3  and  C_4 
REMARK    4  A    between atoms: C_3  and  N_25 
REMARK    5  A    between atoms: C_4  and  C_5 
REMARK       I    between atoms: C_5  and  N_13 
REMARK    6  A    between atoms: C_6  and  C_16 
REMARK    7  A    between atoms: P_7  and  O_8 
REMARK    8  A    between atoms: P_7  and  O_22 
REMARK    9  A    between atoms: O_8  and  C_10 
REMARK   10  A    between atoms: N_9  and  C_16 
REMARK   11  A    between atoms: C_16  and  C_18 
ROOT
HETATM    1  C           1     -32.443  -4.349 -16.210  0.00  0.00     0.189 C 
ENDROOT
BRANCH   1   2
HETATM    2  C           1     -31.936  -5.645 -16.828  0.00  0.00     0.074 C 
BRANCH   2   3
HETATM    3  C           1     -30.439  -5.647 -16.831  0.00  0.00    -0.056 A 
HETATM    4  C           1     -29.740  -5.186 -15.715  0.00  0.00     0.010 A 
HETATM    5  C           1     -28.346  -5.186 -15.717  0.00  0.00     0.038 A 
HETATM    6  C           1     -27.650  -5.649 -16.834  0.00  0.00     0.081 A 
HETATM    7  C           1     -28.349  -6.109 -17.950  0.00  0.00     0.038 A 
HETATM    8  C           1     -29.744  -6.108 -17.948  0.00  0.00     0.010 A 
BRANCH   6   9
HETATM    9  O           1     -26.295  -5.649 -16.837  0.00  0.00    -0.247 OA
BRANCH   9  10
HETATM   10  P           1     -25.534  -6.724 -15.902  0.00  0.00     0.411 P 
HETATM   11  O           1     -24.542  -7.466 -16.710  0.00  0.00    -0.624 OA
HETATM   12  O           1     -26.521  -7.672 -15.339  0.00  0.00    -0.624 OA
BRANCH  10  13
HETATM   13  O           1     -24.781  -5.952 -14.699  0.00  0.00    -0.300 OA
HETATM   14  H           1     -25.472  -5.606 -14.162  0.00  0.00     0.223 HD
ENDBRANCH  10  13
ENDBRANCH   9  10
ENDBRANCH   6   9
ENDBRANCH   2   3
ENDBRANCH   1   2
BRANCH   1  15
HETATM   15  N           1     -33.713  -4.592 -15.553  0.00  0.00    -0.344 N 
HETATM   16  C           1     -34.036  -3.908 -14.412  0.00  0.00     0.249 C 
HETATM   17  O           1     -34.622  -2.853 -14.486  0.00  0.00    -0.271 OA
HETATM   18  H           1     -34.360  -5.268 -15.938  0.00  0.00     0.163 HD
BRANCH  16  19
HETATM   19  C           1     -33.662  -4.470 -13.062  0.00  0.00     0.283 C 
BRANCH  19  20
HETATM   20  C           1     -34.865  -5.178 -12.454  0.00  0.00     0.145 C 
BRANCH  20  21
HETATM   21  C           1     -34.450  -5.873 -11.181  0.00  0.00     0.217 C 
HETATM   22  N           1     -34.489  -7.240 -11.104  0.00  0.00    -0.370 N 
HETATM   23  H           1     -34.210  -7.707 -10.250  0.00  0.00     0.159 HD
HETATM   24  H           1     -34.796  -7.783 -11.900  0.00  0.00     0.159 HD
HETATM   25  O           1     -34.082  -5.225 -10.231  0.00  0.00    -0.274 OA
ENDBRANCH  20  21
ENDBRANCH  19  20
BRANCH  19  26
HETATM   26  N           1     -33.230  -3.352 -12.160  0.00  0.00    -0.066 N 
HETATM   27  H           1     -33.095  -2.482 -12.724  0.00  0.00     0.275 HD
HETATM   28  H           1     -33.965  -3.186 -11.435  0.00  0.00     0.275 HD
HETATM   29  H           1     -32.331  -3.608 -11.694  0.00  0.00     0.275 HD
ENDBRANCH  19  26
ENDBRANCH  16  19
ENDBRANCH   1  15
BRANCH   1  30
HETATM   30  C           1     -32.627  -3.312 -17.291  0.00  0.00     0.197 C 
HETATM   31  O           1     -31.657  -2.973 -18.002  0.00  0.00    -0.646 OA
HETATM   32  O           1     -33.749  -2.795 -17.477  0.00  0.00    -0.646 OA
ENDBRANCH   1  30
TORSDOF 11
ENDMDL
MODEL 2
REMARK VINA RESULT:      -7.6      6.235      8.430
REMARK  11 active torsions:
REMARK  status: ('A' for Active; 'I' for Inactive)
REMARK    1  A    between atoms: C_1  and  C_6 
REMARK       I    between atoms: C_2  and  N_9 
REMARK    2  A    between atoms: C_2  and  C_3 
REMARK    3  A    between atoms: C_3  and  C_4 
REMARK    4  A    between atoms: C_3  and  N_25 
REMARK    5  A    between atoms: C_4  and  C_5 
REMARK       I    between atoms: C_5  and  N_13 
REMARK    6  A    between atoms: C_6  and  C_16 
REMARK    7  A    between atoms: P_7  and  O_8 
REMARK    8  A    between atoms: P_7  and  O_22 
REMARK    9  A    between atoms: O_8  and  C_10 
REMARK   10  A    between atoms: N_9  and  C_16 
REMARK   11  A    between atoms: C_16  and  C_18 
ROOT
HETATM    1  C           1     -36.707  -0.597 -10.834  0.00  0.00     0.189 C 
ENDROOT
BRANCH   1   2
HETATM    2  C           1     -35.234  -0.697 -10.460  0.00  0.00     0.074 C 
BRANCH   2   3
HETATM    3  C           1     -34.758  -2.101 -10.671  0.00  0.00    -0.056 A 
HETATM    4  C           1     -35.674  -3.153 -10.679  0.00  0.00     0.010 A 
HETATM    5  C           1     -35.231  -4.461 -10.873  0.00  0.00     0.038 A 
HETATM    6  C           1     -33.873  -4.716 -11.062  0.00  0.00     0.081 A 
HETATM    7  C           1     -32.958  -3.665 -11.054  0.00  0.00     0.038 A 
HETATM    8  C           1     -33.400  -2.357 -10.858  0.00  0.00     0.010 A 
BRANCH   6   9
HETATM    9  O           1     -33.442  -5.988 -11.251  0.00  0.00    -0.247 OA
BRANCH   9  10
HETATM   10  P           1     -34.298  -7.186 -10.588  0.00  0.00     0.411 P 
HETATM   11  O           1     -35.043  -6.671  -9.417  0.00  0.00    -0.624 OA
HETATM   12  O           1     -33.382  -8.264 -10.155  0.00  0.00    -0.624 OA
BRANCH  10  13
HETATM   13  O           1     -35.340  -7.767 -11.676  0.00  0.00    -0.300 OA
HETATM   14  H           1     -35.077  -8.661 -11.813  0.00  0.00     0.223 HD
ENDBRANCH  10  13
ENDBRANCH   9  10
ENDBRANCH   6   9
ENDBRANCH   2   3
ENDBRANCH   1   2
BRANCH   1  15
HETATM   15  N           1     -36.852   0.246 -12.004  0.00  0.00    -0.344 N 
HETATM   16  C           1     -36.745  -0.296 -13.256  0.00  0.00     0.249 C 
HETATM   17  O           1     -37.728  -0.722 -13.816  0.00  0.00    -0.271 OA
HETATM   18  H           1     -37.033   1.236 -11.895  0.00  0.00     0.163 HD
BRANCH  16  19
HETATM   19  C           1     -35.401  -0.362 -13.939  0.00  0.00     0.283 C 
BRANCH  19  20
HETATM   20  C           1     -35.488   0.311 -15.302  0.00  0.00     0.145 C 
BRANCH  20  21
HETATM   21  C           1     -35.891  -0.707 -16.341  0.00  0.00     0.217 C 
HETATM   22  N           1     -37.200  -0.803 -16.733  0.00  0.00    -0.370 N 
HETATM   23  H           1     -37.471  -1.485 -17.430  0.00  0.00     0.159 HD
HETATM   24  H           1     -37.896  -0.191 -16.327  0.00  0.00     0.159 HD
HETATM   25  O           1     -35.061  -1.437 -16.826  0.00  0.00    -0.274 OA
ENDBRANCH  20  21
ENDBRANCH  19  20
BRANCH  19  26
HETATM   26  N           1     -35.001  -1.798 -14.114  0.00  0.00    -0.066 N 
HETATM   27  H           1     -35.725  -2.416 -13.682  0.00  0.00     0.275 HD
HETATM   28  H           1     -34.922  -2.015 -15.133  0.00  0.00     0.275 HD
HETATM   29  H           1     -34.080  -1.962 -13.649  0.00  0.00     0.275 HD
ENDBRANCH  19  26
ENDBRANCH  16  19
ENDBRANCH   1  15
BRANCH   1  30
HETATM   30  C           1     -37.479   0.002  -9.683  0.00  0.00     0.197 C 
HETATM   31  O           1     -37.521  -0.590  -8.583  0.00  0.00    -0.646 OA
HETATM   32  O           1     -38.074   1.091  -9.830  0.00  0.00    -0.646 OA
ENDBRANCH   1  30
TORSDOF 11
ENDMDL
MODEL 3
REMARK VINA RESULT:      -7.4     12.236     14.479
REMARK  11 active torsions:
REMARK  status: ('A' for Active; 'I' for Inactive)
REMARK    1  A    between atoms: C_1  and  C_6 
REMARK       I    between atoms: C_2  and  N_9 
REMARK    2  A    between atoms: C_2  and  C_3 
REMARK    3  A    between atoms: C_3  and  C_4 
REMARK    4  A    between atoms: C_3  and  N_25 
REMARK    5  A    between atoms: C_4  and  C_5 
REMARK       I    between atoms: C_5  and  N_13 
REMARK    6  A    between atoms: C_6  and  C_16 
REMARK    7  A    between atoms: P_7  and  O_8 
REMARK    8  A    between atoms: P_7  and  O_22 
REMARK    9  A    between atoms: O_8  and  C_10 
REMARK   10  A    between atoms: N_9  and  C_16 
REMARK   11  A    between atoms: C_16  and  C_18 
ROOT
HETATM    1  C           1     -21.237  -7.569  -5.343  0.00  0.00     0.189 C 
ENDROOT
BRANCH   1   2
HETATM    2  C           1     -20.316  -6.401  -5.672  0.00  0.00     0.074 C 
BRANCH   2   3
HETATM    3  C           1     -20.890  -5.615  -6.809  0.00  0.00    -0.056 A 
HETATM    4  C           1     -22.133  -4.996  -6.670  0.00  0.00     0.010 A 
HETATM    5  C           1     -22.669  -4.264  -7.729  0.00  0.00     0.038 A 
HETATM    6  C           1     -21.962  -4.149  -8.926  0.00  0.00     0.081 A 
HETATM    7  C           1     -20.720  -4.768  -9.064  0.00  0.00     0.038 A 
HETATM    8  C           1     -20.184  -5.500  -8.006  0.00  0.00     0.010 A 
BRANCH   6   9
HETATM    9  O           1     -22.483  -3.438  -9.956  0.00  0.00    -0.247 OA
BRANCH   9  10
HETATM   10  P           1     -23.595  -4.151 -10.884  0.00  0.00     0.411 P 
HETATM   11  O           1     -24.788  -3.280 -10.983  0.00  0.00    -0.624 OA
HETATM   12  O           1     -23.980  -5.448 -10.285  0.00  0.00    -0.624 OA
BRANCH  10  13
HETATM   13  O           1     -22.985  -4.398 -12.359  0.00  0.00    -0.300 OA
HETATM   14  H           1     -22.319  -3.741 -12.461  0.00  0.00     0.223 HD
ENDBRANCH  10  13
ENDBRANCH   9  10
ENDBRANCH   6   9
ENDBRANCH   2   3
ENDBRANCH   1   2
BRANCH   1  15
HETATM   15  N           1     -22.182  -7.165  -4.320  0.00  0.00    -0.344 N 
HETATM   16  C           1     -21.731  -6.770  -3.090  0.00  0.00     0.249 C 
HETATM   17  O           1     -21.477  -5.606  -2.885  0.00  0.00    -0.271 OA
HETATM   18  H           1     -23.175  -7.177  -4.515  0.00  0.00     0.163 HD
BRANCH  16  19
HETATM   19  C           1     -21.551  -7.785  -1.988  0.00  0.00     0.283 C 
BRANCH  19  20
HETATM   20  C           1     -22.327  -7.341  -0.755  0.00  0.00     0.145 C 
BRANCH  20  21
HETATM   21  C           1     -22.368  -8.469   0.247  0.00  0.00     0.217 C 
HETATM   22  N           1     -23.344  -9.426   0.160  0.00  0.00    -0.370 N 
HETATM   23  H           1     -23.372 -10.183   0.831  0.00  0.00     0.159 HD
HETATM   24  H           1     -24.037  -9.377  -0.576  0.00  0.00     0.159 HD
HETATM   25  O           1     -21.541  -8.528   1.125  0.00  0.00    -0.274 OA
ENDBRANCH  20  21
ENDBRANCH  19  20
BRANCH  19  26
HETATM   26  N           1     -20.094  -7.899  -1.648  0.00  0.00    -0.066 N 
HETATM   27  H           1     -19.706  -8.774  -2.071  0.00  0.00     0.275 HD
HETATM   28  H           1     -19.582  -7.072  -2.030  0.00  0.00     0.275 HD
HETATM   29  H           1     -19.981  -7.933  -0.610  0.00  0.00     0.275 HD
ENDBRANCH  19  26
ENDBRANCH  16  19
ENDBRANCH   1  15
BRANCH   1  30
HETATM   30  C           1     -20.417  -8.732  -4.840  0.00  0.00     0.197 C 
HETATM   31  O           1     -20.941  -9.860  -4.721  0.00  0.00    -0.646 OA
HETATM   32  O           1     -19.215  -8.566  -4.543  0.00  0.00    -0.646 OA
ENDBRANCH   1  30
TORSDOF 11
ENDMDL
MODEL 4
REMARK VINA RESULT:      -7.3     12.006     14.583
REMARK  11 active torsions:
REMARK  status: ('A' for Active; 'I' for Inactive)
REMARK    1  A    between atoms: C_1  and  C_6 
REMARK       I    between atoms: C_2  and  N_9 
REMARK    2  A    between atoms: C_2  and  C_3 
REMARK    3  A    between atoms: C_3  and  C_4 
REMARK    4  A    between atoms: C_3  and  N_25 
REMARK    5  A    between atoms: C_4  and  C_5 
REMARK       I    between atoms: C_5  and  N_13 
REMARK    6  A    between atoms: C_6  and  C_16 
REMARK    7  A    between atoms: P_7  and  O_8 
REMARK    8  A    between atoms: P_7  and  O_22 
REMARK    9  A    between atoms: O_8  and  C_10 
REMARK   10  A    between atoms: N_9  and  C_16 
REMARK   11  A    between atoms: C_16  and  C_18 
ROOT
HETATM    1  C           1     -20.659  -4.698  -6.810  0.00  0.00     0.189 C 
ENDROOT
BRANCH   1   2
HETATM    2  C           1     -21.222  -6.113  -6.778  0.00  0.00     0.074 C 
BRANCH   2   3
HETATM    3  C           1     -21.024  -6.699  -5.415  0.00  0.00    -0.056 A 
HETATM    4  C           1     -21.627  -6.104  -4.306  0.00  0.00     0.010 A 
HETATM    5  C           1     -21.442  -6.649  -3.036  0.00  0.00     0.038 A 
HETATM    6  C           1     -20.656  -7.790  -2.874  0.00  0.00     0.081 A 
HETATM    7  C           1     -20.054  -8.385  -3.982  0.00  0.00     0.038 A 
HETATM    8  C           1     -20.237  -7.840  -5.252  0.00  0.00     0.010 A 
BRANCH   6   9
HETATM    9  O           1     -20.476  -8.320  -1.640  0.00  0.00    -0.247 OA
BRANCH   9  10
HETATM   10  P           1     -21.664  -9.223  -1.021  0.00  0.00     0.411 P 
HETATM   11  O           1     -22.309  -9.999  -2.103  0.00  0.00    -0.624 OA
HETATM   12  O           1     -22.666  -8.344  -0.378  0.00  0.00    -0.624 OA
BRANCH  10  13
HETATM   13  O           1     -21.051 -10.236   0.077  0.00  0.00    -0.300 OA
HETATM   14  H           1     -20.357 -10.688  -0.369  0.00  0.00     0.223 HD
ENDBRANCH  10  13
ENDBRANCH   9  10
ENDBRANCH   6   9
ENDBRANCH   2   3
ENDBRANCH   1   2
BRANCH   1  15
HETATM   15  N           1     -21.711  -3.768  -7.170  0.00  0.00    -0.344 N 
HETATM   16  C           1     -22.923  -4.238  -7.600  0.00  0.00     0.249 C 
HETATM   17  O           1     -23.804  -4.455  -6.802  0.00  0.00    -0.271 OA
HETATM   18  H           1     -21.550  -2.771  -7.103  0.00  0.00     0.163 HD
BRANCH  16  19
HETATM   19  C           1     -23.159  -4.484  -9.070  0.00  0.00     0.283 C 
BRANCH  19  20
HETATM   20  C           1     -22.477  -3.393  -9.885  0.00  0.00     0.145 C 
BRANCH  20  21
HETATM   21  C           1     -22.057  -3.953 -11.223  0.00  0.00     0.217 C 
HETATM   22  N           1     -20.763  -3.809 -11.649  0.00  0.00    -0.370 N 
HETATM   23  H           1     -20.481  -4.185 -12.545  0.00  0.00     0.159 HD
HETATM   24  H           1     -20.089  -3.329 -11.067  0.00  0.00     0.159 HD
HETATM   25  O           1     -22.861  -4.527 -11.917  0.00  0.00    -0.274 OA
ENDBRANCH  20  21
ENDBRANCH  19  20
BRANCH  19  26
HETATM   26  N           1     -24.633  -4.468  -9.347  0.00  0.00    -0.066 N 
HETATM   27  H           1     -24.813  -4.865 -10.298  0.00  0.00     0.275 HD
HETATM   28  H           1     -25.129  -5.045  -8.631  0.00  0.00     0.275 HD
HETATM   29  H           1     -24.984  -3.485  -9.308  0.00  0.00     0.275 HD
ENDBRANCH  19  26
ENDBRANCH  16  19
ENDBRANCH   1  15
BRANCH   1  30
HETATM   30  C           1     -19.549  -4.621  -7.831  0.00  0.00     0.197 C 
HETATM   31  O           1     -18.452  -4.107  -7.524  0.00  0.00    -0.646 OA
HETATM   32  O           1     -19.728  -5.071  -8.983  0.00  0.00    -0.646 OA
ENDBRANCH   1  30
TORSDOF 11
ENDMDL
MODEL 5
REMARK VINA RESULT:      -6.9     11.927     14.272
REMARK  11 active torsions:
REMARK  status: ('A' for Active; 'I' for Inactive)
REMARK    1  A    between atoms: C_1  and  C_6 
REMARK       I    between atoms: C_2  and  N_9 
REMARK    2  A    between atoms: C_2  and  C_3 
REMARK    3  A    between atoms: C_3  and  C_4 
REMARK    4  A    between atoms: C_3  and  N_25 
REMARK    5  A    between atoms: C_4  and  C_5 
REMARK       I    between atoms: C_5  and  N_13 
REMARK    6  A    between atoms: C_6  and  C_16 
REMARK    7  A    between atoms: P_7  and  O_8 
REMARK    8  A    between atoms: P_7  and  O_22 
REMARK    9  A    between atoms: O_8  and  C_10 
REMARK   10  A    between atoms: N_9  and  C_16 
REMARK   11  A    between atoms: C_16  and  C_18 
ROOT
HETATM    1  C           1     -20.706  -7.599  -5.583  0.00  0.00     0.189 C 
ENDROOT
BRANCH   1   2
HETATM    2  C           1     -20.404  -6.109  -5.494  0.00  0.00     0.074 C 
BRANCH   2   3
HETATM    3  C           1     -20.929  -5.418  -6.714  0.00  0.00    -0.056 A 
HETATM    4  C           1     -20.187  -5.429  -7.895  0.00  0.00     0.010 A 
HETATM    5  C           1     -20.675  -4.785  -9.031  0.00  0.00     0.038 A 
HETATM    6  C           1     -21.906  -4.131  -8.987  0.00  0.00     0.081 A 
HETATM    7  C           1     -22.648  -4.119  -7.806  0.00  0.00     0.038 A 
HETATM    8  C           1     -22.159  -4.762  -6.669  0.00  0.00     0.010 A 
BRANCH   6   9
HETATM    9  O           1     -22.382  -3.504 -10.091  0.00  0.00    -0.247 OA
BRANCH   9  10
HETATM   10  P           1     -23.595  -4.202 -10.896  0.00  0.00     0.411 P 
HETATM   11  O           1     -23.943  -5.486 -10.250  0.00  0.00    -0.624 OA
HETATM   12  O           1     -23.180  -4.449 -12.295  0.00  0.00    -0.624 OA
BRANCH  10  13
HETATM   13  O           1     -24.882  -3.225 -10.880  0.00  0.00    -0.300 OA
HETATM   14  H           1     -24.526  -2.353 -10.887  0.00  0.00     0.223 HD
ENDBRANCH  10  13
ENDBRANCH   9  10
ENDBRANCH   6   9
ENDBRANCH   2   3
ENDBRANCH   1   2
BRANCH   1  15
HETATM   15  N           1     -21.730  -7.942  -4.616  0.00  0.00    -0.344 N 
HETATM   16  C           1     -22.204  -6.991  -3.754  0.00  0.00     0.249 C 
HETATM   17  O           1     -23.155  -6.313  -4.067  0.00  0.00    -0.271 OA
HETATM   18  H           1     -22.093  -8.886  -4.577  0.00  0.00     0.163 HD
BRANCH  16  19
HETATM   19  C           1     -21.542  -6.786  -2.414  0.00  0.00     0.283 C 
BRANCH  19  20
HETATM   20  C           1     -22.093  -7.795  -1.414  0.00  0.00     0.145 C 
BRANCH  20  21
HETATM   21  C           1     -21.520  -9.160  -1.708  0.00  0.00     0.217 C 
HETATM   22  N           1     -20.203  -9.421  -1.437  0.00  0.00    -0.370 N 
HETATM   23  H           1     -19.818 -10.337  -1.633  0.00  0.00     0.159 HD
HETATM   24  H           1     -19.615  -8.700  -1.039  0.00  0.00     0.159 HD
HETATM   25  O           1     -22.221 -10.021  -2.182  0.00  0.00    -0.274 OA
ENDBRANCH  20  21
ENDBRANCH  19  20
BRANCH  19  26
HETATM   26  N           1     -21.821  -5.395  -1.926  0.00  0.00    -0.066 N 
HETATM   27  H           1     -21.779  -4.730  -2.732  0.00  0.00     0.275 HD
HETATM   28  H           1     -22.773  -5.362  -1.496  0.00  0.00     0.275 HD
HETATM   29  H           1     -21.106  -5.126  -1.214  0.00  0.00     0.275 HD
ENDBRANCH  19  26
ENDBRANCH  16  19
ENDBRANCH   1  15
BRANCH   1  30
HETATM   30  C           1     -19.452  -8.385  -5.288  0.00  0.00     0.197 C 
HETATM   31  O           1     -19.171  -8.695  -4.110  0.00  0.00    -0.646 OA
HETATM   32  O           1     -18.695  -8.728  -6.222  0.00  0.00    -0.646 OA
ENDBRANCH   1  30
TORSDOF 11
ENDMDL
MODEL 6
REMARK VINA RESULT:      -6.6     12.987     15.421
REMARK  11 active torsions:
REMARK  status: ('A' for Active; 'I' for Inactive)
REMARK    1  A    between atoms: C_1  and  C_6 
REMARK       I    between atoms: C_2  and  N_9 
REMARK    2  A    between atoms: C_2  and  C_3 
REMARK    3  A    between atoms: C_3  and  C_4 
REMARK    4  A    between atoms: C_3  and  N_25 
REMARK    5  A    between atoms: C_4  and  C_5 
REMARK       I    between atoms: C_5  and  N_13 
REMARK    6  A    between atoms: C_6  and  C_16 
REMARK    7  A    between atoms: P_7  and  O_8 
REMARK    8  A    between atoms: P_7  and  O_22 
REMARK    9  A    between atoms: O_8  and  C_10 
REMARK   10  A    between atoms: N_9  and  C_16 
REMARK   11  A    between atoms: C_16  and  C_18 
ROOT
HETATM    1  C           1     -21.066  -7.036  -6.005  0.00  0.00     0.189 C 
ENDROOT
BRANCH   1   2
HETATM    2  C           1     -19.885  -7.762  -5.374  0.00  0.00     0.074 C 
BRANCH   2   3
HETATM    3  C           1     -20.386  -8.755  -4.372  0.00  0.00    -0.056 A 
HETATM    4  C           1     -19.713  -8.925  -3.162  0.00  0.00     0.010 A 
HETATM    5  C           1     -20.178  -9.851  -2.229  0.00  0.00     0.038 A 
HETATM    6  C           1     -21.318 -10.606  -2.505  0.00  0.00     0.081 A 
HETATM    7  C           1     -21.991 -10.437  -3.715  0.00  0.00     0.038 A 
HETATM    8  C           1     -21.525  -9.512  -4.648  0.00  0.00     0.010 A 
BRANCH   6   9
HETATM    9  O           1     -21.770 -11.507  -1.599  0.00  0.00    -0.247 OA
BRANCH   9  10
HETATM   10  P           1     -22.442 -10.946  -0.242  0.00  0.00     0.411 P 
HETATM   11  O           1     -23.076  -9.636  -0.510  0.00  0.00    -0.624 OA
HETATM   12  O           1     -21.399 -10.786   0.795  0.00  0.00    -0.624 OA
BRANCH  10  13
HETATM   13  O           1     -23.561 -11.990   0.275  0.00  0.00    -0.300 OA
HETATM   14  H           1     -23.151 -12.835   0.216  0.00  0.00     0.223 HD
ENDBRANCH  10  13
ENDBRANCH   9  10
ENDBRANCH   6   9
ENDBRANCH   2   3
ENDBRANCH   1   2
BRANCH   1  15
HETATM   15  N           1     -20.594  -6.204  -7.095  0.00  0.00    -0.344 N 
HETATM   16  C           1     -21.191  -4.997  -7.343  0.00  0.00     0.249 C 
HETATM   17  O           1     -20.779  -3.997  -6.804  0.00  0.00    -0.271 OA
HETATM   18  H           1     -19.823  -6.515  -7.672  0.00  0.00     0.163 HD
BRANCH  16  19
HETATM   19  C           1     -22.363  -4.914  -8.290  0.00  0.00     0.283 C 
BRANCH  19  20
HETATM   20  C           1     -21.961  -4.124  -9.529  0.00  0.00     0.145 C 
BRANCH  20  21
HETATM   21  C           1     -22.749  -4.617 -10.718  0.00  0.00     0.217 C 
HETATM   22  N           1     -22.196  -4.575 -11.970  0.00  0.00    -0.370 N 
HETATM   23  H           1     -22.723  -4.906 -12.768  0.00  0.00     0.159 HD
HETATM   24  H           1     -21.259  -4.214 -12.098  0.00  0.00     0.159 HD
HETATM   25  O           1     -23.866  -5.050 -10.565  0.00  0.00    -0.274 OA
ENDBRANCH  20  21
ENDBRANCH  19  20
BRANCH  19  26
HETATM   26  N           1     -23.508  -4.227  -7.607  0.00  0.00    -0.066 N 
HETATM   27  H           1     -24.308  -4.138  -8.275  0.00  0.00     0.275 HD
HETATM   28  H           1     -23.807  -4.789  -6.779  0.00  0.00     0.275 HD
HETATM   29  H           1     -23.207  -3.276  -7.295  0.00  0.00     0.275 HD
ENDBRANCH  19  26
ENDBRANCH  16  19
ENDBRANCH   1  15
BRANCH   1  30
HETATM   30  C           1     -21.739  -6.171  -4.967  0.00  0.00     0.197 C 
HETATM   31  O           1     -22.982  -6.037  -4.978  0.00  0.00    -0.646 OA
HETATM   32  O           1     -21.055  -5.592  -4.098  0.00  0.00    -0.646 OA
ENDBRANCH   1  30
TORSDOF 11
ENDMDL
MODEL 7
REMARK VINA RESULT:      -6.5     13.704     16.074
REMARK  11 active torsions:
REMARK  status: ('A' for Active; 'I' for Inactive)
REMARK    1  A    between atoms: C_1  and  C_6 
REMARK       I    between atoms: C_2  and  N_9 
REMARK    2  A    between atoms: C_2  and  C_3 
REMARK    3  A    between atoms: C_3  and  C_4 
REMARK    4  A    between atoms: C_3  and  N_25 
REMARK    5  A    between atoms: C_4  and  C_5 
REMARK       I    between atoms: C_5  and  N_13 
REMARK    6  A    between atoms: C_6  and  C_16 
REMARK    7  A    between atoms: P_7  and  O_8 
REMARK    8  A    between atoms: P_7  and  O_22 
REMARK    9  A    between atoms: O_8  and  C_10 
REMARK   10  A    between atoms: N_9  and  C_16 
REMARK   11  A    between atoms: C_16  and  C_18 
ROOT
HETATM    1  C           1     -21.383  -7.702  -2.330  0.00  0.00     0.189 C 
ENDROOT
BRANCH   1   2
HETATM    2  C           1     -19.930  -8.140  -2.196  0.00  0.00     0.074 C 
BRANCH   2   3
HETATM    3  C           1     -19.667  -9.288  -3.121  0.00  0.00    -0.056 A 
HETATM    4  C           1     -18.703  -9.168  -4.123  0.00  0.00     0.010 A 
HETATM    5  C           1     -18.458 -10.237  -4.985  0.00  0.00     0.038 A 
HETATM    6  C           1     -19.175 -11.425  -4.844  0.00  0.00     0.081 A 
HETATM    7  C           1     -20.139 -11.544  -3.843  0.00  0.00     0.038 A 
HETATM    8  C           1     -20.384 -10.475  -2.981  0.00  0.00     0.010 A 
BRANCH   6   9
HETATM    9  O           1     -18.937 -12.463  -5.682  0.00  0.00    -0.247 OA
BRANCH   9  10
HETATM   10  P           1     -19.690 -12.474  -7.111  0.00  0.00     0.411 P 
HETATM   11  O           1     -18.803 -11.886  -8.140  0.00  0.00    -0.624 OA
HETATM   12  O           1     -20.933 -11.678  -7.018  0.00  0.00    -0.624 OA
BRANCH  10  13
HETATM   13  O           1     -20.052 -13.994  -7.516  0.00  0.00    -0.300 OA
HETATM   14  H           1     -19.798 -14.073  -8.419  0.00  0.00     0.223 HD
ENDBRANCH  10  13
ENDBRANCH   9  10
ENDBRANCH   6   9
ENDBRANCH   2   3
ENDBRANCH   1   2
BRANCH   1  15
HETATM   15  N           1     -21.437  -6.390  -2.947  0.00  0.00    -0.344 N 
HETATM   16  C           1     -21.726  -6.272  -4.279  0.00  0.00     0.249 C 
HETATM   17  O           1     -22.873  -6.153  -4.640  0.00  0.00    -0.271 OA
HETATM   18  H           1     -21.260  -5.563  -2.391  0.00  0.00     0.163 HD
BRANCH  16  19
HETATM   19  C           1     -20.613  -6.288  -5.299  0.00  0.00     0.283 C 
BRANCH  19  20
HETATM   20  C           1     -20.414  -4.885  -5.857  0.00  0.00     0.145 C 
BRANCH  20  21
HETATM   21  C           1     -21.173  -4.747  -7.154  0.00  0.00     0.217 C 
HETATM   22  N           1     -22.445  -4.239  -7.153  0.00  0.00    -0.370 N 
HETATM   23  H           1     -22.954  -4.146  -8.023  0.00  0.00     0.159 HD
HETATM   24  H           1     -22.875  -3.955  -6.282  0.00  0.00     0.159 HD
HETATM   25  O           1     -20.659  -5.085  -8.194  0.00  0.00    -0.274 OA
ENDBRANCH  20  21
ENDBRANCH  19  20
BRANCH  19  26
HETATM   26  N           1     -20.973  -7.224  -6.414  0.00  0.00    -0.066 N 
HETATM   27  H           1     -21.999  -7.425  -6.383  0.00  0.00     0.275 HD
HETATM   28  H           1     -20.733  -6.782  -7.330  0.00  0.00     0.275 HD
HETATM   29  H           1     -20.440  -8.116  -6.305  0.00  0.00     0.275 HD
ENDBRANCH  19  26
ENDBRANCH  16  19
ENDBRANCH   1  15
BRANCH   1  30
HETATM   30  C           1     -22.018  -7.640  -0.962  0.00  0.00     0.197 C 
HETATM   31  O           1     -21.714  -8.486  -0.094  0.00  0.00    -0.646 OA
HETATM   32  O           1     -22.848  -6.744  -0.698  0.00  0.00    -0.646 OA
ENDBRANCH   1  30
TORSDOF 11
ENDMDL
MODEL 8
REMARK VINA RESULT:      -6.4     14.490     16.815
REMARK  11 active torsions:
REMARK  status: ('A' for Active; 'I' for Inactive)
REMARK    1  A    between atoms: C_1  and  C_6 
REMARK       I    between atoms: C_2  and  N_9 
REMARK    2  A    between atoms: C_2  and  C_3 
REMARK    3  A    between atoms: C_3  and  C_4 
REMARK    4  A    between atoms: C_3  and  N_25 
REMARK    5  A    between atoms: C_4  and  C_5 
REMARK       I    between atoms: C_5  and  N_13 
REMARK    6  A    between atoms: C_6  and  C_16 
REMARK    7  A    between atoms: P_7  and  O_8 
REMARK    8  A    between atoms: P_7  and  O_22 
REMARK    9  A    between atoms: O_8  and  C_10 
REMARK   10  A    between atoms: N_9  and  C_16 
REMARK   11  A    between atoms: C_16  and  C_18 
ROOT
HETATM    1  C           1     -20.705  -8.538  -2.936  0.00  0.00     0.189 C 
ENDROOT
BRANCH   1   2
HETATM    2  C           1     -19.382  -8.846  -2.248  0.00  0.00     0.074 C 
BRANCH   2   3
HETATM    3  C           1     -18.379  -9.290  -3.267  0.00  0.00    -0.056 A 
HETATM    4  C           1     -18.793  -9.606  -4.561  0.00  0.00     0.010 A 
HETATM    5  C           1     -17.860 -10.021  -5.510  0.00  0.00     0.038 A 
HETATM    6  C           1     -16.512 -10.119  -5.166  0.00  0.00     0.081 A 
HETATM    7  C           1     -16.097  -9.804  -3.872  0.00  0.00     0.038 A 
HETATM    8  C           1     -17.031  -9.390  -2.922  0.00  0.00     0.010 A 
BRANCH   6   9
HETATM    9  O           1     -15.604 -10.523  -6.088  0.00  0.00    -0.247 OA
BRANCH   9  10
HETATM   10  P           1     -15.400 -12.110  -6.308  0.00  0.00     0.411 P 
HETATM   11  O           1     -15.673 -12.823  -5.041  0.00  0.00    -0.624 OA
HETATM   12  O           1     -14.007 -12.373  -6.732  0.00  0.00    -0.624 OA
BRANCH  10  13
HETATM   13  O           1     -16.418 -12.629  -7.449  0.00  0.00    -0.300 OA
HETATM   14  H           1     -16.093 -13.476  -7.698  0.00  0.00     0.223 HD
ENDBRANCH  10  13
ENDBRANCH   9  10
ENDBRANCH   6   9
ENDBRANCH   2   3
ENDBRANCH   1   2
BRANCH   1  15
HETATM   15  N           1     -20.845  -7.104  -3.093  0.00  0.00    -0.344 N 
HETATM   16  C           1     -21.342  -6.587  -4.259  0.00  0.00     0.249 C 
HETATM   17  O           1     -22.531  -6.411  -4.384  0.00  0.00    -0.271 OA
HETATM   18  H           1     -20.576  -6.484  -2.340  0.00  0.00     0.163 HD
BRANCH  16  19
HETATM   19  C           1     -20.405  -6.237  -5.390  0.00  0.00     0.283 C 
BRANCH  19  20
HETATM   20  C           1     -20.329  -4.723  -5.537  0.00  0.00     0.145 C 
BRANCH  20  21
HETATM   21  C           1     -20.903  -4.318  -6.873  0.00  0.00     0.217 C 
HETATM   22  N           1     -20.068  -3.939  -7.890  0.00  0.00    -0.370 N 
HETATM   23  H           1     -20.453  -3.667  -8.786  0.00  0.00     0.159 HD
HETATM   24  H           1     -19.067  -3.931  -7.746  0.00  0.00     0.159 HD
HETATM   25  O           1     -22.099  -4.329  -7.045  0.00  0.00    -0.274 OA
ENDBRANCH  20  21
ENDBRANCH  19  20
BRANCH  19  26
HETATM   26  N           1     -20.917  -6.839  -6.665  0.00  0.00    -0.066 N 
HETATM   27  H           1     -21.489  -6.130  -7.180  0.00  0.00     0.275 HD
HETATM   28  H           1     -20.110  -7.132  -7.260  0.00  0.00     0.275 HD
HETATM   29  H           1     -21.509  -7.671  -6.444  0.00  0.00     0.275 HD
ENDBRANCH  19  26
ENDBRANCH  16  19
ENDBRANCH   1  15
BRANCH   1  30
HETATM   30  C           1     -21.844  -9.066  -2.098  0.00  0.00     0.197 C 
HETATM   31  O           1     -22.335 -10.188  -2.347  0.00  0.00    -0.646 OA
HETATM   32  O           1     -22.294  -8.382  -1.154  0.00  0.00    -0.646 OA
ENDBRANCH   1  30
TORSDOF 11
ENDMDL
MODEL 9
REMARK VINA RESULT:      -6.4     14.684     17.380
REMARK  11 active torsions:
REMARK  status: ('A' for Active; 'I' for Inactive)
REMARK    1  A    between atoms: C_1  and  C_6 
REMARK       I    between atoms: C_2  and  N_9 
REMARK    2  A    between atoms: C_2  and  C_3 
REMARK    3  A    between atoms: C_3  and  C_4 
REMARK    4  A    between atoms: C_3  and  N_25 
REMARK    5  A    between atoms: C_4  and  C_5 
REMARK       I    between atoms: C_5  and  N_13 
REMARK    6  A    between atoms: C_6  and  C_16 
REMARK    7  A    between atoms: P_7  and  O_8 
REMARK    8  A    between atoms: P_7  and  O_22 
REMARK    9  A    between atoms: O_8  and  C_10 
REMARK   10  A    between atoms: N_9  and  C_16 
REMARK   11  A    between atoms: C_16  and  C_18 
ROOT
HETATM    1  C           1     -20.694  -9.758  -1.384  0.00  0.00     0.189 C 
ENDROOT
BRANCH   1   2
HETATM    2  C           1     -21.870  -9.503  -2.318  0.00  0.00     0.074 C 
BRANCH   2   3
HETATM    3  C           1     -21.567  -8.329  -3.195  0.00  0.00    -0.056 A 
HETATM    4  C           1     -21.496  -7.048  -2.646  0.00  0.00     0.010 A 
HETATM    5  C           1     -21.215  -5.954  -3.463  0.00  0.00     0.038 A 
HETATM    6  C           1     -21.003  -6.140  -4.829  0.00  0.00     0.081 A 
HETATM    7  C           1     -21.074  -7.420  -5.378  0.00  0.00     0.038 A 
HETATM    8  C           1     -21.356  -8.514  -4.562  0.00  0.00     0.010 A 
BRANCH   6   9
HETATM    9  O           1     -20.730  -5.076  -5.624  0.00  0.00    -0.247 OA
BRANCH   9  10
HETATM   10  P           1     -21.777  -4.720  -6.801  0.00  0.00     0.411 P 
HETATM   11  O           1     -23.152  -5.021  -6.347  0.00  0.00    -0.624 OA
HETATM   12  O           1     -21.464  -5.529  -8.000  0.00  0.00    -0.624 OA
BRANCH  10  13
HETATM   13  O           1     -21.662  -3.150  -7.165  0.00  0.00    -0.300 OA
HETATM   14  H           1     -20.984  -2.819  -6.601  0.00  0.00     0.223 HD
ENDBRANCH  10  13
ENDBRANCH   9  10
ENDBRANCH   6   9
ENDBRANCH   2   3
ENDBRANCH   1   2
BRANCH   1  15
HETATM   15  N           1     -20.147 -11.075  -1.645  0.00  0.00    -0.344 N 
HETATM   16  C           1     -18.837 -11.211  -2.017  0.00  0.00     0.249 C 
HETATM   17  O           1     -17.983 -11.357  -1.175  0.00  0.00    -0.271 OA
HETATM   18  H           1     -20.735 -11.894  -1.553  0.00  0.00     0.163 HD
BRANCH  16  19
HETATM   19  C           1     -18.458 -11.181  -3.477  0.00  0.00     0.283 C 
BRANCH  19  20
HETATM   20  C           1     -18.060  -9.765  -3.870  0.00  0.00     0.145 C 
BRANCH  20  21
HETATM   21  C           1     -17.561  -9.759  -5.295  0.00  0.00     0.217 C 
HETATM   22  N           1     -16.271 -10.131  -5.569  0.00  0.00    -0.370 N 
HETATM   23  H           1     -15.936 -10.128  -6.524  0.00  0.00     0.159 HD
HETATM   24  H           1     -15.654 -10.410  -4.818  0.00  0.00     0.159 HD
HETATM   25  O           1     -18.298  -9.427  -6.192  0.00  0.00    -0.274 OA
ENDBRANCH  20  21
ENDBRANCH  19  20
BRANCH  19  26
HETATM   26  N           1     -19.630 -11.619  -4.305  0.00  0.00    -0.066 N 
HETATM   27  H           1     -19.764 -10.952  -5.100  0.00  0.00     0.275 HD
HETATM   28  H           1     -19.452 -12.577  -4.681  0.00  0.00     0.275 HD
HETATM   29  H           1     -20.491 -11.630  -3.712  0.00  0.00     0.275 HD
ENDBRANCH  19  26
ENDBRANCH  16  19
ENDBRANCH   1  15
BRANCH   1  30
HETATM   30  C           1     -21.163  -9.683   0.049  0.00  0.00     0.197 C 
HETATM   31  O           1     -20.962 -10.644   0.823  0.00  0.00    -0.646 OA
HETATM   32  O           1     -21.752  -8.661   0.461  0.00  0.00    -0.646 OA
ENDBRANCH   1  30
TORSDOF 11
ENDMDL
