MODEL 1
REMARK VINA RESULT:      -7.6      0.000      0.000
REMARK  11 active torsions:
REMARK  status: ('A' for Active; 'I' for Inactive)
REMARK    1  A    between atoms: C_1  and  C_15 
REMARK    2  A    between atoms: C_1  and  C_2 
REMARK    3  A    between atoms: C_2  and  C_3 
REMARK    4  A    between atoms: C_3  and  C_23 
REMARK    5  A    between atoms: N_8  and  C_15 
REMARK    6  A    between atoms: C_9  and  C_16 
REMARK    7  A    between atoms: N_11  and  C_16 
REMARK       I    between atoms: N_11  and  C_14 
REMARK    8  A    between atoms: C_13  and  C_25 
REMARK    9  A    between atoms: C_14  and  C_15 
REMARK   10  A    between atoms: C_16  and  C_25 
REMARK   11  A    between atoms: N_17  and  C_23 
ROOT
HETATM    1  N           1     -35.691  -1.227 -10.141  0.00  0.00    -0.344 N 
HETATM    2  H           1     -36.024  -1.566  -9.247  0.00  0.00     0.163 HD
HETATM    3  C           1     -34.692  -1.895 -10.797  0.00  0.00     0.249 C 
HETATM    4  O           1     -33.537  -1.603 -10.598  0.00  0.00    -0.271 OA
ENDROOT
BRANCH   3   5
HETATM    5  C           1     -35.036  -2.996 -11.770  0.00  0.00     0.274 C 
BRANCH   5   6
HETATM    6  C           1     -35.332  -4.278 -11.003  0.00  0.00     0.042 C 
BRANCH   6   7
HETATM    7  C           1     -34.023  -4.908 -10.542  0.00  0.00     0.004 C 
BRANCH   7   8
HETATM    8  C           1     -34.053  -6.405 -10.824  0.00  0.00     0.027 C 
BRANCH   8   9
HETATM    9  C           1     -34.918  -7.102  -9.783  0.00  0.00     0.229 C 
BRANCH   9  10
HETATM   10  N           1     -34.407  -8.494  -9.559  0.00  0.00    -0.079 N 
HETATM   11  H           1     -34.363  -8.689  -8.533  0.00  0.00     0.274 HD
HETATM   12  H           1     -33.451  -8.585  -9.972  0.00  0.00     0.274 HD
HETATM   13  H           1     -35.051  -9.180 -10.016  0.00  0.00     0.274 HD
ENDBRANCH   9  10
ENDBRANCH   8   9
ENDBRANCH   7   8
ENDBRANCH   6   7
ENDBRANCH   5   6
BRANCH   5  14
HETATM   14  N           1     -33.878  -3.225 -12.696  0.00  0.00    -0.067 N 
HETATM   15  H           1     -34.234  -3.384 -13.666  0.00  0.00     0.275 HD
HETATM   16  H           1     -33.340  -4.064 -12.381  0.00  0.00     0.275 HD
HETATM   17  H           1     -33.253  -2.387 -12.687  0.00  0.00     0.275 HD
ENDBRANCH   5  14
ENDBRANCH   3   5
BRANCH   1  18
HETATM   18  C           1     -36.271  -0.033 -10.724  0.00  0.00     0.189 C 
BRANCH  18  19
HETATM   19  C           1     -36.921   0.791  -9.641  0.00  0.00     0.197 C 
HETATM   20  O           1     -38.039   1.313  -9.839  0.00  0.00    -0.646 OA
HETATM   21  O           1     -36.342   0.950  -8.545  0.00  0.00    -0.646 OA
ENDBRANCH  18  19
BRANCH  18  22
HETATM   22  C           1     -37.317  -0.430 -11.758  0.00  0.00     0.074 C 
BRANCH  22  23
HETATM   23  C           1     -36.859  -0.008 -13.119  0.00  0.00    -0.056 A 
HETATM   24  C           1     -35.559   0.462 -13.304  0.00  0.00     0.007 A 
HETATM   25  C           1     -35.133   0.857 -14.572  0.00  0.00     0.001 A 
HETATM   26  C           1     -36.007   0.779 -15.657  0.00  0.00     0.000 A 
HETATM   27  C           1     -37.308   0.308 -15.472  0.00  0.00     0.001 A 
HETATM   28  C           1     -37.733  -0.086 -14.204  0.00  0.00     0.007 A 
ENDBRANCH  22  23
ENDBRANCH  18  22
ENDBRANCH   1  18
TORSDOF 11
ENDMDL
MODEL 2
REMARK VINA RESULT:      -6.8     14.235     17.553
REMARK  11 active torsions:
REMARK  status: ('A' for Active; 'I' for Inactive)
REMARK    1  A    between atoms: C_1  and  C_15 
REMARK    2  A    between atoms: C_1  and  C_2 
REMARK    3  A    between atoms: C_2  and  C_3 
REMARK    4  A    between atoms: C_3  and  C_23 
REMARK    5  A    between atoms: N_8  and  C_15 
REMARK    6  A    between atoms: C_9  and  C_16 
REMARK    7  A    between atoms: N_11  and  C_16 
REMARK       I    between atoms: N_11  and  C_14 
REMARK    8  A    between atoms: C_13  and  C_25 
REMARK    9  A    between atoms: C_14  and  C_15 
REMARK   10  A    between atoms: C_16  and  C_25 
REMARK   11  A    between atoms: N_17  and  C_23 
ROOT
HETATM    1  N           1     -20.099  -6.871  -6.721  0.00  0.00    -0.344 N 
HETATM    2  H           1     -20.085  -7.498  -7.516  0.00  0.00     0.163 HD
HETATM    3  C           1     -20.182  -5.519  -6.919  0.00  0.00     0.249 C 
HETATM    4  O           1     -19.175  -4.862  -7.034  0.00  0.00    -0.271 OA
ENDROOT
BRANCH   3   5
HETATM    5  C           1     -21.532  -4.849  -6.990  0.00  0.00     0.274 C 
BRANCH   5   6
HETATM    6  C           1     -22.200  -5.191  -8.316  0.00  0.00     0.042 C 
BRANCH   6   7
HETATM    7  C           1     -21.701  -4.240  -9.397  0.00  0.00     0.004 C 
BRANCH   7   8
HETATM    8  C           1     -22.889  -3.681 -10.168  0.00  0.00     0.027 C 
BRANCH   8   9
HETATM    9  C           1     -24.120  -4.536  -9.898  0.00  0.00     0.229 C 
BRANCH   9  10
HETATM   10  N           1     -25.308  -3.648  -9.678  0.00  0.00    -0.079 N 
HETATM   11  H           1     -25.811  -3.946  -8.813  0.00  0.00     0.274 HD
HETATM   12  H           1     -25.953  -3.720 -10.498  0.00  0.00     0.274 HD
HETATM   13  H           1     -24.989  -2.658  -9.572  0.00  0.00     0.274 HD
ENDBRANCH   9  10
ENDBRANCH   8   9
ENDBRANCH   7   8
ENDBRANCH   6   7
ENDBRANCH   5   6
BRANCH   5  14
HETATM   14  N           1     -21.359  -3.362  -6.888  0.00  0.00    -0.067 N 
HETATM   15  H           1     -21.713  -2.911  -7.762  0.00  0.00     0.275 HD
HETATM   16  H           1     -20.346  -3.136  -6.766  0.00  0.00     0.275 HD
HETATM   17  H           1     -21.898  -3.003  -6.068  0.00  0.00     0.275 HD
ENDBRANCH   5  14
ENDBRANCH   3   5
BRANCH   1  18
HETATM   18  C           1     -20.030  -7.406  -5.375  0.00  0.00     0.189 C 
BRANCH  18  19
HETATM   19  C           1     -18.991  -8.497  -5.321  0.00  0.00     0.197 C 
HETATM   20  O           1     -18.643  -8.976  -4.220  0.00  0.00    -0.646 OA
HETATM   21  O           1     -18.477  -8.923  -6.378  0.00  0.00    -0.646 OA
ENDBRANCH  18  19
BRANCH  18  22
HETATM   22  C           1     -21.388  -7.976  -4.986  0.00  0.00     0.074 C 
BRANCH  22  23
HETATM   23  C           1     -21.657  -7.683  -3.543  0.00  0.00    -0.056 A 
HETATM   24  C           1     -21.904  -6.374  -3.131  0.00  0.00     0.007 A 
HETATM   25  C           1     -22.154  -6.101  -1.786  0.00  0.00     0.001 A 
HETATM   26  C           1     -22.160  -7.139  -0.854  0.00  0.00     0.000 A 
HETATM   27  C           1     -21.913  -8.449  -1.266  0.00  0.00     0.001 A 
HETATM   28  C           1     -21.663  -8.721  -2.611  0.00  0.00     0.007 A 
ENDBRANCH  22  23
ENDBRANCH  18  22
ENDBRANCH   1  18
TORSDOF 11
ENDMDL
MODEL 3
REMARK VINA RESULT:      -6.3     14.943     17.567
REMARK  11 active torsions:
REMARK  status: ('A' for Active; 'I' for Inactive)
REMARK    1  A    between atoms: C_1  and  C_15 
REMARK    2  A    between atoms: C_1  and  C_2 
REMARK    3  A    between atoms: C_2  and  C_3 
REMARK    4  A    between atoms: C_3  and  C_23 
REMARK    5  A    between atoms: N_8  and  C_15 
REMARK    6  A    between atoms: C_9  and  C_16 
REMARK    7  A    between atoms: N_11  and  C_16 
REMARK       I    between atoms: N_11  and  C_14 
REMARK    8  A    between atoms: C_13  and  C_25 
REMARK    9  A    between atoms: C_14  and  C_15 
REMARK   10  A    between atoms: C_16  and  C_25 
REMARK   11  A    between atoms: N_17  and  C_23 
ROOT
HETATM    1  N           1     -21.660  -7.866  -4.679  0.00  0.00    -0.344 N 
HETATM    2  H           1     -22.014  -8.812  -4.611  0.00  0.00     0.163 HD
HETATM    3  C           1     -22.154  -6.890  -3.856  0.00  0.00     0.249 C 
HETATM    4  O           1     -23.108  -6.234  -4.200  0.00  0.00    -0.271 OA
ENDROOT
BRANCH   3   5
HETATM    5  C           1     -21.504  -6.632  -2.518  0.00  0.00     0.274 C 
BRANCH   5   6
HETATM    6  C           1     -21.597  -7.887  -1.659  0.00  0.00     0.042 C 
BRANCH   6   7
HETATM    7  C           1     -22.362  -7.573  -0.380  0.00  0.00     0.004 C 
BRANCH   7   8
HETATM    8  C           1     -21.786  -8.390   0.770  0.00  0.00     0.027 C 
BRANCH   8   9
HETATM    9  C           1     -21.569  -9.827   0.314  0.00  0.00     0.229 C 
BRANCH   9  10
HETATM   10  N           1     -20.523 -10.472   1.174  0.00  0.00    -0.079 N 
HETATM   11  H           1     -20.807 -11.453   1.393  0.00  0.00     0.274 HD
HETATM   12  H           1     -20.423  -9.932   2.064  0.00  0.00     0.274 HD
HETATM   13  H           1     -19.609 -10.479   0.666  0.00  0.00     0.274 HD
ENDBRANCH   9  10
ENDBRANCH   8   9
ENDBRANCH   7   8
ENDBRANCH   6   7
ENDBRANCH   5   6
BRANCH   5  14
HETATM   14  N           1     -22.211  -5.503  -1.828  0.00  0.00    -0.067 N 
HETATM   15  H           1     -21.875  -5.434  -0.840  0.00  0.00     0.275 HD
HETATM   16  H           1     -23.241  -5.681  -1.832  0.00  0.00     0.275 HD
HETATM   17  H           1     -22.010  -4.608  -2.328  0.00  0.00     0.275 HD
ENDBRANCH   5  14
ENDBRANCH   3   5
BRANCH   1  18
HETATM   18  C           1     -20.631  -7.545  -5.649  0.00  0.00     0.189 C 
BRANCH  18  19
HETATM   19  C           1     -19.393  -8.355  -5.355  0.00  0.00     0.197 C 
HETATM   20  O           1     -19.145  -8.714  -4.183  0.00  0.00    -0.646 OA
HETATM   21  O           1     -18.616  -8.667  -6.282  0.00  0.00    -0.646 OA
ENDBRANCH  18  19
BRANCH  18  22
HETATM   22  C           1     -20.300  -6.061  -5.565  0.00  0.00     0.074 C 
BRANCH  22  23
HETATM   23  C           1     -20.673  -5.392  -6.852  0.00  0.00    -0.056 A 
HETATM   24  C           1     -21.929  -4.805  -6.994  0.00  0.00     0.007 A 
HETATM   25  C           1     -22.277  -4.183  -8.194  0.00  0.00     0.001 A 
HETATM   26  C           1     -21.367  -4.147  -9.250  0.00  0.00     0.000 A 
HETATM   27  C           1     -20.110  -4.735  -9.108  0.00  0.00     0.001 A 
HETATM   28  C           1     -19.763  -5.357  -7.908  0.00  0.00     0.007 A 
ENDBRANCH  22  23
ENDBRANCH  18  22
ENDBRANCH   1  18
TORSDOF 11
ENDMDL
MODEL 4
REMARK VINA RESULT:      -6.2     16.958     19.655
REMARK  11 active torsions:
REMARK  status: ('A' for Active; 'I' for Inactive)
REMARK    1  A    between atoms: C_1  and  C_15 
REMARK    2  A    between atoms: C_1  and  C_2 
REMARK    3  A    between atoms: C_2  and  C_3 
REMARK    4  A    between atoms: C_3  and  C_23 
REMARK    5  A    between atoms: N_8  and  C_15 
REMARK    6  A    between atoms: C_9  and  C_16 
REMARK    7  A    between atoms: N_11  and  C_16 
REMARK       I    between atoms: N_11  and  C_14 
REMARK    8  A    between atoms: C_13  and  C_25 
REMARK    9  A    between atoms: C_14  and  C_15 
REMARK   10  A    between atoms: C_16  and  C_25 
REMARK   11  A    between atoms: N_17  and  C_23 
ROOT
HETATM    1  N           1     -19.752  -8.401  -4.373  0.00  0.00    -0.344 N 
HETATM    2  H           1     -18.980  -7.748  -4.414  0.00  0.00     0.163 HD
HETATM    3  C           1     -19.541  -9.727  -4.642  0.00  0.00     0.249 C 
HETATM    4  O           1     -19.648 -10.140  -5.772  0.00  0.00    -0.271 OA
ENDROOT
BRANCH   3   5
HETATM    5  C           1     -19.175 -10.673  -3.524  0.00  0.00     0.274 C 
BRANCH   5   6
HETATM    6  C           1     -18.166 -10.003  -2.601  0.00  0.00     0.042 C 
BRANCH   6   7
HETATM    7  C           1     -16.786 -10.604  -2.835  0.00  0.00     0.004 C 
BRANCH   7   8
HETATM    8  C           1     -15.930  -9.620  -3.623  0.00  0.00     0.027 C 
BRANCH   8   9
HETATM    9  C           1     -15.536 -10.242  -4.955  0.00  0.00     0.229 C 
BRANCH   9  10
HETATM   10  N           1     -16.435  -9.720  -6.037  0.00  0.00    -0.079 N 
HETATM   11  H           1     -17.292  -9.305  -5.608  0.00  0.00     0.274 HD
HETATM   12  H           1     -16.709 -10.506  -6.671  0.00  0.00     0.274 HD
HETATM   13  H           1     -15.931  -8.988  -6.587  0.00  0.00     0.274 HD
ENDBRANCH   9  10
ENDBRANCH   8   9
ENDBRANCH   7   8
ENDBRANCH   6   7
ENDBRANCH   5   6
BRANCH   5  14
HETATM   14  N           1     -18.572 -11.920  -4.101  0.00  0.00    -0.067 N 
HETATM   15  H           1     -18.082 -11.687  -4.995  0.00  0.00     0.275 HD
HETATM   16  H           1     -19.327 -12.618  -4.290  0.00  0.00     0.275 HD
HETATM   17  H           1     -17.886 -12.322  -3.423  0.00  0.00     0.275 HD
ENDBRANCH   5  14
ENDBRANCH   3   5
BRANCH   1  18
HETATM   18  C           1     -21.080  -7.932  -4.031  0.00  0.00     0.189 C 
BRANCH  18  19
HETATM   19  C           1     -21.592  -7.030  -5.126  0.00  0.00     0.197 C 
HETATM   20  O           1     -22.397  -6.113  -4.856  0.00  0.00    -0.646 OA
HETATM   21  O           1     -21.210  -7.200  -6.305  0.00  0.00    -0.646 OA
ENDBRANCH  18  19
BRANCH  18  22
HETATM   22  C           1     -21.023  -7.159  -2.720  0.00  0.00     0.074 C 
BRANCH  22  23
HETATM   23  C           1     -21.802  -7.892  -1.673  0.00  0.00    -0.056 A 
HETATM   24  C           1     -22.377  -7.192  -0.613  0.00  0.00     0.007 A 
HETATM   25  C           1     -23.102  -7.876   0.363  0.00  0.00     0.001 A 
HETATM   26  C           1     -23.253  -9.260   0.277  0.00  0.00     0.000 A 
HETATM   27  C           1     -22.678  -9.961  -0.784  0.00  0.00     0.001 A 
HETATM   28  C           1     -21.953  -9.276  -1.759  0.00  0.00     0.007 A 
ENDBRANCH  22  23
ENDBRANCH  18  22
ENDBRANCH   1  18
TORSDOF 11
ENDMDL
MODEL 5
REMARK VINA RESULT:      -6.2     15.146     18.742
REMARK  11 active torsions:
REMARK  status: ('A' for Active; 'I' for Inactive)
REMARK    1  A    between atoms: C_1  and  C_15 
REMARK    2  A    between atoms: C_1  and  C_2 
REMARK    3  A    between atoms: C_2  and  C_3 
REMARK    4  A    between atoms: C_3  and  C_23 
REMARK    5  A    between atoms: N_8  and  C_15 
REMARK    6  A    between atoms: C_9  and  C_16 
REMARK    7  A    between atoms: N_11  and  C_16 
REMARK       I    between atoms: N_11  and  C_14 
REMARK    8  A    between atoms: C_13  and  C_25 
REMARK    9  A    between atoms: C_14  and  C_15 
REMARK   10  A    between atoms: C_16  and  C_25 
REMARK   11  A    between atoms: N_17  and  C_23 
ROOT
HETATM    1  N           1     -21.407  -8.822  -3.939  0.00  0.00    -0.344 N 
HETATM    2  H           1     -22.244  -9.267  -3.584  0.00  0.00     0.163 HD
HETATM    3  C           1     -21.480  -7.996  -5.028  0.00  0.00     0.249 C 
HETATM    4  O           1     -21.345  -8.448  -6.140  0.00  0.00    -0.271 OA
ENDROOT
BRANCH   3   5
HETATM    5  C           1     -21.727  -6.519  -4.839  0.00  0.00     0.274 C 
BRANCH   5   6
HETATM    6  C           1     -20.426  -5.756  -5.051  0.00  0.00     0.042 C 
BRANCH   6   7
HETATM    7  C           1     -20.622  -4.709  -6.140  0.00  0.00     0.004 C 
BRANCH   7   8
HETATM    8  C           1     -21.837  -5.076  -6.983  0.00  0.00     0.027 C 
BRANCH   8   9
HETATM    9  C           1     -22.276  -3.866  -7.797  0.00  0.00     0.229 C 
BRANCH   9  10
HETATM   10  N           1     -23.732  -3.993  -8.136  0.00  0.00    -0.079 N 
HETATM   11  H           1     -24.076  -3.092  -8.539  0.00  0.00     0.274 HD
HETATM   12  H           1     -24.273  -4.216  -7.270  0.00  0.00     0.274 HD
HETATM   13  H           1     -23.862  -4.759  -8.835  0.00  0.00     0.274 HD
ENDBRANCH   9  10
ENDBRANCH   8   9
ENDBRANCH   7   8
ENDBRANCH   6   7
ENDBRANCH   5   6
BRANCH   5  14
HETATM   14  N           1     -22.229  -6.271  -3.447  0.00  0.00    -0.067 N 
HETATM   15  H           1     -23.144  -5.768  -3.492  0.00  0.00     0.275 HD
HETATM   16  H           1     -21.537  -5.688  -2.925  0.00  0.00     0.275 HD
HETATM   17  H           1     -22.357  -7.184  -2.954  0.00  0.00     0.275 HD
ENDBRANCH   5  14
ENDBRANCH   3   5
BRANCH   1  18
HETATM   18  C           1     -20.130  -9.062  -3.294  0.00  0.00     0.189 C 
BRANCH  18  19
HETATM   19  C           1     -19.189  -9.719  -4.272  0.00  0.00     0.197 C 
HETATM   20  O           1     -19.446 -10.858  -4.719  0.00  0.00    -0.646 OA
HETATM   21  O           1     -18.151  -9.124  -4.636  0.00  0.00    -0.646 OA
ENDBRANCH  18  19
BRANCH  18  22
HETATM   22  C           1     -20.334  -9.975  -2.092  0.00  0.00     0.074 C 
BRANCH  22  23
HETATM   23  C           1     -21.338  -9.364  -1.165  0.00  0.00    -0.056 A 
HETATM   24  C           1     -21.095  -8.115  -0.597  0.00  0.00     0.007 A 
HETATM   25  C           1     -22.030  -7.546   0.268  0.00  0.00     0.001 A 
HETATM   26  C           1     -23.211  -8.228   0.561  0.00  0.00     0.000 A 
HETATM   27  C           1     -23.456  -9.478  -0.007  0.00  0.00     0.001 A 
HETATM   28  C           1     -22.520 -10.046  -0.871  0.00  0.00     0.007 A 
ENDBRANCH  22  23
ENDBRANCH  18  22
ENDBRANCH   1  18
TORSDOF 11
ENDMDL
MODEL 6
REMARK VINA RESULT:      -6.1     14.892     17.096
REMARK  11 active torsions:
REMARK  status: ('A' for Active; 'I' for Inactive)
REMARK    1  A    between atoms: C_1  and  C_15 
REMARK    2  A    between atoms: C_1  and  C_2 
REMARK    3  A    between atoms: C_2  and  C_3 
REMARK    4  A    between atoms: C_3  and  C_23 
REMARK    5  A    between atoms: N_8  and  C_15 
REMARK    6  A    between atoms: C_9  and  C_16 
REMARK    7  A    between atoms: N_11  and  C_16 
REMARK       I    between atoms: N_11  and  C_14 
REMARK    8  A    between atoms: C_13  and  C_25 
REMARK    9  A    between atoms: C_14  and  C_15 
REMARK   10  A    between atoms: C_16  and  C_25 
REMARK   11  A    between atoms: N_17  and  C_23 
ROOT
HETATM    1  N           1     -22.505  -6.541  -4.103  0.00  0.00    -0.344 N 
HETATM    2  H           1     -23.515  -6.489  -4.115  0.00  0.00     0.163 HD
HETATM    3  C           1     -21.831  -6.487  -2.912  0.00  0.00     0.249 C 
HETATM    4  O           1     -21.478  -5.422  -2.465  0.00  0.00    -0.271 OA
ENDROOT
BRANCH   3   5
HETATM    5  C           1     -21.528  -7.759  -2.159  0.00  0.00     0.274 C 
BRANCH   5   6
HETATM    6  C           1     -22.188  -7.707  -0.787  0.00  0.00     0.042 C 
BRANCH   6   7
HETATM    7  C           1     -21.394  -8.561   0.192  0.00  0.00     0.004 C 
BRANCH   7   8
HETATM    8  C           1     -21.895  -9.998   0.134  0.00  0.00     0.027 C 
BRANCH   8   9
HETATM    9  C           1     -23.373 -10.008  -0.233  0.00  0.00     0.229 C 
BRANCH   9  10
HETATM   10  N           1     -23.966 -11.343   0.109  0.00  0.00    -0.079 N 
HETATM   11  H           1     -24.885 -11.204   0.585  0.00  0.00     0.274 HD
HETATM   12  H           1     -23.317 -11.858   0.748  0.00  0.00     0.274 HD
HETATM   13  H           1     -24.106 -11.897  -0.766  0.00  0.00     0.274 HD
ENDBRANCH   9  10
ENDBRANCH   8   9
ENDBRANCH   7   8
ENDBRANCH   6   7
ENDBRANCH   5   6
BRANCH   5  14
HETATM   14  N           1     -20.044  -7.901  -1.994  0.00  0.00    -0.067 N 
HETATM   15  H           1     -19.596  -7.986  -2.934  0.00  0.00     0.275 HD
HETATM   16  H           1     -19.835  -8.756  -1.431  0.00  0.00     0.275 HD
HETATM   17  H           1     -19.666  -7.059  -1.502  0.00  0.00     0.275 HD
ENDBRANCH   5  14
ENDBRANCH   3   5
BRANCH   1  18
HETATM   18  C           1     -21.771  -6.672  -5.347  0.00  0.00     0.189 C 
BRANCH  18  19
HETATM   19  C           1     -20.891  -7.895  -5.284  0.00  0.00     0.197 C 
HETATM   20  O           1     -21.376  -9.027  -5.499  0.00  0.00    -0.646 OA
HETATM   21  O           1     -19.675  -7.777  -5.017  0.00  0.00    -0.646 OA
ENDBRANCH  18  19
BRANCH  18  22
HETATM   22  C           1     -20.908  -5.435  -5.559  0.00  0.00     0.074 C 
BRANCH  22  23
HETATM   23  C           1     -21.068  -4.951  -6.967  0.00  0.00    -0.056 A 
HETATM   24  C           1     -19.990  -5.002  -7.849  0.00  0.00     0.007 A 
HETATM   25  C           1     -20.138  -4.550  -9.161  0.00  0.00     0.001 A 
HETATM   26  C           1     -21.367  -4.048  -9.590  0.00  0.00     0.000 A 
HETATM   27  C           1     -22.446  -3.997  -8.707  0.00  0.00     0.001 A 
HETATM   28  C           1     -22.297  -4.449  -7.396  0.00  0.00     0.007 A 
ENDBRANCH  22  23
ENDBRANCH  18  22
ENDBRANCH   1  18
TORSDOF 11
ENDMDL
MODEL 7
REMARK VINA RESULT:      -6.1     15.249     18.543
REMARK  11 active torsions:
REMARK  status: ('A' for Active; 'I' for Inactive)
REMARK    1  A    between atoms: C_1  and  C_15 
REMARK    2  A    between atoms: C_1  and  C_2 
REMARK    3  A    between atoms: C_2  and  C_3 
REMARK    4  A    between atoms: C_3  and  C_23 
REMARK    5  A    between atoms: N_8  and  C_15 
REMARK    6  A    between atoms: C_9  and  C_16 
REMARK    7  A    between atoms: N_11  and  C_16 
REMARK       I    between atoms: N_11  and  C_14 
REMARK    8  A    between atoms: C_13  and  C_25 
REMARK    9  A    between atoms: C_14  and  C_15 
REMARK   10  A    between atoms: C_16  and  C_25 
REMARK   11  A    between atoms: N_17  and  C_23 
ROOT
HETATM    1  N           1     -21.343  -6.484  -3.021  0.00  0.00    -0.344 N 
HETATM    2  H           1     -21.159  -5.688  -2.423  0.00  0.00     0.163 HD
HETATM    3  C           1     -21.594  -6.295  -4.354  0.00  0.00     0.249 C 
HETATM    4  O           1     -22.728  -6.130  -4.738  0.00  0.00    -0.271 OA
ENDROOT
BRANCH   3   5
HETATM    5  C           1     -20.454  -6.295  -5.343  0.00  0.00     0.274 C 
BRANCH   5   6
HETATM    6  C           1     -20.099  -4.859  -5.707  0.00  0.00     0.042 C 
BRANCH   6   7
HETATM    7  C           1     -20.382  -4.625  -7.186  0.00  0.00     0.004 C 
BRANCH   7   8
HETATM    8  C           1     -21.496  -3.597  -7.333  0.00  0.00     0.027 C 
BRANCH   8   9
HETATM    9  C           1     -22.267  -3.862  -8.618  0.00  0.00     0.229 C 
BRANCH   9  10
HETATM   10  N           1     -21.309  -4.256  -9.704  0.00  0.00    -0.079 N 
HETATM   11  H           1     -21.470  -3.657 -10.545  0.00  0.00     0.274 HD
HETATM   12  H           1     -21.463  -5.259  -9.956  0.00  0.00     0.274 HD
HETATM   13  H           1     -20.328  -4.128  -9.367  0.00  0.00     0.274 HD
ENDBRANCH   9  10
ENDBRANCH   8   9
ENDBRANCH   7   8
ENDBRANCH   6   7
ENDBRANCH   5   6
BRANCH   5  14
HETATM   14  N           1     -20.867  -7.036  -6.580  0.00  0.00    -0.067 N 
HETATM   15  H           1     -20.024  -7.223  -7.170  0.00  0.00     0.275 HD
HETATM   16  H           1     -21.549  -6.459  -7.122  0.00  0.00     0.275 HD
HETATM   17  H           1     -21.312  -7.943  -6.312  0.00  0.00     0.275 HD
ENDBRANCH   5  14
ENDBRANCH   3   5
BRANCH   1  18
HETATM   18  C           1     -21.341  -7.823  -2.465  0.00  0.00     0.189 C 
BRANCH  18  19
HETATM   19  C           1     -22.179  -7.848  -1.212  0.00  0.00     0.197 C 
HETATM   20  O           1     -22.706  -6.796  -0.791  0.00  0.00    -0.646 OA
HETATM   21  O           1     -22.346  -8.922  -0.593  0.00  0.00    -0.646 OA
ENDBRANCH  18  19
BRANCH  18  22
HETATM   22  C           1     -19.912  -8.231  -2.130  0.00  0.00     0.074 C 
BRANCH  22  23
HETATM   23  C           1     -19.383  -9.127  -3.206  0.00  0.00    -0.056 A 
HETATM   24  C           1     -20.262  -9.748  -4.093  0.00  0.00     0.007 A 
HETATM   25  C           1     -19.769 -10.584  -5.095  0.00  0.00     0.001 A 
HETATM   26  C           1     -18.395 -10.797  -5.211  0.00  0.00     0.000 A 
HETATM   27  C           1     -17.515 -10.176  -4.324  0.00  0.00     0.001 A 
HETATM   28  C           1     -18.009  -9.340  -3.322  0.00  0.00     0.007 A 
ENDBRANCH  22  23
ENDBRANCH  18  22
ENDBRANCH   1  18
TORSDOF 11
ENDMDL
MODEL 8
REMARK VINA RESULT:      -6.1     17.285     19.393
REMARK  11 active torsions:
REMARK  status: ('A' for Active; 'I' for Inactive)
REMARK    1  A    between atoms: C_1  and  C_15 
REMARK    2  A    between atoms: C_1  and  C_2 
REMARK    3  A    between atoms: C_2  and  C_3 
REMARK    4  A    between atoms: C_3  and  C_23 
REMARK    5  A    between atoms: N_8  and  C_15 
REMARK    6  A    between atoms: C_9  and  C_16 
REMARK    7  A    between atoms: N_11  and  C_16 
REMARK       I    between atoms: N_11  and  C_14 
REMARK    8  A    between atoms: C_13  and  C_25 
REMARK    9  A    between atoms: C_14  and  C_15 
REMARK   10  A    between atoms: C_16  and  C_25 
REMARK   11  A    between atoms: N_17  and  C_23 
ROOT
HETATM    1  N           1     -21.704  -7.703  -3.683  0.00  0.00    -0.344 N 
HETATM    2  H           1     -22.481  -8.223  -4.072  0.00  0.00     0.163 HD
HETATM    3  C           1     -21.840  -7.073  -2.475  0.00  0.00     0.249 C 
HETATM    4  O           1     -22.234  -5.932  -2.428  0.00  0.00    -0.271 OA
ENDROOT
BRANCH   3   5
HETATM    5  C           1     -21.497  -7.805  -1.201  0.00  0.00     0.274 C 
BRANCH   5   6
HETATM    6  C           1     -21.776  -9.292  -1.379  0.00  0.00     0.042 C 
BRANCH   6   7
HETATM    7  C           1     -22.537  -9.815  -0.167  0.00  0.00     0.004 C 
BRANCH   7   8
HETATM    8  C           1     -23.620 -10.783  -0.626  0.00  0.00     0.027 C 
BRANCH   8   9
HETATM    9  C           1     -23.560 -12.051   0.214  0.00  0.00     0.229 C 
BRANCH   9  10
HETATM   10  N           1     -22.152 -12.275   0.681  0.00  0.00    -0.079 N 
HETATM   11  H           1     -21.654 -11.359   0.741  0.00  0.00     0.274 HD
HETATM   12  H           1     -21.656 -12.898   0.003  0.00  0.00     0.274 HD
HETATM   13  H           1     -22.165 -12.728   1.624  0.00  0.00     0.274 HD
ENDBRANCH   9  10
ENDBRANCH   8   9
ENDBRANCH   7   8
ENDBRANCH   6   7
ENDBRANCH   5   6
BRANCH   5  14
HETATM   14  N           1     -22.334  -7.272  -0.076  0.00  0.00    -0.067 N 
HETATM   15  H           1     -23.194  -7.857   0.025  0.00  0.00     0.275 HD
HETATM   16  H           1     -22.608  -6.285  -0.283  0.00  0.00     0.275 HD
HETATM   17  H           1     -21.785  -7.303   0.813  0.00  0.00     0.275 HD
ENDBRANCH   5  14
ENDBRANCH   3   5
BRANCH   1  18
HETATM   18  C           1     -20.450  -7.624  -4.406  0.00  0.00     0.189 C 
BRANCH  18  19
HETATM   19  C           1     -20.587  -6.644  -5.544  0.00  0.00     0.197 C 
HETATM   20  O           1     -20.820  -7.058  -6.700  0.00  0.00    -0.646 OA
HETATM   21  O           1     -20.467  -5.418  -5.331  0.00  0.00    -0.646 OA
ENDBRANCH  18  19
BRANCH  18  22
HETATM   22  C           1     -20.096  -8.999  -4.957  0.00  0.00     0.074 C 
BRANCH  22  23
HETATM   23  C           1     -18.670  -9.317  -4.628  0.00  0.00    -0.056 A 
HETATM   24  C           1     -18.236  -9.286  -3.304  0.00  0.00     0.007 A 
HETATM   25  C           1     -16.907  -9.581  -2.998  0.00  0.00     0.001 A 
HETATM   26  C           1     -16.014  -9.910  -4.017  0.00  0.00     0.000 A 
HETATM   27  C           1     -16.448  -9.942  -5.343  0.00  0.00     0.001 A 
HETATM   28  C           1     -17.777  -9.646  -5.648  0.00  0.00     0.007 A 
ENDBRANCH  22  23
ENDBRANCH  18  22
ENDBRANCH   1  18
TORSDOF 11
ENDMDL
MODEL 9
REMARK VINA RESULT:      -6.0     17.454     20.816
REMARK  11 active torsions:
REMARK  status: ('A' for Active; 'I' for Inactive)
REMARK    1  A    between atoms: C_1  and  C_15 
REMARK    2  A    between atoms: C_1  and  C_2 
REMARK    3  A    between atoms: C_2  and  C_3 
REMARK    4  A    between atoms: C_3  and  C_23 
REMARK    5  A    between atoms: N_8  and  C_15 
REMARK    6  A    between atoms: C_9  and  C_16 
REMARK    7  A    between atoms: N_11  and  C_16 
REMARK       I    between atoms: N_11  and  C_14 
REMARK    8  A    between atoms: C_13  and  C_25 
REMARK    9  A    between atoms: C_14  and  C_15 
REMARK   10  A    between atoms: C_16  and  C_25 
REMARK   11  A    between atoms: N_17  and  C_23 
ROOT
HETATM    1  N           1     -19.384 -11.619  -1.956  0.00  0.00    -0.344 N 
HETATM    2  H           1     -19.637 -12.510  -2.364  0.00  0.00     0.163 HD
HETATM    3  C           1     -18.992 -10.584  -2.763  0.00  0.00     0.249 C 
HETATM    4  O           1     -17.825 -10.444  -3.042  0.00  0.00    -0.271 OA
ENDROOT
BRANCH   3   5
HETATM    5  C           1     -20.018  -9.618  -3.301  0.00  0.00     0.274 C 
BRANCH   5   6
HETATM    6  C           1     -20.098  -8.401  -2.388  0.00  0.00     0.042 C 
BRANCH   6   7
HETATM    7  C           1     -21.421  -7.681  -2.614  0.00  0.00     0.004 C 
BRANCH   7   8
HETATM    8  C           1     -21.245  -6.622  -3.696  0.00  0.00     0.027 C 
BRANCH   8   9
HETATM    9  C           1     -22.080  -6.995  -4.913  0.00  0.00     0.229 C 
BRANCH   9  10
HETATM   10  N           1     -21.182  -7.523  -5.993  0.00  0.00    -0.079 N 
HETATM   11  H           1     -21.414  -8.524  -6.180  0.00  0.00     0.274 HD
HETATM   12  H           1     -20.185  -7.449  -5.684  0.00  0.00     0.274 HD
HETATM   13  H           1     -21.319  -6.964  -6.865  0.00  0.00     0.274 HD
ENDBRANCH   9  10
ENDBRANCH   8   9
ENDBRANCH   7   8
ENDBRANCH   6   7
ENDBRANCH   5   6
BRANCH   5  14
HETATM   14  N           1     -21.359 -10.290  -3.354  0.00  0.00    -0.067 N 
HETATM   15  H           1     -21.536 -10.783  -2.449  0.00  0.00     0.275 HD
HETATM   16  H           1     -21.371 -10.983  -4.136  0.00  0.00     0.275 HD
HETATM   17  H           1     -22.103  -9.573  -3.511  0.00  0.00     0.275 HD
ENDBRANCH   5  14
ENDBRANCH   3   5
BRANCH   1  18
HETATM   18  C           1     -19.436 -11.439  -0.518  0.00  0.00     0.189 C 
BRANCH  18  19
HETATM   19  C           1     -18.441 -12.362   0.139  0.00  0.00     0.197 C 
HETATM   20  O           1     -18.771 -13.531   0.433  0.00  0.00    -0.646 OA
HETATM   21  O           1     -17.285 -11.957   0.390  0.00  0.00    -0.646 OA
ENDBRANCH  18  19
BRANCH  18  22
HETATM   22  C           1     -20.838 -11.762  -0.017  0.00  0.00     0.074 C 
BRANCH  22  23
HETATM   23  C           1     -21.575 -10.489   0.261  0.00  0.00    -0.056 A 
HETATM   24  C           1     -22.902 -10.349  -0.141  0.00  0.00     0.007 A 
HETATM   25  C           1     -23.588  -9.162   0.118  0.00  0.00     0.001 A 
HETATM   26  C           1     -22.946  -8.117   0.782  0.00  0.00     0.000 A 
HETATM   27  C           1     -21.618  -8.257   1.185  0.00  0.00     0.001 A 
HETATM   28  C           1     -20.933  -9.444   0.925  0.00  0.00     0.007 A 
ENDBRANCH  22  23
ENDBRANCH  18  22
ENDBRANCH   1  18
TORSDOF 11
ENDMDL
