MODEL 1
REMARK VINA RESULT:      -5.5      0.000      0.000
REMARK  6 active torsions:
REMARK  status: ('A' for Active; 'I' for Inactive)
REMARK    1  A    between atoms: N_1  and  C_2 
REMARK       I    between atoms: N_1  and  C_6 
REMARK    2  A    between atoms: C_2  and  C_3 
REMARK    3  A    between atoms: C_6  and  C_11 
REMARK    4  A    between atoms: N_7  and  C_11 
REMARK    5  A    between atoms: C_9  and  C_11 
REMARK    6  A    between atoms: C_9  and  O_14 
ROOT
HETATM    1  N           1     -22.892  -4.739  -9.306  0.00  0.00    -0.345 N 
HETATM    2  O           1     -20.720  -4.267  -9.533  0.00  0.00    -0.271 OA
HETATM    3  C           1     -21.590  -4.799  -8.885  0.00  0.00     0.251 C 
HETATM    4  H           1     -23.620  -5.185  -8.764  0.00  0.00     0.163 HD
ENDROOT
BRANCH   3   5
HETATM    5  C           1     -21.242  -5.532  -7.613  0.00  0.00     0.302 C 
BRANCH   5   6
HETATM    6  N           1     -19.830  -6.032  -7.696  0.00  0.00    -0.064 N 
HETATM    7  H           1     -19.233  -5.502  -7.021  0.00  0.00     0.275 HD
HETATM    8  H           1     -19.806  -7.049  -7.456  0.00  0.00     0.275 HD
HETATM    9  H           1     -19.467  -5.894  -8.666  0.00  0.00     0.275 HD
ENDBRANCH   5   6
BRANCH   5  10
HETATM   10  C           1     -21.375  -4.585  -6.427  0.00  0.00     0.153 C 
HETATM   11  C           1     -20.102  -4.636  -5.593  0.00  0.00     0.042 C 
BRANCH  10  12
HETATM   12  O           1     -21.577  -3.279  -6.893  0.00  0.00    -0.393 OA
HETATM   13  H           1     -20.971  -3.144  -7.602  0.00  0.00     0.210 HD
ENDBRANCH  10  12
ENDBRANCH   5  10
ENDBRANCH   3   5
BRANCH   1  14
HETATM   14  C           1     -23.225  -4.035 -10.529  0.00  0.00     0.181 C 
HETATM   15  C           1     -23.335  -5.033 -11.674  0.00  0.00     0.043 C 
BRANCH  14  16
HETATM   16  C           1     -24.543  -3.321 -10.355  0.00  0.00     0.196 C 
HETATM   17  O           1     -25.359  -3.274 -11.301  0.00  0.00    -0.646 OA
HETATM   18  O           1     -24.820  -2.778  -9.263  0.00  0.00    -0.646 OA
ENDBRANCH  14  16
ENDBRANCH   1  14
TORSDOF 6
ENDMDL
MODEL 2
REMARK VINA RESULT:      -5.4      1.403      1.675
REMARK  6 active torsions:
REMARK  status: ('A' for Active; 'I' for Inactive)
REMARK    1  A    between atoms: N_1  and  C_2 
REMARK       I    between atoms: N_1  and  C_6 
REMARK    2  A    between atoms: C_2  and  C_3 
REMARK    3  A    between atoms: C_6  and  C_11 
REMARK    4  A    between atoms: N_7  and  C_11 
REMARK    5  A    between atoms: C_9  and  C_11 
REMARK    6  A    between atoms: C_9  and  O_14 
ROOT
HETATM    1  N           1     -22.324  -4.806  -9.042  0.00  0.00    -0.345 N 
HETATM    2  O           1     -21.643  -3.497  -7.365  0.00  0.00    -0.271 OA
HETATM    3  C           1     -21.743  -4.612  -7.818  0.00  0.00     0.251 C 
HETATM    4  H           1     -22.407  -5.741  -9.421  0.00  0.00     0.163 HD
ENDROOT
BRANCH   3   5
HETATM    5  C           1     -21.226  -5.793  -7.032  0.00  0.00     0.302 C 
BRANCH   5   6
HETATM    6  N           1     -19.838  -6.129  -7.493  0.00  0.00    -0.064 N 
HETATM    7  H           1     -19.811  -6.143  -8.538  0.00  0.00     0.275 HD
HETATM    8  H           1     -19.170  -5.408  -7.138  0.00  0.00     0.275 HD
HETATM    9  H           1     -19.566  -7.068  -7.124  0.00  0.00     0.275 HD
ENDBRANCH   5   6
BRANCH   5  10
HETATM   10  C           1     -21.198  -5.445  -5.550  0.00  0.00     0.153 C 
HETATM   11  C           1     -21.086  -6.724  -4.732  0.00  0.00     0.042 C 
BRANCH  10  12
HETATM   12  O           1     -20.095  -4.622  -5.284  0.00  0.00    -0.393 OA
HETATM   13  H           1     -19.441  -4.823  -5.931  0.00  0.00     0.210 HD
ENDBRANCH  10  12
ENDBRANCH   5  10
ENDBRANCH   3   5
BRANCH   1  14
HETATM   14  C           1     -22.821  -3.671  -9.796  0.00  0.00     0.181 C 
HETATM   15  C           1     -21.962  -3.474 -11.039  0.00  0.00     0.043 C 
BRANCH  14  16
HETATM   16  C           1     -24.250  -3.926 -10.206  0.00  0.00     0.196 C 
HETATM   17  O           1     -24.823  -4.980  -9.853  0.00  0.00    -0.646 OA
HETATM   18  O           1     -24.862  -3.084 -10.898  0.00  0.00    -0.646 OA
ENDBRANCH  14  16
ENDBRANCH   1  14
TORSDOF 6
ENDMDL
MODEL 3
REMARK VINA RESULT:      -5.2     10.103     11.698
REMARK  6 active torsions:
REMARK  status: ('A' for Active; 'I' for Inactive)
REMARK    1  A    between atoms: N_1  and  C_2 
REMARK       I    between atoms: N_1  and  C_6 
REMARK    2  A    between atoms: C_2  and  C_3 
REMARK    3  A    between atoms: C_6  and  C_11 
REMARK    4  A    between atoms: N_7  and  C_11 
REMARK    5  A    between atoms: C_9  and  C_11 
REMARK    6  A    between atoms: C_9  and  O_14 
ROOT
HETATM    1  N           1     -26.727  -6.473 -18.056  0.00  0.00    -0.345 N 
HETATM    2  O           1     -27.262  -6.341 -20.221  0.00  0.00    -0.271 OA
HETATM    3  C           1     -26.406  -6.515 -19.386  0.00  0.00     0.251 C 
HETATM    4  H           1     -26.011  -6.620 -17.357  0.00  0.00     0.163 HD
ENDROOT
BRANCH   3   5
HETATM    5  C           1     -24.982  -6.780 -19.810  0.00  0.00     0.302 C 
BRANCH   5   6
HETATM    6  N           1     -24.286  -7.579 -18.749  0.00  0.00    -0.064 N 
HETATM    7  H           1     -23.555  -6.988 -18.290  0.00  0.00     0.275 HD
HETATM    8  H           1     -24.981  -7.888 -18.033  0.00  0.00     0.275 HD
HETATM    9  H           1     -23.835  -8.417 -19.182  0.00  0.00     0.275 HD
ENDBRANCH   5   6
BRANCH   5  10
HETATM   10  C           1     -24.977  -7.562 -21.117  0.00  0.00     0.153 C 
HETATM   11  C           1     -23.615  -8.212 -21.314  0.00  0.00     0.042 C 
BRANCH  10  12
HETATM   12  O           1     -25.967  -8.554 -21.072  0.00  0.00    -0.393 OA
HETATM   13  H           1     -26.756  -8.169 -21.414  0.00  0.00     0.210 HD
ENDBRANCH  10  12
ENDBRANCH   5  10
ENDBRANCH   3   5
BRANCH   1  14
HETATM   14  C           1     -28.096  -6.219 -17.649  0.00  0.00     0.181 C 
HETATM   15  C           1     -28.391  -6.976 -16.361  0.00  0.00     0.043 C 
BRANCH  14  16
HETATM   16  C           1     -28.285  -4.740 -17.419  0.00  0.00     0.196 C 
HETATM   17  O           1     -29.116  -4.102 -18.101  0.00  0.00    -0.646 OA
HETATM   18  O           1     -27.610  -4.152 -16.546  0.00  0.00    -0.646 OA
ENDBRANCH  14  16
ENDBRANCH   1  14
TORSDOF 6
ENDMDL
MODEL 4
REMARK VINA RESULT:      -5.0      2.075      4.971
REMARK  6 active torsions:
REMARK  status: ('A' for Active; 'I' for Inactive)
REMARK    1  A    between atoms: N_1  and  C_2 
REMARK       I    between atoms: N_1  and  C_6 
REMARK    2  A    between atoms: C_2  and  C_3 
REMARK    3  A    between atoms: C_6  and  C_11 
REMARK    4  A    between atoms: N_7  and  C_11 
REMARK    5  A    between atoms: C_9  and  C_11 
REMARK    6  A    between atoms: C_9  and  O_14 
ROOT
HETATM    1  N           1     -21.332  -4.761  -8.413  0.00  0.00    -0.345 N 
HETATM    2  O           1     -19.899  -4.913 -10.119  0.00  0.00    -0.271 OA
HETATM    3  C           1     -20.960  -4.511  -9.706  0.00  0.00     0.251 C 
HETATM    4  H           1     -22.221  -4.424  -8.067  0.00  0.00     0.163 HD
ENDROOT
BRANCH   3   5
HETATM    5  C           1     -21.877  -3.732 -10.618  0.00  0.00     0.302 C 
BRANCH   5   6
HETATM    6  N           1     -21.182  -3.473 -11.921  0.00  0.00    -0.064 N 
HETATM    7  H           1     -20.171  -3.725 -11.833  0.00  0.00     0.275 HD
HETATM    8  H           1     -21.620  -4.053 -12.672  0.00  0.00     0.275 HD
HETATM    9  H           1     -21.268  -2.461 -12.168  0.00  0.00     0.275 HD
ENDBRANCH   5   6
BRANCH   5  10
HETATM   10  C           1     -23.146  -4.536 -10.872  0.00  0.00     0.153 C 
HETATM   11  C           1     -24.346  -3.775 -10.325  0.00  0.00     0.042 C 
BRANCH  10  12
HETATM   12  O           1     -23.306  -4.735 -12.250  0.00  0.00    -0.393 OA
HETATM   13  H           1     -23.517  -5.645 -12.372  0.00  0.00     0.210 HD
ENDBRANCH  10  12
ENDBRANCH   5  10
ENDBRANCH   3   5
BRANCH   1  14
HETATM   14  C           1     -20.450  -5.509  -7.538  0.00  0.00     0.181 C 
HETATM   15  C           1     -19.471  -4.554  -6.868  0.00  0.00     0.043 C 
BRANCH  14  16
HETATM   16  C           1     -21.268  -6.214  -6.483  0.00  0.00     0.196 C 
HETATM   17  O           1     -21.139  -7.445  -6.310  0.00  0.00    -0.646 OA
HETATM   18  O           1     -22.075  -5.566  -5.782  0.00  0.00    -0.646 OA
ENDBRANCH  14  16
ENDBRANCH   1  14
TORSDOF 6
ENDMDL
MODEL 5
REMARK VINA RESULT:      -4.9      2.271      5.178
REMARK  6 active torsions:
REMARK  status: ('A' for Active; 'I' for Inactive)
REMARK    1  A    between atoms: N_1  and  C_2 
REMARK       I    between atoms: N_1  and  C_6 
REMARK    2  A    between atoms: C_2  and  C_3 
REMARK    3  A    between atoms: C_6  and  C_11 
REMARK    4  A    between atoms: N_7  and  C_11 
REMARK    5  A    between atoms: C_9  and  C_11 
REMARK    6  A    between atoms: C_9  and  O_14 
ROOT
HETATM    1  N           1     -21.676  -5.357  -7.304  0.00  0.00    -0.345 N 
HETATM    2  O           1     -21.372  -3.180  -6.907  0.00  0.00    -0.271 OA
HETATM    3  C           1     -21.674  -4.045  -7.694  0.00  0.00     0.251 C 
HETATM    4  H           1     -21.929  -6.081  -7.964  0.00  0.00     0.163 HD
ENDROOT
BRANCH   3   5
HETATM    5  C           1     -22.048  -3.678  -9.110  0.00  0.00     0.302 C 
BRANCH   5   6
HETATM    6  N           1     -21.403  -4.641 -10.062  0.00  0.00    -0.064 N 
HETATM    7  H           1     -20.720  -5.239  -9.543  0.00  0.00     0.275 HD
HETATM    8  H           1     -22.137  -5.247 -10.494  0.00  0.00     0.275 HD
HETATM    9  H           1     -20.904  -4.110 -10.811  0.00  0.00     0.275 HD
ENDBRANCH   5   6
BRANCH   5  10
HETATM   10  C           1     -23.561  -3.744  -9.270  0.00  0.00     0.153 C 
HETATM   11  C           1     -23.917  -4.827 -10.278  0.00  0.00     0.042 C 
BRANCH  10  12
HETATM   12  O           1     -24.149  -4.044  -8.033  0.00  0.00    -0.393 OA
HETATM   13  H           1     -23.450  -4.101  -7.405  0.00  0.00     0.210 HD
ENDBRANCH  10  12
ENDBRANCH   5  10
ENDBRANCH   3   5
BRANCH   1  14
HETATM   14  C           1     -21.317  -5.708  -5.943  0.00  0.00     0.181 C 
HETATM   15  C           1     -22.534  -6.284  -5.231  0.00  0.00     0.043 C 
BRANCH  14  16
HETATM   16  C           1     -20.213  -6.736  -5.965  0.00  0.00     0.196 C 
HETATM   17  O           1     -20.027  -7.475  -4.974  0.00  0.00    -0.646 OA
HETATM   18  O           1     -19.483  -6.848  -6.974  0.00  0.00    -0.646 OA
ENDBRANCH  14  16
ENDBRANCH   1  14
TORSDOF 6
ENDMDL
MODEL 6
REMARK VINA RESULT:      -4.7     18.452     19.319
REMARK  6 active torsions:
REMARK  status: ('A' for Active; 'I' for Inactive)
REMARK    1  A    between atoms: N_1  and  C_2 
REMARK       I    between atoms: N_1  and  C_6 
REMARK    2  A    between atoms: C_2  and  C_3 
REMARK    3  A    between atoms: C_6  and  C_11 
REMARK    4  A    between atoms: N_7  and  C_11 
REMARK    5  A    between atoms: C_9  and  C_11 
REMARK    6  A    between atoms: C_9  and  O_14 
ROOT
HETATM    1  N           1     -11.700   5.967 -20.407  0.00  0.00    -0.345 N 
HETATM    2  O           1     -10.228   6.133 -18.736  0.00  0.00    -0.271 OA
HETATM    3  C           1     -10.668   6.593 -19.763  0.00  0.00     0.251 C 
HETATM    4  H           1     -12.069   6.353 -21.267  0.00  0.00     0.163 HD
ENDROOT
BRANCH   3   5
HETATM    5  C           1     -10.079   7.860 -20.334  0.00  0.00     0.302 C 
BRANCH   5   6
HETATM    6  N           1     -10.586   8.059 -21.732  0.00  0.00    -0.064 N 
HETATM    7  H           1     -10.537   7.154 -22.253  0.00  0.00     0.275 HD
HETATM    8  H           1     -11.577   8.388 -21.699  0.00  0.00     0.275 HD
HETATM    9  H           1      -9.997   8.774 -22.218  0.00  0.00     0.275 HD
ENDBRANCH   5   6
BRANCH   5  10
HETATM   10  C           1     -10.490   9.047 -19.472  0.00  0.00     0.153 C 
HETATM   11  C           1     -11.982   9.298 -19.636  0.00  0.00     0.042 C 
BRANCH  10  12
HETATM   12  O           1     -10.207   8.768 -18.128  0.00  0.00    -0.393 OA
HETATM   13  H           1      -9.825   9.547 -17.762  0.00  0.00     0.210 HD
ENDBRANCH  10  12
ENDBRANCH   5  10
ENDBRANCH   3   5
BRANCH   1  14
HETATM   14  C           1     -12.266   4.750 -19.857  0.00  0.00     0.181 C 
HETATM   15  C           1     -13.774   4.754 -20.065  0.00  0.00     0.043 C 
BRANCH  14  16
HETATM   16  C           1     -11.663   3.556 -20.556  0.00  0.00     0.196 C 
HETATM   17  O           1     -10.773   2.885 -19.991  0.00  0.00    -0.646 OA
HETATM   18  O           1     -12.056   3.237 -21.700  0.00  0.00    -0.646 OA
ENDBRANCH  14  16
ENDBRANCH   1  14
TORSDOF 6
ENDMDL
MODEL 7
REMARK VINA RESULT:      -4.6      2.318      5.352
REMARK  6 active torsions:
REMARK  status: ('A' for Active; 'I' for Inactive)
REMARK    1  A    between atoms: N_1  and  C_2 
REMARK       I    between atoms: N_1  and  C_6 
REMARK    2  A    between atoms: C_2  and  C_3 
REMARK    3  A    between atoms: C_6  and  C_11 
REMARK    4  A    between atoms: N_7  and  C_11 
REMARK    5  A    between atoms: C_9  and  C_11 
REMARK    6  A    between atoms: C_9  and  O_14 
ROOT
HETATM    1  N           1     -21.695  -5.542  -7.245  0.00  0.00    -0.345 N 
HETATM    2  O           1     -20.473  -4.515  -8.808  0.00  0.00    -0.271 OA
HETATM    3  C           1     -21.565  -4.865  -8.428  0.00  0.00     0.251 C 
HETATM    4  H           1     -22.610  -5.835  -6.927  0.00  0.00     0.163 HD
ENDROOT
BRANCH   3   5
HETATM    5  C           1     -22.787  -4.556  -9.259  0.00  0.00     0.302 C 
BRANCH   5   6
HETATM    6  N           1     -23.817  -3.886  -8.400  0.00  0.00    -0.064 N 
HETATM    7  H           1     -23.758  -4.262  -7.426  0.00  0.00     0.275 HD
HETATM    8  H           1     -23.642  -2.856  -8.384  0.00  0.00     0.275 HD
HETATM    9  H           1     -24.770  -4.071  -8.788  0.00  0.00     0.275 HD
ENDBRANCH   5   6
BRANCH   5  10
HETATM   10  C           1     -22.402  -3.629 -10.405  0.00  0.00     0.153 C 
HETATM   11  C           1     -21.962  -4.461 -11.602  0.00  0.00     0.042 C 
BRANCH  10  12
HETATM   12  O           1     -23.506  -2.843 -10.761  0.00  0.00    -0.393 OA
HETATM   13  H           1     -24.270  -3.269 -10.410  0.00  0.00     0.210 HD
ENDBRANCH  10  12
ENDBRANCH   5  10
ENDBRANCH   3   5
BRANCH   1  14
HETATM   14  C           1     -20.521  -5.839  -6.448  0.00  0.00     0.181 C 
HETATM   15  C           1     -20.224  -4.662  -5.527  0.00  0.00     0.043 C 
BRANCH  14  16
HETATM   16  C           1     -20.774  -7.074  -5.620  0.00  0.00     0.196 C 
HETATM   17  O           1     -20.627  -7.038  -4.380  0.00  0.00    -0.646 OA
HETATM   18  O           1     -21.132  -8.136  -6.176  0.00  0.00    -0.646 OA
ENDBRANCH  14  16
ENDBRANCH   1  14
TORSDOF 6
ENDMDL
MODEL 8
REMARK VINA RESULT:      -4.6      1.991      5.079
REMARK  6 active torsions:
REMARK  status: ('A' for Active; 'I' for Inactive)
REMARK    1  A    between atoms: N_1  and  C_2 
REMARK       I    between atoms: N_1  and  C_6 
REMARK    2  A    between atoms: C_2  and  C_3 
REMARK    3  A    between atoms: C_6  and  C_11 
REMARK    4  A    between atoms: N_7  and  C_11 
REMARK    5  A    between atoms: C_9  and  C_11 
REMARK    6  A    between atoms: C_9  and  O_14 
ROOT
HETATM    1  N           1     -21.788  -5.248  -8.046  0.00  0.00    -0.345 N 
HETATM    2  O           1     -22.743  -3.291  -8.546  0.00  0.00    -0.271 OA
HETATM    3  C           1     -22.370  -4.375  -8.926  0.00  0.00     0.251 C 
HETATM    4  H           1     -21.477  -6.156  -8.365  0.00  0.00     0.163 HD
ENDROOT
BRANCH   3   5
HETATM    5  C           1     -22.547  -4.768 -10.373  0.00  0.00     0.302 C 
BRANCH   5   6
HETATM    6  N           1     -24.004  -4.730 -10.726  0.00  0.00    -0.064 N 
HETATM    7  H           1     -24.442  -3.878 -10.307  0.00  0.00     0.275 HD
HETATM    8  H           1     -24.110  -4.698 -11.765  0.00  0.00     0.275 HD
HETATM    9  H           1     -24.476  -5.584 -10.353  0.00  0.00     0.275 HD
ENDBRANCH   5   6
BRANCH   5  10
HETATM   10  C           1     -21.784  -3.794 -11.262  0.00  0.00     0.153 C 
HETATM   11  C           1     -20.289  -3.964 -11.033  0.00  0.00     0.042 C 
BRANCH  10  12
HETATM   12  O           1     -22.085  -4.053 -12.606  0.00  0.00    -0.393 OA
HETATM   13  H           1     -22.511  -4.893 -12.633  0.00  0.00     0.210 HD
ENDBRANCH  10  12
ENDBRANCH   5  10
ENDBRANCH   3   5
BRANCH   1  14
HETATM   14  C           1     -21.619  -4.870  -6.657  0.00  0.00     0.181 C 
HETATM   15  C           1     -22.137  -5.988  -5.761  0.00  0.00     0.043 C 
BRANCH  14  16
HETATM   16  C           1     -20.156  -4.635  -6.374  0.00  0.00     0.196 C 
HETATM   17  O           1     -19.766  -4.459  -5.200  0.00  0.00    -0.646 OA
HETATM   18  O           1     -19.333  -4.615  -7.316  0.00  0.00    -0.646 OA
ENDBRANCH  14  16
ENDBRANCH   1  14
TORSDOF 6
ENDMDL
MODEL 9
REMARK VINA RESULT:      -4.6      3.729      6.335
REMARK  6 active torsions:
REMARK  status: ('A' for Active; 'I' for Inactive)
REMARK    1  A    between atoms: N_1  and  C_2 
REMARK       I    between atoms: N_1  and  C_6 
REMARK    2  A    between atoms: C_2  and  C_3 
REMARK    3  A    between atoms: C_6  and  C_11 
REMARK    4  A    between atoms: N_7  and  C_11 
REMARK    5  A    between atoms: C_9  and  C_11 
REMARK    6  A    between atoms: C_9  and  O_14 
ROOT
HETATM    1  N           1     -21.770  -6.052  -4.774  0.00  0.00    -0.345 N 
HETATM    2  O           1     -20.114  -4.620  -5.214  0.00  0.00    -0.271 OA
HETATM    3  C           1     -21.150  -5.129  -5.571  0.00  0.00     0.251 C 
HETATM    4  H           1     -22.638  -6.478  -5.074  0.00  0.00     0.163 HD
ENDROOT
BRANCH   3   5
HETATM    5  C           1     -21.760  -4.745  -6.898  0.00  0.00     0.302 C 
BRANCH   5   6
HETATM    6  N           1     -21.665  -3.259  -7.078  0.00  0.00    -0.064 N 
HETATM    7  H           1     -21.109  -2.847  -6.295  0.00  0.00     0.275 HD
HETATM    8  H           1     -21.194  -3.048  -7.987  0.00  0.00     0.275 HD
HETATM    9  H           1     -22.626  -2.846  -7.079  0.00  0.00     0.275 HD
ENDBRANCH   5   6
BRANCH   5  10
HETATM   10  C           1     -21.007  -5.441  -8.024  0.00  0.00     0.153 C 
HETATM   11  C           1     -20.254  -4.404  -8.846  0.00  0.00     0.042 C 
BRANCH  10  12
HETATM   12  O           1     -20.098  -6.359  -7.482  0.00  0.00    -0.393 OA
HETATM   13  H           1     -19.310  -6.299  -7.994  0.00  0.00     0.210 HD
ENDBRANCH  10  12
ENDBRANCH   5  10
ENDBRANCH   3   5
BRANCH   1  14
HETATM   14  C           1     -21.184  -6.420  -3.500  0.00  0.00     0.181 C 
HETATM   15  C           1     -22.177  -6.130  -2.382  0.00  0.00     0.043 C 
BRANCH  14  16
HETATM   16  C           1     -20.849  -7.891  -3.507  0.00  0.00     0.196 C 
HETATM   17  O           1     -20.265  -8.405  -2.528  0.00  0.00    -0.646 OA
HETATM   18  O           1     -21.155  -8.597  -4.493  0.00  0.00    -0.646 OA
ENDBRANCH  14  16
ENDBRANCH   1  14
TORSDOF 6
ENDMDL
