MODEL 1
REMARK VINA RESULT:      -6.3      0.000      0.000
REMARK  6 active torsions:
REMARK  status: ('A' for Active; 'I' for Inactive)
REMARK    1  A    between atoms: C_4  and  C_19 
REMARK    2  A    between atoms: C_4  and  N_20 
REMARK    3  A    between atoms: C_5  and  C_14 
REMARK    4  A    between atoms: N_8  and  C_14 
REMARK       I    between atoms: N_8  and  C_19 
REMARK    5  A    between atoms: C_12  and  C_13 
REMARK    6  A    between atoms: C_13  and  C_14 
ROOT
HETATM    1  C           1     -26.588  -6.737 -18.448  0.00  0.00     0.189 C 
ENDROOT
BRANCH   1   2
HETATM    2  C           1     -25.239  -6.748 -19.124  0.00  0.00     0.197 C 
HETATM    3  O           1     -24.195  -6.748 -18.436  0.00  0.00    -0.646 OA
HETATM    4  O           1     -25.165  -6.757 -20.372  0.00  0.00    -0.646 OA
ENDBRANCH   1   2
BRANCH   1   5
HETATM    5  N           1     -26.460  -6.154 -17.126  0.00  0.00    -0.345 N 
HETATM    6  H           1     -26.326  -5.156 -17.024  0.00  0.00     0.163 HD
HETATM    7  C           1     -26.521  -6.953 -16.017  0.00  0.00     0.243 C 
HETATM    8  O           1     -25.511  -7.441 -15.568  0.00  0.00    -0.272 OA
BRANCH   7   9
HETATM    9  C           1     -27.849  -7.224 -15.354  0.00  0.00     0.332 C 
BRANCH   9  10
HETATM   10  N           1     -28.476  -5.927 -14.938  0.00  0.00    -0.071 N 
HETATM   11  H           1     -28.451  -5.844 -13.897  0.00  0.00     0.274 HD
HETATM   12  H           1     -29.469  -5.899 -15.266  0.00  0.00     0.274 HD
HETATM   13  H           1     -27.947  -5.133 -15.363  0.00  0.00     0.274 HD
ENDBRANCH   9  10
ENDBRANCH   7   9
ENDBRANCH   1   5
BRANCH   1  14
HETATM   14  C           1     -27.564  -5.910 -19.274  0.00  0.00     0.074 C 
BRANCH  14  15
HETATM   15  C           1     -28.864  -5.793 -18.542  0.00  0.00    -0.056 A 
HETATM   16  C           1     -29.322  -4.542 -18.129  0.00  0.00     0.007 A 
HETATM   17  C           1     -30.534  -4.433 -17.446  0.00  0.00     0.001 A 
HETATM   18  C           1     -31.287  -5.576 -17.176  0.00  0.00     0.000 A 
HETATM   19  C           1     -30.828  -6.827 -17.587  0.00  0.00     0.001 A 
HETATM   20  C           1     -29.618  -6.936 -18.270  0.00  0.00     0.007 A 
ENDBRANCH  14  15
ENDBRANCH   1  14
TORSDOF 6
ENDMDL
MODEL 2
REMARK VINA RESULT:      -5.8     14.165     16.480
REMARK  6 active torsions:
REMARK  status: ('A' for Active; 'I' for Inactive)
REMARK    1  A    between atoms: C_4  and  C_19 
REMARK    2  A    between atoms: C_4  and  N_20 
REMARK    3  A    between atoms: C_5  and  C_14 
REMARK    4  A    between atoms: N_8  and  C_14 
REMARK       I    between atoms: N_8  and  C_19 
REMARK    5  A    between atoms: C_12  and  C_13 
REMARK    6  A    between atoms: C_13  and  C_14 
ROOT
HETATM    1  C           1     -21.039  -7.869  -4.183  0.00  0.00     0.189 C 
ENDROOT
BRANCH   1   2
HETATM    2  C           1     -21.720  -7.021  -5.229  0.00  0.00     0.197 C 
HETATM    3  O           1     -22.693  -6.302  -4.914  0.00  0.00    -0.646 OA
HETATM    4  O           1     -21.312  -7.037  -6.411  0.00  0.00    -0.646 OA
ENDBRANCH   1   2
BRANCH   1   5
HETATM    5  N           1     -19.708  -8.220  -4.639  0.00  0.00    -0.345 N 
HETATM    6  H           1     -19.033  -7.492  -4.837  0.00  0.00     0.163 HD
HETATM    7  C           1     -19.364  -9.535  -4.801  0.00  0.00     0.243 C 
HETATM    8  O           1     -19.544 -10.080  -5.864  0.00  0.00    -0.272 OA
BRANCH   7   9
HETATM    9  C           1     -18.763 -10.304  -3.652  0.00  0.00     0.332 C 
BRANCH   9  10
HETATM   10  N           1     -17.952  -9.377  -2.796  0.00  0.00    -0.071 N 
HETATM   11  H           1     -17.837  -8.461  -3.285  0.00  0.00     0.274 HD
HETATM   12  H           1     -17.012  -9.798  -2.619  0.00  0.00     0.274 HD
HETATM   13  H           1     -18.443  -9.225  -1.886  0.00  0.00     0.274 HD
ENDBRANCH   9  10
ENDBRANCH   7   9
ENDBRANCH   1   5
BRANCH   1  14
HETATM   14  C           1     -20.939  -7.086  -2.881  0.00  0.00     0.074 C 
BRANCH  14  15
HETATM   15  C           1     -21.693  -7.805  -1.807  0.00  0.00    -0.056 A 
HETATM   16  C           1     -21.795  -9.196  -1.839  0.00  0.00     0.007 A 
HETATM   17  C           1     -22.499  -9.868  -0.838  0.00  0.00     0.001 A 
HETATM   18  C           1     -23.101  -9.147   0.193  0.00  0.00     0.000 A 
HETATM   19  C           1     -23.000  -7.757   0.225  0.00  0.00     0.001 A 
HETATM   20  C           1     -22.296  -7.086  -0.775  0.00  0.00     0.007 A 
ENDBRANCH  14  15
ENDBRANCH   1  14
TORSDOF 6
ENDMDL
MODEL 3
REMARK VINA RESULT:      -5.8     13.516     15.144
REMARK  6 active torsions:
REMARK  status: ('A' for Active; 'I' for Inactive)
REMARK    1  A    between atoms: C_4  and  C_19 
REMARK    2  A    between atoms: C_4  and  N_20 
REMARK    3  A    between atoms: C_5  and  C_14 
REMARK    4  A    between atoms: N_8  and  C_14 
REMARK       I    between atoms: N_8  and  C_19 
REMARK    5  A    between atoms: C_12  and  C_13 
REMARK    6  A    between atoms: C_13  and  C_14 
ROOT
HETATM    1  C           1     -21.048  -7.179  -3.814  0.00  0.00     0.189 C 
ENDROOT
BRANCH   1   2
HETATM    2  C           1     -21.649  -6.792  -2.485  0.00  0.00     0.197 C 
HETATM    3  O           1     -21.300  -7.390  -1.444  0.00  0.00    -0.646 OA
HETATM    4  O           1     -22.494  -5.873  -2.425  0.00  0.00    -0.646 OA
ENDBRANCH   1   2
BRANCH   1   5
HETATM    5  N           1     -20.725  -8.593  -3.804  0.00  0.00    -0.345 N 
HETATM    6  H           1     -21.464  -9.281  -3.726  0.00  0.00     0.163 HD
HETATM    7  C           1     -19.421  -8.997  -3.899  0.00  0.00     0.243 C 
HETATM    8  O           1     -18.760  -9.148  -2.899  0.00  0.00    -0.272 OA
BRANCH   7   9
HETATM    9  C           1     -18.808  -9.254  -5.253  0.00  0.00     0.332 C 
BRANCH   9  10
HETATM   10  N           1     -19.556 -10.356  -5.943  0.00  0.00    -0.071 N 
HETATM   11  H           1     -20.517 -10.431  -5.539  0.00  0.00     0.274 HD
HETATM   12  H           1     -19.050 -11.260  -5.806  0.00  0.00     0.274 HD
HETATM   13  H           1     -19.624 -10.145  -6.963  0.00  0.00     0.274 HD
ENDBRANCH   9  10
ENDBRANCH   7   9
ENDBRANCH   1   5
BRANCH   1  14
HETATM   14  C           1     -22.051  -6.897  -4.926  0.00  0.00     0.074 C 
BRANCH  14  15
HETATM   15  C           1     -21.495  -5.857  -5.847  0.00  0.00    -0.056 A 
HETATM   16  C           1     -22.358  -5.050  -6.589  0.00  0.00     0.007 A 
HETATM   17  C           1     -21.839  -4.080  -7.449  0.00  0.00     0.001 A 
HETATM   18  C           1     -20.459  -3.919  -7.566  0.00  0.00     0.000 A 
HETATM   19  C           1     -19.596  -4.727  -6.826  0.00  0.00     0.001 A 
HETATM   20  C           1     -20.114  -5.696  -5.967  0.00  0.00     0.007 A 
ENDBRANCH  14  15
ENDBRANCH   1  14
TORSDOF 6
ENDMDL
MODEL 4
REMARK VINA RESULT:      -5.7      2.438      4.450
REMARK  6 active torsions:
REMARK  status: ('A' for Active; 'I' for Inactive)
REMARK    1  A    between atoms: C_4  and  C_19 
REMARK    2  A    between atoms: C_4  and  N_20 
REMARK    3  A    between atoms: C_5  and  C_14 
REMARK    4  A    between atoms: N_8  and  C_14 
REMARK       I    between atoms: N_8  and  C_19 
REMARK    5  A    between atoms: C_12  and  C_13 
REMARK    6  A    between atoms: C_13  and  C_14 
ROOT
HETATM    1  C           1     -27.777  -6.441 -17.134  0.00  0.00     0.189 C 
ENDROOT
BRANCH   1   2
HETATM    2  C           1     -26.564  -6.429 -16.236  0.00  0.00     0.197 C 
HETATM    3  O           1     -26.345  -7.391 -15.469  0.00  0.00    -0.646 OA
HETATM    4  O           1     -25.778  -5.457 -16.259  0.00  0.00    -0.646 OA
ENDBRANCH   1   2
BRANCH   1   5
HETATM    5  N           1     -28.893  -5.821 -16.447  0.00  0.00    -0.345 N 
HETATM    6  H           1     -28.960  -5.878 -15.438  0.00  0.00     0.163 HD
HETATM    7  C           1     -29.856  -5.161 -17.161  0.00  0.00     0.243 C 
HETATM    8  O           1     -30.826  -5.758 -17.563  0.00  0.00    -0.272 OA
BRANCH   7   9
HETATM    9  C           1     -29.705  -3.688 -17.448  0.00  0.00     0.332 C 
BRANCH   9  10
HETATM   10  N           1     -31.053  -3.089 -17.721  0.00  0.00    -0.071 N 
HETATM   11  H           1     -31.004  -2.493 -18.577  0.00  0.00     0.274 HD
HETATM   12  H           1     -31.346  -2.504 -16.906  0.00  0.00     0.274 HD
HETATM   13  H           1     -31.749  -3.854 -17.869  0.00  0.00     0.274 HD
ENDBRANCH   9  10
ENDBRANCH   7   9
ENDBRANCH   1   5
BRANCH   1  14
HETATM   14  C           1     -27.472  -5.663 -18.409  0.00  0.00     0.074 C 
BRANCH  14  15
HETATM   15  C           1     -26.837  -6.576 -19.410  0.00  0.00    -0.056 A 
HETATM   16  C           1     -25.453  -6.566 -19.583  0.00  0.00     0.007 A 
HETATM   17  C           1     -24.860  -7.416 -20.517  0.00  0.00     0.001 A 
HETATM   18  C           1     -25.652  -8.275 -21.278  0.00  0.00     0.000 A 
HETATM   19  C           1     -27.036  -8.285 -21.107  0.00  0.00     0.001 A 
HETATM   20  C           1     -27.628  -7.435 -20.173  0.00  0.00     0.007 A 
ENDBRANCH  14  15
ENDBRANCH   1  14
TORSDOF 6
ENDMDL
MODEL 5
REMARK VINA RESULT:      -5.7     13.671     15.994
REMARK  6 active torsions:
REMARK  status: ('A' for Active; 'I' for Inactive)
REMARK    1  A    between atoms: C_4  and  C_19 
REMARK    2  A    between atoms: C_4  and  N_20 
REMARK    3  A    between atoms: C_5  and  C_14 
REMARK    4  A    between atoms: N_8  and  C_14 
REMARK       I    between atoms: N_8  and  C_19 
REMARK    5  A    between atoms: C_12  and  C_13 
REMARK    6  A    between atoms: C_13  and  C_14 
ROOT
HETATM    1  C           1     -20.281  -8.521  -4.324  0.00  0.00     0.189 C 
ENDROOT
BRANCH   1   2
HETATM    2  C           1     -18.974  -9.191  -4.671  0.00  0.00     0.197 C 
HETATM    3  O           1     -18.047  -9.223  -3.834  0.00  0.00    -0.646 OA
HETATM    4  O           1     -18.819  -9.714  -5.796  0.00  0.00    -0.646 OA
ENDBRANCH   1   2
BRANCH   1   5
HETATM    5  N           1     -20.932  -8.074  -5.540  0.00  0.00    -0.345 N 
HETATM    6  H           1     -21.567  -8.690  -6.031  0.00  0.00     0.163 HD
HETATM    7  C           1     -20.685  -6.818  -6.026  0.00  0.00     0.243 C 
HETATM    8  O           1     -19.779  -6.637  -6.803  0.00  0.00    -0.272 OA
BRANCH   7   9
HETATM    9  C           1     -21.546  -5.658  -5.588  0.00  0.00     0.332 C 
BRANCH   9  10
HETATM   10  N           1     -22.882  -6.168  -5.136  0.00  0.00    -0.071 N 
HETATM   11  H           1     -23.048  -7.117  -5.538  0.00  0.00     0.274 HD
HETATM   12  H           1     -23.632  -5.516  -5.462  0.00  0.00     0.274 HD
HETATM   13  H           1     -22.898  -6.223  -4.093  0.00  0.00     0.274 HD
ENDBRANCH   9  10
ENDBRANCH   7   9
ENDBRANCH   1   5
BRANCH   1  14
HETATM   14  C           1     -21.185  -9.514  -3.603  0.00  0.00     0.074 C 
BRANCH  14  15
HETATM   15  C           1     -21.680  -8.903  -2.329  0.00  0.00    -0.056 A 
HETATM   16  C           1     -21.628  -7.520  -2.154  0.00  0.00     0.007 A 
HETATM   17  C           1     -22.090  -6.950  -0.966  0.00  0.00     0.001 A 
HETATM   18  C           1     -22.602  -7.763   0.044  0.00  0.00     0.000 A 
HETATM   19  C           1     -22.653  -9.146  -0.131  0.00  0.00     0.001 A 
HETATM   20  C           1     -22.192  -9.715  -1.318  0.00  0.00     0.007 A 
ENDBRANCH  14  15
ENDBRANCH   1  14
TORSDOF 6
ENDMDL
MODEL 6
REMARK VINA RESULT:      -5.7     15.094     16.636
REMARK  6 active torsions:
REMARK  status: ('A' for Active; 'I' for Inactive)
REMARK    1  A    between atoms: C_4  and  C_19 
REMARK    2  A    between atoms: C_4  and  N_20 
REMARK    3  A    between atoms: C_5  and  C_14 
REMARK    4  A    between atoms: N_8  and  C_14 
REMARK       I    between atoms: N_8  and  C_19 
REMARK    5  A    between atoms: C_12  and  C_13 
REMARK    6  A    between atoms: C_13  and  C_14 
ROOT
HETATM    1  C           1     -21.388  -7.914  -3.042  0.00  0.00     0.189 C 
ENDROOT
BRANCH   1   2
HETATM    2  C           1     -21.845  -6.477  -3.108  0.00  0.00     0.197 C 
HETATM    3  O           1     -22.182  -5.881  -2.062  0.00  0.00    -0.646 OA
HETATM    4  O           1     -21.887  -5.884  -4.207  0.00  0.00    -0.646 OA
ENDBRANCH   1   2
BRANCH   1   5
HETATM    5  N           1     -20.075  -8.031  -3.647  0.00  0.00    -0.345 N 
HETATM    6  H           1     -19.258  -7.698  -3.151  0.00  0.00     0.163 HD
HETATM    7  C           1     -19.941  -8.589  -4.889  0.00  0.00     0.243 C 
HETATM    8  O           1     -20.001  -7.893  -5.875  0.00  0.00    -0.272 OA
BRANCH   7   9
HETATM    9  C           1     -19.720 -10.075  -5.028  0.00  0.00     0.332 C 
BRANCH   9  10
HETATM   10  N           1     -20.710 -10.641  -6.002  0.00  0.00    -0.071 N 
HETATM   11  H           1     -21.197  -9.861  -6.498  0.00  0.00     0.274 HD
HETATM   12  H           1     -21.412 -11.220  -5.489  0.00  0.00     0.274 HD
HETATM   13  H           1     -20.210 -11.237  -6.699  0.00  0.00     0.274 HD
ENDBRANCH   9  10
ENDBRANCH   7   9
ENDBRANCH   1   5
BRANCH   1  14
HETATM   14  C           1     -21.316  -8.358  -1.587  0.00  0.00     0.074 C 
BRANCH  14  15
HETATM   15  C           1     -22.251  -9.506  -1.369  0.00  0.00    -0.056 A 
HETATM   16  C           1     -22.331 -10.529  -2.314  0.00  0.00     0.007 A 
HETATM   17  C           1     -23.203 -11.600  -2.111  0.00  0.00     0.001 A 
HETATM   18  C           1     -23.995 -11.646  -0.965  0.00  0.00     0.000 A 
HETATM   19  C           1     -23.917 -10.622  -0.020  0.00  0.00     0.001 A 
HETATM   20  C           1     -23.045  -9.553  -0.222  0.00  0.00     0.007 A 
ENDBRANCH  14  15
ENDBRANCH   1  14
TORSDOF 6
ENDMDL
MODEL 7
REMARK VINA RESULT:      -5.6     10.001     11.382
REMARK  6 active torsions:
REMARK  status: ('A' for Active; 'I' for Inactive)
REMARK    1  A    between atoms: C_4  and  C_19 
REMARK    2  A    between atoms: C_4  and  N_20 
REMARK    3  A    between atoms: C_5  and  C_14 
REMARK    4  A    between atoms: N_8  and  C_14 
REMARK       I    between atoms: N_8  and  C_19 
REMARK    5  A    between atoms: C_12  and  C_13 
REMARK    6  A    between atoms: C_13  and  C_14 
ROOT
HETATM    1  C           1     -35.360  -0.689 -12.747  0.00  0.00     0.189 C 
ENDROOT
BRANCH   1   2
HETATM    2  C           1     -35.470   0.459 -13.721  0.00  0.00     0.197 C 
HETATM    3  O           1     -36.425   0.507 -14.526  0.00  0.00    -0.646 OA
HETATM    4  O           1     -34.606   1.363 -13.721  0.00  0.00    -0.646 OA
ENDBRANCH   1   2
BRANCH   1   5
HETATM    5  N           1     -36.664  -0.964 -12.177  0.00  0.00    -0.345 N 
HETATM    6  H           1     -37.297  -1.602 -12.644  0.00  0.00     0.163 HD
HETATM    7  C           1     -37.041  -0.361 -11.007  0.00  0.00     0.243 C 
HETATM    8  O           1     -37.611   0.704 -11.032  0.00  0.00    -0.272 OA
BRANCH   7   9
HETATM    9  C           1     -36.742  -1.025  -9.686  0.00  0.00     0.332 C 
BRANCH   9  10
HETATM   10  N           1     -36.225  -0.004  -8.716  0.00  0.00    -0.071 N 
HETATM   11  H           1     -37.028   0.454  -8.231  0.00  0.00     0.274 HD
HETATM   12  H           1     -35.673   0.718  -9.232  0.00  0.00     0.274 HD
HETATM   13  H           1     -35.614  -0.473  -8.011  0.00  0.00     0.274 HD
ENDBRANCH   9  10
ENDBRANCH   7   9
ENDBRANCH   1   5
BRANCH   1  14
HETATM   14  C           1     -34.856  -1.927 -13.478  0.00  0.00     0.074 C 
BRANCH  14  15
HETATM   15  C           1     -34.496  -2.983 -12.480  0.00  0.00    -0.056 A 
HETATM   16  C           1     -33.923  -2.623 -11.260  0.00  0.00     0.007 A 
HETATM   17  C           1     -33.587  -3.607 -10.329  0.00  0.00     0.001 A 
HETATM   18  C           1     -33.824  -4.950 -10.619  0.00  0.00     0.000 A 
HETATM   19  C           1     -34.396  -5.311 -11.839  0.00  0.00     0.001 A 
HETATM   20  C           1     -34.732  -4.327 -12.769  0.00  0.00     0.007 A 
ENDBRANCH  14  15
ENDBRANCH   1  14
TORSDOF 6
ENDMDL
MODEL 8
REMARK VINA RESULT:      -5.6     16.425     18.019
REMARK  6 active torsions:
REMARK  status: ('A' for Active; 'I' for Inactive)
REMARK    1  A    between atoms: C_4  and  C_19 
REMARK    2  A    between atoms: C_4  and  N_20 
REMARK    3  A    between atoms: C_5  and  C_14 
REMARK    4  A    between atoms: N_8  and  C_14 
REMARK       I    between atoms: N_8  and  C_19 
REMARK    5  A    between atoms: C_12  and  C_13 
REMARK    6  A    between atoms: C_13  and  C_14 
ROOT
HETATM    1  C           1     -21.609  -7.927  -1.873  0.00  0.00     0.189 C 
ENDROOT
BRANCH   1   2
HETATM    2  C           1     -22.046  -6.558  -2.336  0.00  0.00     0.197 C 
HETATM    3  O           1     -22.058  -6.286  -3.556  0.00  0.00    -0.646 OA
HETATM    4  O           1     -22.396  -5.698  -1.500  0.00  0.00    -0.646 OA
ENDBRANCH   1   2
BRANCH   1   5
HETATM    5  N           1     -20.186  -8.083  -2.104  0.00  0.00    -0.345 N 
HETATM    6  H           1     -19.523  -7.550  -1.555  0.00  0.00     0.163 HD
HETATM    7  C           1     -19.739  -8.948  -3.065  0.00  0.00     0.243 C 
HETATM    8  O           1     -19.574  -8.562  -4.197  0.00  0.00    -0.272 OA
BRANCH   7   9
HETATM    9  C           1     -19.454 -10.387  -2.711  0.00  0.00     0.332 C 
BRANCH   9  10
HETATM   10  N           1     -20.665 -11.224  -2.998  0.00  0.00    -0.071 N 
HETATM   11  H           1     -21.479 -10.859  -2.455  0.00  0.00     0.274 HD
HETATM   12  H           1     -20.478 -12.214  -2.722  0.00  0.00     0.274 HD
HETATM   13  H           1     -20.882 -11.182  -4.020  0.00  0.00     0.274 HD
ENDBRANCH   9  10
ENDBRANCH   7   9
ENDBRANCH   1   5
BRANCH   1  14
HETATM   14  C           1     -21.900  -8.076  -0.385  0.00  0.00     0.074 C 
BRANCH  14  15
HETATM   15  C           1     -22.171  -9.515  -0.073  0.00  0.00    -0.056 A 
HETATM   16  C           1     -21.172 -10.304   0.497  0.00  0.00     0.007 A 
HETATM   17  C           1     -21.424 -11.646   0.789  0.00  0.00     0.001 A 
HETATM   18  C           1     -22.674 -12.197   0.509  0.00  0.00     0.000 A 
HETATM   19  C           1     -23.673 -11.408  -0.062  0.00  0.00     0.001 A 
HETATM   20  C           1     -23.421 -10.068  -0.353  0.00  0.00     0.007 A 
ENDBRANCH  14  15
ENDBRANCH   1  14
TORSDOF 6
ENDMDL
MODEL 9
REMARK VINA RESULT:      -5.5     15.917     18.516
REMARK  6 active torsions:
REMARK  status: ('A' for Active; 'I' for Inactive)
REMARK    1  A    between atoms: C_4  and  C_19 
REMARK    2  A    between atoms: C_4  and  N_20 
REMARK    3  A    between atoms: C_5  and  C_14 
REMARK    4  A    between atoms: N_8  and  C_14 
REMARK       I    between atoms: N_8  and  C_19 
REMARK    5  A    between atoms: C_12  and  C_13 
REMARK    6  A    between atoms: C_13  and  C_14 
ROOT
HETATM    1  C           1     -21.845  -8.586  -0.948  0.00  0.00     0.189 C 
ENDROOT
BRANCH   1   2
HETATM    2  C           1     -22.362  -8.022   0.353  0.00  0.00     0.197 C 
HETATM    3  O           1     -21.614  -7.970   1.353  0.00  0.00    -0.646 OA
HETATM    4  O           1     -23.539  -7.607   0.431  0.00  0.00    -0.646 OA
ENDBRANCH   1   2
BRANCH   1   5
HETATM    5  N           1     -21.085  -7.568  -1.647  0.00  0.00    -0.345 N 
HETATM    6  H           1     -20.101  -7.445  -1.447  0.00  0.00     0.163 HD
HETATM    7  C           1     -21.699  -6.772  -2.575  0.00  0.00     0.243 C 
HETATM    8  O           1     -22.209  -5.730  -2.236  0.00  0.00    -0.272 OA
BRANCH   7   9
HETATM    9  C           1     -21.742  -7.196  -4.022  0.00  0.00     0.332 C 
BRANCH   9  10
HETATM   10  N           1     -21.929  -5.989  -4.894  0.00  0.00    -0.071 N 
HETATM   11  H           1     -22.809  -5.496  -4.623  0.00  0.00     0.274 HD
HETATM   12  H           1     -21.990  -6.288  -5.894  0.00  0.00     0.274 HD
HETATM   13  H           1     -21.117  -5.343  -4.772  0.00  0.00     0.274 HD
ENDBRANCH   9  10
ENDBRANCH   7   9
ENDBRANCH   1   5
BRANCH   1  14
HETATM   14  C           1     -20.946  -9.781  -0.661  0.00  0.00     0.074 C 
BRANCH  14  15
HETATM   15  C           1     -21.785 -10.945  -0.233  0.00  0.00    -0.056 A 
HETATM   16  C           1     -21.335 -11.793   0.779  0.00  0.00     0.007 A 
HETATM   17  C           1     -22.117 -12.879   1.177  0.00  0.00     0.001 A 
HETATM   18  C           1     -23.346 -13.115   0.563  0.00  0.00     0.000 A 
HETATM   19  C           1     -23.795 -12.267  -0.449  0.00  0.00     0.001 A 
HETATM   20  C           1     -23.015 -11.183  -0.847  0.00  0.00     0.007 A 
ENDBRANCH  14  15
ENDBRANCH   1  14
TORSDOF 6
ENDMDL
