MODEL 1
REMARK VINA RESULT:      -6.1      0.000      0.000
REMARK  6 active torsions:
REMARK  status: ('A' for Active; 'I' for Inactive)
REMARK    1  A    between atoms: C_1  and  C_2 
REMARK       I    between atoms: C_2  and  N_3 
REMARK    2  A    between atoms: N_3  and  C_10 
REMARK    3  A    between atoms: Se_7  and  C_19 
REMARK    4  A    between atoms: C_9  and  C_10 
REMARK    5  A    between atoms: C_10  and  C_11 
REMARK    6  A    between atoms: C_11  and  C_19 
ROOT
HETATM    1  C           1     -35.404  -2.139 -10.972  0.00  0.00     0.249 C 
HETATM    2  N           1     -35.634  -0.887 -10.466  0.00  0.00    -0.345 N 
HETATM    3  O           1     -36.189  -3.031 -10.756  0.00  0.00    -0.271 OA
HETATM    4  H           1     -34.977  -0.139 -10.648  0.00  0.00     0.163 HD
ENDROOT
BRANCH   1   5
HETATM    5  C           1     -34.171  -2.402 -11.801  0.00  0.00     0.274 C 
HETATM    6  C           1     -34.489  -3.439 -12.870  0.00  0.00     0.042 C 
HETATM    7  C           1     -34.941  -4.733 -12.206  0.00  0.00     0.003 C 
HETATM    8 Se           1     -33.518  -5.404 -11.056  0.00  0.00     0.000 Se
HETATM    9  C           1     -34.511  -6.973 -10.466  0.00  0.00     0.000 C 
HETATM   10  H           1     -33.387  -3.806 -10.459  0.00  0.00     0.275 HD
HETATM   11  N           1     -33.076  -2.919 -10.916  0.00  0.00    -0.067 N 
HETATM   12  H           1     -32.222  -3.102 -11.489  0.00  0.00     0.275 HD
HETATM   13  H           1     -32.857  -2.207 -10.182  0.00  0.00     0.275 HD
ENDBRANCH   1   5
BRANCH   2  14
HETATM   14  C           1     -36.819  -0.634  -9.669  0.00  0.00     0.185 C 
BRANCH  14  15
HETATM   15  C           1     -37.681   0.393 -10.364  0.00  0.00     0.196 C 
HETATM   16  O           1     -38.040   1.423  -9.754  0.00  0.00    -0.646 OA
HETATM   17  O           1     -38.036   0.212 -11.549  0.00  0.00    -0.646 OA
ENDBRANCH  14  15
BRANCH  14  18
HETATM   18  C           1     -36.408  -0.110  -8.301  0.00  0.00     0.036 C 
BRANCH  18  19
HETATM   19  C           1     -37.550  -0.313  -7.314  0.00  0.00     0.003 C 
BRANCH  19  20
HETATM   20 Se           1     -37.244   0.781  -5.730  0.00  0.00     0.000 Se
HETATM   21  C           1     -38.074  -0.480  -4.498  0.00  0.00     0.000 C 
ENDBRANCH  19  20
ENDBRANCH  18  19
ENDBRANCH  14  18
ENDBRANCH   2  14
TORSDOF 6
ENDMDL
MODEL 2
REMARK VINA RESULT:      -6.0     14.815     16.961
REMARK  6 active torsions:
REMARK  status: ('A' for Active; 'I' for Inactive)
REMARK    1  A    between atoms: C_1  and  C_2 
REMARK       I    between atoms: C_2  and  N_3 
REMARK    2  A    between atoms: N_3  and  C_10 
REMARK    3  A    between atoms: Se_7  and  C_19 
REMARK    4  A    between atoms: C_9  and  C_10 
REMARK    5  A    between atoms: C_10  and  C_11 
REMARK    6  A    between atoms: C_11  and  C_19 
ROOT
HETATM    1  C           1     -20.683  -5.728  -6.501  0.00  0.00     0.249 C 
HETATM    2  N           1     -20.736  -5.801  -5.135  0.00  0.00    -0.345 N 
HETATM    3  O           1     -21.028  -6.672  -7.170  0.00  0.00    -0.271 OA
HETATM    4  H           1     -20.447  -5.010  -4.574  0.00  0.00     0.163 HD
ENDROOT
BRANCH   1   5
HETATM    5  C           1     -20.193  -4.467  -7.171  0.00  0.00     0.274 C 
HETATM    6  C           1     -21.298  -3.420  -7.154  0.00  0.00     0.042 C 
HETATM    7  C           1     -22.514  -3.952  -7.901  0.00  0.00     0.003 C 
HETATM    8 Se           1     -22.023  -4.347  -9.745  0.00  0.00     0.000 Se
HETATM    9  C           1     -23.799  -4.960 -10.260  0.00  0.00     0.000 C 
HETATM   10  H           1     -20.649  -5.137  -9.102  0.00  0.00     0.275 HD
HETATM   11  N           1     -19.815  -4.771  -8.590  0.00  0.00    -0.067 N 
HETATM   12  H           1     -19.475  -3.899  -9.055  0.00  0.00     0.275 HD
HETATM   13  H           1     -19.055  -5.490  -8.602  0.00  0.00     0.275 HD
ENDBRANCH   1   5
BRANCH   2  14
HETATM   14  C           1     -21.207  -7.012  -4.491  0.00  0.00     0.185 C 
BRANCH  14  15
HETATM   15  C           1     -21.572  -6.710  -3.058  0.00  0.00     0.196 C 
HETATM   16  O           1     -22.541  -5.962  -2.804  0.00  0.00    -0.646 OA
HETATM   17  O           1     -20.905  -7.207  -2.125  0.00  0.00    -0.646 OA
ENDBRANCH  14  15
BRANCH  14  18
HETATM   18  C           1     -20.107  -8.065  -4.524  0.00  0.00     0.036 C 
BRANCH  18  19
HETATM   19  C           1     -20.713  -9.423  -4.849  0.00  0.00     0.003 C 
BRANCH  19  20
HETATM   20 Se           1     -20.107 -10.736  -3.542  0.00  0.00     0.000 Se
HETATM   21  C           1     -18.542  -9.711  -2.995  0.00  0.00     0.000 C 
ENDBRANCH  19  20
ENDBRANCH  18  19
ENDBRANCH  14  18
ENDBRANCH   2  14
TORSDOF 6
ENDMDL
MODEL 3
REMARK VINA RESULT:      -5.9      3.388      4.713
REMARK  6 active torsions:
REMARK  status: ('A' for Active; 'I' for Inactive)
REMARK    1  A    between atoms: C_1  and  C_2 
REMARK       I    between atoms: C_2  and  N_3 
REMARK    2  A    between atoms: N_3  and  C_10 
REMARK    3  A    between atoms: Se_7  and  C_19 
REMARK    4  A    between atoms: C_9  and  C_10 
REMARK    5  A    between atoms: C_10  and  C_11 
REMARK    6  A    between atoms: C_11  and  C_19 
ROOT
HETATM    1  C           1     -33.759  -2.825 -12.048  0.00  0.00     0.249 C 
HETATM    2  N           1     -34.766  -2.007 -12.486  0.00  0.00    -0.345 N 
HETATM    3  O           1     -33.219  -2.605 -10.990  0.00  0.00    -0.271 OA
HETATM    4  H           1     -35.219  -2.192 -13.372  0.00  0.00     0.163 HD
ENDROOT
BRANCH   1   5
HETATM    5  C           1     -33.324  -4.002 -12.886  0.00  0.00     0.274 C 
HETATM    6  C           1     -34.528  -4.884 -13.188  0.00  0.00     0.042 C 
HETATM    7  C           1     -35.132  -5.386 -11.883  0.00  0.00     0.003 C 
HETATM    8 Se           1     -33.800  -6.420 -10.906  0.00  0.00     0.000 Se
HETATM    9  C           1     -34.974  -6.820  -9.404  0.00  0.00     0.000 C 
HETATM   10  H           1     -32.714  -5.141 -11.238  0.00  0.00     0.275 HD
HETATM   11  N           1     -32.299  -4.798 -12.134  0.00  0.00    -0.067 N 
HETATM   12  H           1     -31.997  -5.614 -12.714  0.00  0.00     0.275 HD
HETATM   13  H           1     -31.472  -4.193 -11.927  0.00  0.00     0.275 HD
ENDBRANCH   1   5
BRANCH   2  14
HETATM   14  C           1     -35.184  -0.876 -11.681  0.00  0.00     0.185 C 
BRANCH  14  15
HETATM   15  C           1     -36.120  -1.350 -10.596  0.00  0.00     0.196 C 
HETATM   16  O           1     -36.779  -2.401 -10.754  0.00  0.00    -0.646 OA
HETATM   17  O           1     -36.239  -0.691  -9.540  0.00  0.00    -0.646 OA
ENDBRANCH  14  15
BRANCH  14  18
HETATM   18  C           1     -35.900   0.138 -12.563  0.00  0.00     0.036 C 
BRANCH  18  19
HETATM   19  C           1     -35.056   0.422 -13.798  0.00  0.00     0.003 C 
BRANCH  19  20
HETATM   20 Se           1     -36.217   0.590 -15.355  0.00  0.00     0.000 Se
HETATM   21  C           1     -35.558  -1.025 -16.224  0.00  0.00     0.000 C 
ENDBRANCH  19  20
ENDBRANCH  18  19
ENDBRANCH  14  18
ENDBRANCH   2  14
TORSDOF 6
ENDMDL
MODEL 4
REMARK VINA RESULT:      -5.7     11.177     14.985
REMARK  6 active torsions:
REMARK  status: ('A' for Active; 'I' for Inactive)
REMARK    1  A    between atoms: C_1  and  C_2 
REMARK       I    between atoms: C_2  and  N_3 
REMARK    2  A    between atoms: N_3  and  C_10 
REMARK    3  A    between atoms: Se_7  and  C_19 
REMARK    4  A    between atoms: C_9  and  C_10 
REMARK    5  A    between atoms: C_10  and  C_11 
REMARK    6  A    between atoms: C_11  and  C_19 
ROOT
HETATM    1  C           1     -27.607  -6.083 -18.727  0.00  0.00     0.249 C 
HETATM    2  N           1     -26.956  -7.163 -19.260  0.00  0.00    -0.345 N 
HETATM    3  O           1     -28.340  -5.417 -19.419  0.00  0.00    -0.271 OA
HETATM    4  H           1     -26.343  -7.721 -18.680  0.00  0.00     0.163 HD
ENDROOT
BRANCH   1   5
HETATM    5  C           1     -27.411  -5.725 -17.274  0.00  0.00     0.274 C 
HETATM    6  C           1     -28.177  -6.709 -16.400  0.00  0.00     0.042 C 
HETATM    7  C           1     -29.660  -6.646 -16.742  0.00  0.00     0.003 C 
HETATM    8 Se           1     -30.325  -4.843 -16.424  0.00  0.00     0.000 Se
HETATM    9  C           1     -32.151  -5.243 -16.973  0.00  0.00     0.000 C 
HETATM   10  H           1     -28.940  -4.294 -17.266  0.00  0.00     0.275 HD
HETATM   11  N           1     -27.923  -4.337 -17.029  0.00  0.00    -0.067 N 
HETATM   12  H           1     -27.788  -4.088 -16.023  0.00  0.00     0.275 HD
HETATM   13  H           1     -27.397  -3.661 -17.629  0.00  0.00     0.275 HD
ENDBRANCH   1   5
BRANCH   2  14
HETATM   14  C           1     -27.145  -7.507 -20.656  0.00  0.00     0.185 C 
BRANCH  14  15
HETATM   15  C           1     -28.128  -8.648 -20.764  0.00  0.00     0.196 C 
HETATM   16  O           1     -27.967  -9.532 -21.633  0.00  0.00    -0.646 OA
HETATM   17  O           1     -29.104  -8.707 -19.986  0.00  0.00    -0.646 OA
ENDBRANCH  14  15
BRANCH  14  18
HETATM   18  C           1     -25.811  -7.927 -21.260  0.00  0.00     0.036 C 
BRANCH  18  19
HETATM   19  C           1     -24.686  -7.594 -20.289  0.00  0.00     0.003 C 
BRANCH  19  20
HETATM   20 Se           1     -22.996  -8.252 -21.000  0.00  0.00     0.000 Se
HETATM   21  C           1     -23.491  -7.989 -22.867  0.00  0.00     0.000 C 
ENDBRANCH  19  20
ENDBRANCH  18  19
ENDBRANCH  14  18
ENDBRANCH   2  14
TORSDOF 6
ENDMDL
MODEL 5
REMARK VINA RESULT:      -5.5     17.019     18.499
REMARK  6 active torsions:
REMARK  status: ('A' for Active; 'I' for Inactive)
REMARK    1  A    between atoms: C_1  and  C_2 
REMARK       I    between atoms: C_2  and  N_3 
REMARK    2  A    between atoms: N_3  and  C_10 
REMARK    3  A    between atoms: Se_7  and  C_19 
REMARK    4  A    between atoms: C_9  and  C_10 
REMARK    5  A    between atoms: C_10  and  C_11 
REMARK    6  A    between atoms: C_11  and  C_19 
ROOT
HETATM    1  C           1     -20.931  -9.693  -4.266  0.00  0.00     0.249 C 
HETATM    2  N           1     -20.661  -8.459  -3.738  0.00  0.00    -0.345 N 
HETATM    3  O           1     -21.827 -10.363  -3.809  0.00  0.00    -0.271 OA
HETATM    4  H           1     -19.911  -7.898  -4.120  0.00  0.00     0.163 HD
ENDROOT
BRANCH   1   5
HETATM    5  C           1     -20.110 -10.217  -5.419  0.00  0.00     0.274 C 
HETATM    6  C           1     -19.415 -11.507  -5.004  0.00  0.00     0.042 C 
HETATM    7  C           1     -18.504 -11.234  -3.814  0.00  0.00     0.003 C 
HETATM    8 Se           1     -17.165  -9.908  -4.312  0.00  0.00     0.000 Se
HETATM    9  C           1     -16.293  -9.895  -2.570  0.00  0.00     0.000 C 
HETATM   10  H           1     -18.456  -9.009  -4.985  0.00  0.00     0.275 HD
HETATM   11  N           1     -19.081  -9.197  -5.802  0.00  0.00    -0.067 N 
HETATM   12  H           1     -18.511  -9.558  -6.600  0.00  0.00     0.275 HD
HETATM   13  H           1     -19.557  -8.311  -6.087  0.00  0.00     0.275 HD
ENDBRANCH   1   5
BRANCH   2  14
HETATM   14  C           1     -21.450  -7.956  -2.630  0.00  0.00     0.185 C 
BRANCH  14  15
HETATM   15  C           1     -21.875  -6.537  -2.920  0.00  0.00     0.196 C 
HETATM   16  O           1     -21.858  -6.106  -4.093  0.00  0.00    -0.646 OA
HETATM   17  O           1     -22.244  -5.792  -1.986  0.00  0.00    -0.646 OA
ENDBRANCH  14  15
BRANCH  14  18
HETATM   18  C           1     -20.615  -7.987  -1.357  0.00  0.00     0.036 C 
BRANCH  18  19
HETATM   19  C           1     -20.856  -9.298  -0.622  0.00  0.00     0.003 C 
BRANCH  19  20
HETATM   20 Se           1     -22.773  -9.606  -0.453  0.00  0.00     0.000 Se
HETATM   21  C           1     -23.096  -8.027   0.642  0.00  0.00     0.000 C 
ENDBRANCH  19  20
ENDBRANCH  18  19
ENDBRANCH  14  18
ENDBRANCH   2  14
TORSDOF 6
ENDMDL
MODEL 6
REMARK VINA RESULT:      -5.5     16.494     18.468
REMARK  6 active torsions:
REMARK  status: ('A' for Active; 'I' for Inactive)
REMARK    1  A    between atoms: C_1  and  C_2 
REMARK       I    between atoms: C_2  and  N_3 
REMARK    2  A    between atoms: N_3  and  C_10 
REMARK    3  A    between atoms: Se_7  and  C_19 
REMARK    4  A    between atoms: C_9  and  C_10 
REMARK    5  A    between atoms: C_10  and  C_11 
REMARK    6  A    between atoms: C_11  and  C_19 
ROOT
HETATM    1  C           1     -20.990  -7.903  -1.315  0.00  0.00     0.249 C 
HETATM    2  N           1     -21.781  -7.618  -2.396  0.00  0.00    -0.345 N 
HETATM    3  O           1     -19.816  -8.138  -1.471  0.00  0.00    -0.271 OA
HETATM    4  H           1     -22.765  -7.420  -2.265  0.00  0.00     0.163 HD
ENDROOT
BRANCH   1   5
HETATM    5  C           1     -21.586  -7.924   0.071  0.00  0.00     0.274 C 
HETATM    6  C           1     -21.169  -9.203   0.785  0.00  0.00     0.042 C 
HETATM    7  C           1     -21.669 -10.409  -0.000  0.00  0.00     0.003 C 
HETATM    8 Se           1     -23.613 -10.341  -0.128  0.00  0.00     0.000 Se
HETATM    9  C           1     -23.766 -11.990  -1.155  0.00  0.00     0.000 C 
HETATM   10  H           1     -23.424  -8.699  -0.567  0.00  0.00     0.275 HD
HETATM   11  N           1     -23.081  -7.872  -0.027  0.00  0.00    -0.067 N 
HETATM   12  H           1     -23.495  -7.886   0.932  0.00  0.00     0.275 HD
HETATM   13  H           1     -23.368  -6.993  -0.516  0.00  0.00     0.275 HD
ENDBRANCH   1   5
BRANCH   2  14
HETATM   14  C           1     -21.209  -7.598  -3.728  0.00  0.00     0.185 C 
BRANCH  14  15
HETATM   15  C           1     -21.649  -6.345  -4.445  0.00  0.00     0.196 C 
HETATM   16  O           1     -20.816  -5.452  -4.713  0.00  0.00    -0.646 OA
HETATM   17  O           1     -22.848  -6.199  -4.771  0.00  0.00    -0.646 OA
ENDBRANCH  14  15
BRANCH  14  18
HETATM   18  C           1     -21.684  -8.820  -4.502  0.00  0.00     0.036 C 
BRANCH  18  19
HETATM   19  C           1     -20.618  -9.906  -4.441  0.00  0.00     0.003 C 
BRANCH  19  20
HETATM   20 Se           1     -18.897  -9.159  -4.971  0.00  0.00     0.000 Se
HETATM   21  C           1     -17.870 -10.173  -3.661  0.00  0.00     0.000 C 
ENDBRANCH  19  20
ENDBRANCH  18  19
ENDBRANCH  14  18
ENDBRANCH   2  14
TORSDOF 6
ENDMDL
MODEL 7
REMARK VINA RESULT:      -5.4     16.852     18.990
REMARK  6 active torsions:
REMARK  status: ('A' for Active; 'I' for Inactive)
REMARK    1  A    between atoms: C_1  and  C_2 
REMARK       I    between atoms: C_2  and  N_3 
REMARK    2  A    between atoms: N_3  and  C_10 
REMARK    3  A    between atoms: Se_7  and  C_19 
REMARK    4  A    between atoms: C_9  and  C_10 
REMARK    5  A    between atoms: C_10  and  C_11 
REMARK    6  A    between atoms: C_11  and  C_19 
ROOT
HETATM    1  C           1     -21.529 -10.576   0.362  0.00  0.00     0.249 C 
HETATM    2  N           1     -22.006  -9.695  -0.571  0.00  0.00    -0.345 N 
HETATM    3  O           1     -20.612 -10.257   1.081  0.00  0.00    -0.271 OA
HETATM    4  H           1     -22.774  -9.963  -1.173  0.00  0.00     0.163 HD
ENDROOT
BRANCH   1   5
HETATM    5  C           1     -22.148 -11.946   0.493  0.00  0.00     0.274 C 
HETATM    6  C           1     -21.095 -13.010   0.216  0.00  0.00     0.042 C 
HETATM    7  C           1     -20.551 -12.832  -1.195  0.00  0.00     0.003 C 
HETATM    8 Se           1     -22.006 -13.011  -2.479  0.00  0.00     0.000 Se
HETATM    9  C           1     -20.880 -12.722  -4.043  0.00  0.00     0.000 C 
HETATM   10  H           1     -22.895 -11.961  -1.464  0.00  0.00     0.275 HD
HETATM   11  N           1     -23.268 -12.084  -0.495  0.00  0.00    -0.067 N 
HETATM   12  H           1     -23.698 -13.032  -0.405  0.00  0.00     0.275 HD
HETATM   13  H           1     -23.992 -11.354  -0.305  0.00  0.00     0.275 HD
ENDBRANCH   1   5
BRANCH   2  14
HETATM   14  C           1     -21.410  -8.379  -0.698  0.00  0.00     0.185 C 
BRANCH  14  15
HETATM   15  C           1     -22.481  -7.327  -0.544  0.00  0.00     0.196 C 
HETATM   16  O           1     -23.419  -7.502   0.264  0.00  0.00    -0.646 OA
HETATM   17  O           1     -22.431  -6.280  -1.226  0.00  0.00    -0.646 OA
ENDBRANCH  14  15
BRANCH  14  18
HETATM   18  C           1     -20.759  -8.246  -2.068  0.00  0.00     0.036 C 
BRANCH  18  19
HETATM   19  C           1     -21.457  -9.174  -3.054  0.00  0.00     0.003 C 
BRANCH  19  20
HETATM   20 Se           1     -21.057  -8.607  -4.875  0.00  0.00     0.000 Se
HETATM   21  C           1     -22.025  -6.921  -4.738  0.00  0.00     0.000 C 
ENDBRANCH  19  20
ENDBRANCH  18  19
ENDBRANCH  14  18
ENDBRANCH   2  14
TORSDOF 6
ENDMDL
MODEL 8
REMARK VINA RESULT:      -5.4     15.865     17.671
REMARK  6 active torsions:
REMARK  status: ('A' for Active; 'I' for Inactive)
REMARK    1  A    between atoms: C_1  and  C_2 
REMARK       I    between atoms: C_2  and  N_3 
REMARK    2  A    between atoms: N_3  and  C_10 
REMARK    3  A    between atoms: Se_7  and  C_19 
REMARK    4  A    between atoms: C_9  and  C_10 
REMARK    5  A    between atoms: C_10  and  C_11 
REMARK    6  A    between atoms: C_11  and  C_19 
ROOT
HETATM    1  C           1     -20.187  -9.277  -4.619  0.00  0.00     0.249 C 
HETATM    2  N           1     -20.865  -8.362  -5.380  0.00  0.00    -0.345 N 
HETATM    3  O           1     -19.400  -8.902  -3.782  0.00  0.00    -0.271 OA
HETATM    4  H           1     -21.524  -8.677  -6.080  0.00  0.00     0.163 HD
ENDROOT
BRANCH   1   5
HETATM    5  C           1     -20.423 -10.753  -4.824  0.00  0.00     0.274 C 
HETATM    6  C           1     -21.869 -11.089  -4.485  0.00  0.00     0.042 C 
HETATM    7  C           1     -22.148 -10.728  -3.032  0.00  0.00     0.003 C 
HETATM    8 Se           1     -20.957 -11.743  -1.870  0.00  0.00     0.000 Se
HETATM    9  C           1     -21.654 -10.982  -0.218  0.00  0.00     0.000 C 
HETATM   10  H           1     -19.698 -11.285  -2.933  0.00  0.00     0.275 HD
HETATM   11  N           1     -19.507 -11.534  -3.930  0.00  0.00    -0.067 N 
HETATM   12  H           1     -19.669 -12.557  -4.072  0.00  0.00     0.275 HD
HETATM   13  H           1     -18.514 -11.305  -4.163  0.00  0.00     0.275 HD
ENDBRANCH   1   5
BRANCH   2  14
HETATM   14  C           1     -20.638  -6.944  -5.182  0.00  0.00     0.185 C 
BRANCH  14  15
HETATM   15  C           1     -21.819  -6.342  -4.461  0.00  0.00     0.196 C 
HETATM   16  O           1     -21.695  -5.942  -3.282  0.00  0.00    -0.646 OA
HETATM   17  O           1     -22.922  -6.244  -5.041  0.00  0.00    -0.646 OA
ENDBRANCH  14  15
BRANCH  14  18
HETATM   18  C           1     -20.468  -6.264  -6.534  0.00  0.00     0.036 C 
BRANCH  18  19
HETATM   19  C           1     -20.108  -4.799  -6.325  0.00  0.00     0.003 C 
BRANCH  19  20
HETATM   20 Se           1     -21.323  -3.677  -7.355  0.00  0.00     0.000 Se
HETATM   21  C           1     -20.620  -4.224  -9.088  0.00  0.00     0.000 C 
ENDBRANCH  19  20
ENDBRANCH  18  19
ENDBRANCH  14  18
ENDBRANCH   2  14
TORSDOF 6
ENDMDL
MODEL 9
REMARK VINA RESULT:      -5.3     17.299     19.123
REMARK  6 active torsions:
REMARK  status: ('A' for Active; 'I' for Inactive)
REMARK    1  A    between atoms: C_1  and  C_2 
REMARK       I    between atoms: C_2  and  N_3 
REMARK    2  A    between atoms: N_3  and  C_10 
REMARK    3  A    between atoms: Se_7  and  C_19 
REMARK    4  A    between atoms: C_9  and  C_10 
REMARK    5  A    between atoms: C_10  and  C_11 
REMARK    6  A    between atoms: C_11  and  C_19 
ROOT
HETATM    1  C           1     -22.101  -9.267  -0.565  0.00  0.00     0.249 C 
HETATM    2  N           1     -21.925  -8.873  -1.865  0.00  0.00    -0.345 N 
HETATM    3  O           1     -21.526  -8.687   0.324  0.00  0.00    -0.271 OA
HETATM    4  H           1     -22.407  -9.359  -2.610  0.00  0.00     0.163 HD
ENDROOT
BRANCH   1   5
HETATM    5  C           1     -23.012 -10.426  -0.244  0.00  0.00     0.274 C 
HETATM    6  C           1     -22.207 -11.540   0.410  0.00  0.00     0.042 C 
HETATM    7  C           1     -21.113 -12.005  -0.543  0.00  0.00     0.003 C 
HETATM    8 Se           1     -21.922 -12.668  -2.187  0.00  0.00     0.000 Se
HETATM    9  C           1     -20.226 -13.117  -3.034  0.00  0.00     0.000 C 
HETATM   10  H           1     -22.884 -11.254  -2.164  0.00  0.00     0.275 HD
HETATM   11  N           1     -23.635 -10.936  -1.510  0.00  0.00    -0.067 N 
HETATM   12  H           1     -24.266 -11.739  -1.288  0.00  0.00     0.275 HD
HETATM   13  H           1     -24.188 -10.172  -1.959  0.00  0.00     0.275 HD
ENDBRANCH   1   5
BRANCH   2  14
HETATM   14  C           1     -21.049  -7.759  -2.174  0.00  0.00     0.185 C 
BRANCH  14  15
HETATM   15  C           1     -21.875  -6.585  -2.639  0.00  0.00     0.196 C 
HETATM   16  O           1     -21.895  -6.275  -3.850  0.00  0.00    -0.646 OA
HETATM   17  O           1     -22.538  -5.921  -1.813  0.00  0.00    -0.646 OA
ENDBRANCH  14  15
BRANCH  14  18
HETATM   18  C           1     -20.080  -8.167  -3.274  0.00  0.00     0.036 C 
BRANCH  18  19
HETATM   19  C           1     -19.153  -9.259  -2.757  0.00  0.00     0.003 C 
BRANCH  19  20
HETATM   20 Se           1     -17.840  -9.702  -4.127  0.00  0.00     0.000 Se
HETATM   21  C           1     -16.306  -9.565  -2.933  0.00  0.00     0.000 C 
ENDBRANCH  19  20
ENDBRANCH  18  19
ENDBRANCH  14  18
ENDBRANCH   2  14
TORSDOF 6
ENDMDL
