MODEL 1
REMARK VINA RESULT:      -5.7      0.000      0.000
REMARK  8 active torsions:
REMARK  status: ('A' for Active; 'I' for Inactive)
REMARK    1  A    between atoms: C_2  and  C_4 
REMARK    2  A    between atoms: C_4  and  C_5 
REMARK    3  A    between atoms: C_5  and  C_6 
REMARK    4  A    between atoms: C_5  and  N_9 
REMARK       I    between atoms: N_9  and  C_10 
REMARK    5  A    between atoms: C_10  and  C_11 
REMARK    6  A    between atoms: C_11  and  C_12 
REMARK    7  A    between atoms: C_11  and  N_14 
REMARK    8  A    between atoms: C_12  and  Se_13 
ROOT
HETATM    1  N           1     -34.982  -1.731 -13.063  0.00  0.00    -0.344 N 
HETATM    2  C           1     -34.276  -2.587 -12.260  0.00  0.00     0.249 C 
HETATM    3  O           1     -33.745  -2.174 -11.256  0.00  0.00    -0.271 OA
HETATM    4  H           1     -35.426  -2.077 -13.904  0.00  0.00     0.163 HD
ENDROOT
BRANCH   1   5
HETATM    5  C           1     -35.092  -0.330 -12.708  0.00  0.00     0.195 C 
BRANCH   5   6
HETATM    6  C           1     -35.306   0.497 -13.969  0.00  0.00     0.149 C 
BRANCH   6   7
HETATM    7  C           1     -35.683  -0.414 -15.110  0.00  0.00     0.175 C 
HETATM    8  O           1     -36.879  -0.728 -15.291  0.00  0.00    -0.648 OA
HETATM    9  O           1     -34.798  -0.856 -15.876  0.00  0.00    -0.648 OA
ENDBRANCH   6   7
ENDBRANCH   5   6
BRANCH   5  10
HETATM   10  C           1     -36.263  -0.139 -11.775  0.00  0.00     0.197 C 
HETATM   11  O           1     -37.370  -0.647 -12.050  0.00  0.00    -0.646 OA
HETATM   12  O           1     -36.124   0.528 -10.727  0.00  0.00    -0.646 OA
ENDBRANCH   5  10
ENDBRANCH   1   5
BRANCH   2  13
HETATM   13  C           1     -34.161  -4.046 -12.629  0.00  0.00     0.274 C 
BRANCH  13  14
HETATM   14  C           1     -33.236  -4.748 -11.644  0.00  0.00     0.045 C 
BRANCH  14  15
HETATM   15 Se           1     -34.227  -6.129 -10.691  0.00  0.00     0.000 Se
HETATM   16  H           1     -35.073  -6.480 -11.843  0.00  0.00     0.000 HD
ENDBRANCH  14  15
ENDBRANCH  13  14
BRANCH  13  17
HETATM   17  N           1     -33.600  -4.168 -14.014  0.00  0.00    -0.067 N 
HETATM   18  H           1     -34.142  -3.557 -14.666  0.00  0.00     0.275 HD
HETATM   19  H           1     -32.598  -3.869 -14.012  0.00  0.00     0.275 HD
HETATM   20  H           1     -33.667  -5.161 -14.331  0.00  0.00     0.275 HD
ENDBRANCH  13  17
ENDBRANCH   2  13
TORSDOF 8
ENDMDL
MODEL 2
REMARK VINA RESULT:      -5.2      3.029      4.519
REMARK  8 active torsions:
REMARK  status: ('A' for Active; 'I' for Inactive)
REMARK    1  A    between atoms: C_2  and  C_4 
REMARK    2  A    between atoms: C_4  and  C_5 
REMARK    3  A    between atoms: C_5  and  C_6 
REMARK    4  A    between atoms: C_5  and  N_9 
REMARK       I    between atoms: N_9  and  C_10 
REMARK    5  A    between atoms: C_10  and  C_11 
REMARK    6  A    between atoms: C_11  and  C_12 
REMARK    7  A    between atoms: C_11  and  N_14 
REMARK    8  A    between atoms: C_12  and  Se_13 
ROOT
HETATM    1  N           1     -36.277  -0.121 -12.100  0.00  0.00    -0.344 N 
HETATM    2  C           1     -36.875  -0.149 -13.332  0.00  0.00     0.249 C 
HETATM    3  O           1     -37.955  -0.675 -13.468  0.00  0.00    -0.271 OA
HETATM    4  H           1     -35.372   0.318 -11.987  0.00  0.00     0.163 HD
ENDROOT
BRANCH   1   5
HETATM    5  C           1     -36.940  -0.723 -10.959  0.00  0.00     0.195 C 
BRANCH   5   6
HETATM    6  C           1     -36.151  -1.941 -10.500  0.00  0.00     0.149 C 
BRANCH   6   7
HETATM    7  C           1     -34.868  -2.037 -11.287  0.00  0.00     0.175 C 
HETATM    8  O           1     -34.823  -2.732 -12.325  0.00  0.00    -0.648 OA
HETATM    9  O           1     -33.850  -1.421 -10.903  0.00  0.00    -0.648 OA
ENDBRANCH   6   7
ENDBRANCH   5   6
BRANCH   5  10
HETATM   10  C           1     -37.015   0.282  -9.836  0.00  0.00     0.197 C 
HETATM   11  O           1     -37.851   1.209  -9.881  0.00  0.00    -0.646 OA
HETATM   12  O           1     -36.241   0.186  -8.859  0.00  0.00    -0.646 OA
ENDBRANCH   5  10
ENDBRANCH   1   5
BRANCH   2  13
HETATM   13  C           1     -36.186   0.476 -14.520  0.00  0.00     0.274 C 
BRANCH  13  14
HETATM   14  C           1     -36.783  -0.080 -15.805  0.00  0.00     0.045 C 
BRANCH  14  15
HETATM   15 Se           1     -35.534  -1.341 -16.611  0.00  0.00     0.000 Se
HETATM   16  H           1     -35.090  -1.902 -15.325  0.00  0.00     0.000 HD
ENDBRANCH  14  15
ENDBRANCH  13  14
BRANCH  13  17
HETATM   17  N           1     -34.721   0.159 -14.472  0.00  0.00    -0.067 N 
HETATM   18  H           1     -34.180   0.939 -14.907  0.00  0.00     0.275 HD
HETATM   19  H           1     -34.423   0.042 -13.476  0.00  0.00     0.275 HD
HETATM   20  H           1     -34.539  -0.727 -14.996  0.00  0.00     0.275 HD
ENDBRANCH  13  17
ENDBRANCH   2  13
TORSDOF 8
ENDMDL
MODEL 3
REMARK VINA RESULT:      -5.2     11.971     13.928
REMARK  8 active torsions:
REMARK  status: ('A' for Active; 'I' for Inactive)
REMARK    1  A    between atoms: C_2  and  C_4 
REMARK    2  A    between atoms: C_4  and  C_5 
REMARK    3  A    between atoms: C_5  and  C_6 
REMARK    4  A    between atoms: C_5  and  N_9 
REMARK       I    between atoms: N_9  and  C_10 
REMARK    5  A    between atoms: C_10  and  C_11 
REMARK    6  A    between atoms: C_11  and  C_12 
REMARK    7  A    between atoms: C_11  and  N_14 
REMARK    8  A    between atoms: C_12  and  Se_13 
ROOT
HETATM    1  N           1     -22.232  -4.183  -9.252  0.00  0.00    -0.344 N 
HETATM    2  C           1     -21.404  -4.643  -8.262  0.00  0.00     0.249 C 
HETATM    3  O           1     -20.453  -5.333  -8.542  0.00  0.00    -0.271 OA
HETATM    4  H           1     -23.029  -3.605  -9.017  0.00  0.00     0.163 HD
ENDROOT
BRANCH   1   5
HETATM    5  C           1     -21.965  -4.525 -10.636  0.00  0.00     0.195 C 
BRANCH   5   6
HETATM    6  C           1     -23.284  -4.716 -11.373  0.00  0.00     0.149 C 
BRANCH   6   7
HETATM    7  C           1     -24.411  -4.155 -10.542  0.00  0.00     0.175 C 
HETATM    8  O           1     -24.972  -4.872  -9.685  0.00  0.00    -0.648 OA
HETATM    9  O           1     -24.784  -2.974 -10.710  0.00  0.00    -0.648 OA
ENDBRANCH   6   7
ENDBRANCH   5   6
BRANCH   5  10
HETATM   10  C           1     -21.181  -3.411 -11.286  0.00  0.00     0.197 C 
HETATM   11  O           1     -21.780  -2.444 -11.801  0.00  0.00    -0.646 OA
HETATM   12  O           1     -19.932  -3.457 -11.308  0.00  0.00    -0.646 OA
ENDBRANCH   5  10
ENDBRANCH   1   5
BRANCH   2  13
HETATM   13  C           1     -21.680  -4.287  -6.822  0.00  0.00     0.274 C 
BRANCH  13  14
HETATM   14  C           1     -20.804  -5.137  -5.911  0.00  0.00     0.045 C 
BRANCH  14  15
HETATM   15 Se           1     -21.875  -6.560  -5.119  0.00  0.00     0.000 Se
HETATM   16  H           1     -22.487  -6.967  -6.395  0.00  0.00     0.000 HD
ENDBRANCH  14  15
ENDBRANCH  13  14
BRANCH  13  17
HETATM   17  N           1     -23.124  -4.549  -6.511  0.00  0.00    -0.067 N 
HETATM   18  H           1     -23.464  -3.851  -5.812  0.00  0.00     0.275 HD
HETATM   19  H           1     -23.690  -4.467  -7.387  0.00  0.00     0.275 HD
HETATM   20  H           1     -23.227  -5.513  -6.120  0.00  0.00     0.275 HD
ENDBRANCH  13  17
ENDBRANCH   2  13
TORSDOF 8
ENDMDL
MODEL 4
REMARK VINA RESULT:      -5.2      2.776      4.947
REMARK  8 active torsions:
REMARK  status: ('A' for Active; 'I' for Inactive)
REMARK    1  A    between atoms: C_2  and  C_4 
REMARK    2  A    between atoms: C_4  and  C_5 
REMARK    3  A    between atoms: C_5  and  C_6 
REMARK    4  A    between atoms: C_5  and  N_9 
REMARK       I    between atoms: N_9  and  C_10 
REMARK    5  A    between atoms: C_10  and  C_11 
REMARK    6  A    between atoms: C_11  and  C_12 
REMARK    7  A    between atoms: C_11  and  N_14 
REMARK    8  A    between atoms: C_12  and  Se_13 
ROOT
HETATM    1  N           1     -35.962  -0.968 -13.174  0.00  0.00    -0.344 N 
HETATM    2  C           1     -35.635   0.049 -14.031  0.00  0.00     0.249 C 
HETATM    3  O           1     -34.514   0.500 -14.034  0.00  0.00    -0.271 OA
HETATM    4  H           1     -36.901  -1.345 -13.171  0.00  0.00     0.163 HD
ENDROOT
BRANCH   1   5
HETATM    5  C           1     -34.962  -1.503 -12.269  0.00  0.00     0.195 C 
BRANCH   5   6
HETATM    6  C           1     -35.541  -1.580 -10.863  0.00  0.00     0.149 C 
BRANCH   6   7
HETATM    7  C           1     -36.698  -0.621 -10.741  0.00  0.00     0.175 C 
HETATM    8  O           1     -37.863  -1.014 -10.965  0.00  0.00    -0.648 OA
HETATM    9  O           1     -36.492   0.569 -10.416  0.00  0.00    -0.648 OA
ENDBRANCH   6   7
ENDBRANCH   5   6
BRANCH   5  10
HETATM   10  C           1     -34.560  -2.884 -12.726  0.00  0.00     0.197 C 
HETATM   11  O           1     -34.328  -3.777 -11.885  0.00  0.00    -0.646 OA
HETATM   12  O           1     -34.460  -3.133 -13.947  0.00  0.00    -0.646 OA
ENDBRANCH   5  10
ENDBRANCH   1   5
BRANCH   2  13
HETATM   13  C           1     -36.675   0.606 -14.972  0.00  0.00     0.274 C 
BRANCH  13  14
HETATM   14  C           1     -37.188  -0.505 -15.877  0.00  0.00     0.045 C 
BRANCH  14  15
HETATM   15 Se           1     -35.687  -1.338 -16.801  0.00  0.00     0.000 Se
HETATM   16  H           1     -36.528  -2.022 -17.796  0.00  0.00     0.000 HD
ENDBRANCH  14  15
ENDBRANCH  13  14
BRANCH  13  17
HETATM   17  N           1     -36.062   1.689 -15.809  0.00  0.00    -0.067 N 
HETATM   18  H           1     -36.051   2.584 -15.270  0.00  0.00     0.275 HD
HETATM   19  H           1     -35.083   1.423 -16.061  0.00  0.00     0.275 HD
HETATM   20  H           1     -36.624   1.815 -16.681  0.00  0.00     0.275 HD
ENDBRANCH  13  17
ENDBRANCH   2  13
TORSDOF 8
ENDMDL
MODEL 5
REMARK VINA RESULT:      -4.6     12.797     14.747
REMARK  8 active torsions:
REMARK  status: ('A' for Active; 'I' for Inactive)
REMARK    1  A    between atoms: C_2  and  C_4 
REMARK    2  A    between atoms: C_4  and  C_5 
REMARK    3  A    between atoms: C_5  and  C_6 
REMARK    4  A    between atoms: C_5  and  N_9 
REMARK       I    between atoms: N_9  and  C_10 
REMARK    5  A    between atoms: C_10  and  C_11 
REMARK    6  A    between atoms: C_11  and  C_12 
REMARK    7  A    between atoms: C_11  and  N_14 
REMARK    8  A    between atoms: C_12  and  Se_13 
ROOT
HETATM    1  N           1     -22.036  -4.733  -7.295  0.00  0.00    -0.344 N 
HETATM    2  C           1     -21.423  -5.805  -6.701  0.00  0.00     0.249 C 
HETATM    3  O           1     -20.897  -6.653  -7.381  0.00  0.00    -0.271 OA
HETATM    4  H           1     -22.477  -4.023  -6.725  0.00  0.00     0.163 HD
ENDROOT
BRANCH   1   5
HETATM    5  C           1     -22.052  -4.617  -8.740  0.00  0.00     0.195 C 
BRANCH   5   6
HETATM    6  C           1     -23.042  -3.536  -9.151  0.00  0.00     0.149 C 
BRANCH   6   7
HETATM    7  C           1     -23.967  -4.077 -10.212  0.00  0.00     0.175 C 
HETATM    8  O           1     -24.835  -3.335 -10.722  0.00  0.00    -0.648 OA
HETATM    9  O           1     -23.867  -5.267 -10.581  0.00  0.00    -0.648 OA
ENDBRANCH   6   7
ENDBRANCH   5   6
BRANCH   5  10
HETATM   10  C           1     -20.672  -4.250  -9.230  0.00  0.00     0.197 C 
HETATM   11  O           1     -20.299  -4.603 -10.368  0.00  0.00    -0.646 OA
HETATM   12  O           1     -19.904  -3.593  -8.495  0.00  0.00    -0.646 OA
ENDBRANCH   5  10
ENDBRANCH   1   5
BRANCH   2  13
HETATM   13  C           1     -21.406  -5.926  -5.197  0.00  0.00     0.274 C 
BRANCH  13  14
HETATM   14  C           1     -20.506  -7.085  -4.790  0.00  0.00     0.045 C 
BRANCH  14  15
HETATM   15 Se           1     -21.123  -7.825  -3.096  0.00  0.00     0.000 Se
HETATM   16  H           1     -21.765  -6.577  -2.652  0.00  0.00     0.000 HD
ENDBRANCH  14  15
ENDBRANCH  13  14
BRANCH  13  17
HETATM   17  N           1     -22.799  -6.177  -4.700  0.00  0.00    -0.067 N 
HETATM   18  H           1     -23.463  -6.178  -5.507  0.00  0.00     0.275 HD
HETATM   19  H           1     -22.835  -7.105  -4.220  0.00  0.00     0.275 HD
HETATM   20  H           1     -23.070  -5.425  -4.027  0.00  0.00     0.275 HD
ENDBRANCH  13  17
ENDBRANCH   2  13
TORSDOF 8
ENDMDL
MODEL 6
REMARK VINA RESULT:      -4.5     15.436     17.501
REMARK  8 active torsions:
REMARK  status: ('A' for Active; 'I' for Inactive)
REMARK    1  A    between atoms: C_2  and  C_4 
REMARK    2  A    between atoms: C_4  and  C_5 
REMARK    3  A    between atoms: C_5  and  C_6 
REMARK    4  A    between atoms: C_5  and  N_9 
REMARK       I    between atoms: N_9  and  C_10 
REMARK    5  A    between atoms: C_10  and  C_11 
REMARK    6  A    between atoms: C_11  and  C_12 
REMARK    7  A    between atoms: C_11  and  N_14 
REMARK    8  A    between atoms: C_12  and  Se_13 
ROOT
HETATM    1  N           1     -20.831  -6.742  -4.718  0.00  0.00    -0.344 N 
HETATM    2  C           1     -21.367  -5.833  -5.591  0.00  0.00     0.249 C 
HETATM    3  O           1     -22.562  -5.659  -5.624  0.00  0.00    -0.271 OA
HETATM    4  H           1     -19.830  -6.889  -4.691  0.00  0.00     0.163 HD
ENDROOT
BRANCH   1   5
HETATM    5  C           1     -21.699  -7.494  -3.832  0.00  0.00     0.195 C 
BRANCH   5   6
HETATM    6  C           1     -21.244  -8.947  -3.790  0.00  0.00     0.149 C 
BRANCH   6   7
HETATM    7  C           1     -19.946  -9.090  -4.545  0.00  0.00     0.175 C 
HETATM    8  O           1     -19.959  -9.375  -5.762  0.00  0.00    -0.648 OA
HETATM    9  O           1     -18.857  -8.922  -3.953  0.00  0.00    -0.648 OA
ENDBRANCH   6   7
ENDBRANCH   5   6
BRANCH   5  10
HETATM   10  C           1     -21.632  -6.905  -2.444  0.00  0.00     0.197 C 
HETATM   11  O           1     -22.298  -5.885  -2.166  0.00  0.00    -0.646 OA
HETATM   12  O           1     -20.911  -7.438  -1.574  0.00  0.00    -0.646 OA
ENDBRANCH   5  10
ENDBRANCH   1   5
BRANCH   2  13
HETATM   13  C           1     -20.464  -5.051  -6.513  0.00  0.00     0.274 C 
BRANCH  13  14
HETATM   14  C           1     -21.243  -3.894  -7.125  0.00  0.00     0.045 C 
BRANCH  14  15
HETATM   15 Se           1     -21.752  -4.345  -8.951  0.00  0.00     0.000 Se
HETATM   16  H           1     -20.537  -3.774  -9.555  0.00  0.00     0.000 HD
ENDBRANCH  14  15
ENDBRANCH  13  14
BRANCH  13  17
HETATM   17  N           1     -19.966  -5.949  -7.606  0.00  0.00    -0.067 N 
HETATM   18  H           1     -20.540  -6.822  -7.630  0.00  0.00     0.275 HD
HETATM   19  H           1     -20.044  -5.457  -8.525  0.00  0.00     0.275 HD
HETATM   20  H           1     -18.966  -6.195  -7.426  0.00  0.00     0.275 HD
ENDBRANCH  13  17
ENDBRANCH   2  13
TORSDOF 8
ENDMDL
MODEL 7
REMARK VINA RESULT:      -4.5      2.834      4.834
REMARK  8 active torsions:
REMARK  status: ('A' for Active; 'I' for Inactive)
REMARK    1  A    between atoms: C_2  and  C_4 
REMARK    2  A    between atoms: C_4  and  C_5 
REMARK    3  A    between atoms: C_5  and  C_6 
REMARK    4  A    between atoms: C_5  and  N_9 
REMARK       I    between atoms: N_9  and  C_10 
REMARK    5  A    between atoms: C_10  and  C_11 
REMARK    6  A    between atoms: C_11  and  C_12 
REMARK    7  A    between atoms: C_11  and  N_14 
REMARK    8  A    between atoms: C_12  and  Se_13 
ROOT
HETATM    1  N           1     -34.678  -1.116 -12.664  0.00  0.00    -0.344 N 
HETATM    2  C           1     -35.789  -0.660 -13.324  0.00  0.00     0.249 C 
HETATM    3  O           1     -36.859  -1.190 -13.142  0.00  0.00    -0.271 OA
HETATM    4  H           1     -33.781  -0.672 -12.817  0.00  0.00     0.163 HD
ENDROOT
BRANCH   1   5
HETATM    5  C           1     -34.787  -2.235 -11.748  0.00  0.00     0.195 C 
BRANCH   5   6
HETATM    6  C           1     -33.413  -2.559 -11.179  0.00  0.00     0.149 C 
BRANCH   6   7
HETATM    7  C           1     -33.167  -4.044 -11.271  0.00  0.00     0.175 C 
HETATM    8  O           1     -33.799  -4.829 -10.531  0.00  0.00    -0.648 OA
HETATM    9  O           1     -32.332  -4.491 -12.087  0.00  0.00    -0.648 OA
ENDBRANCH   6   7
ENDBRANCH   5   6
BRANCH   5  10
HETATM   10  C           1     -35.726  -1.873 -10.624  0.00  0.00     0.197 C 
HETATM   11  O           1     -36.730  -2.580 -10.395  0.00  0.00    -0.646 OA
HETATM   12  O           1     -35.499  -0.864  -9.921  0.00  0.00    -0.646 OA
ENDBRANCH   5  10
ENDBRANCH   1   5
BRANCH   2  13
HETATM   13  C           1     -35.676   0.504 -14.277  0.00  0.00     0.274 C 
BRANCH  13  14
HETATM   14  C           1     -35.373  -0.013 -15.677  0.00  0.00     0.045 C 
BRANCH  14  15
HETATM   15 Se           1     -37.009  -0.701 -16.484  0.00  0.00     0.000 Se
HETATM   16  H           1     -36.943  -1.998 -15.792  0.00  0.00     0.000 HD
ENDBRANCH  14  15
ENDBRANCH  13  14
BRANCH  13  17
HETATM   17  N           1     -34.567   1.410 -13.830  0.00  0.00    -0.067 N 
HETATM   18  H           1     -34.734   1.706 -12.842  0.00  0.00     0.275 HD
HETATM   19  H           1     -33.656   0.901 -13.890  0.00  0.00     0.275 HD
HETATM   20  H           1     -34.536   2.254 -14.445  0.00  0.00     0.275 HD
ENDBRANCH  13  17
ENDBRANCH   2  13
TORSDOF 8
ENDMDL
MODEL 8
REMARK VINA RESULT:      -4.5      3.346      5.316
REMARK  8 active torsions:
REMARK  status: ('A' for Active; 'I' for Inactive)
REMARK    1  A    between atoms: C_2  and  C_4 
REMARK    2  A    between atoms: C_4  and  C_5 
REMARK    3  A    between atoms: C_5  and  C_6 
REMARK    4  A    between atoms: C_5  and  N_9 
REMARK       I    between atoms: N_9  and  C_10 
REMARK    5  A    between atoms: C_10  and  C_11 
REMARK    6  A    between atoms: C_11  and  C_12 
REMARK    7  A    between atoms: C_11  and  N_14 
REMARK    8  A    between atoms: C_12  and  Se_13 
ROOT
HETATM    1  N           1     -36.505  -0.598 -12.173  0.00  0.00    -0.344 N 
HETATM    2  C           1     -35.630   0.136 -12.930  0.00  0.00     0.249 C 
HETATM    3  O           1     -34.586   0.513 -12.452  0.00  0.00    -0.271 OA
HETATM    4  H           1     -37.379  -0.912 -12.573  0.00  0.00     0.163 HD
ENDROOT
BRANCH   1   5
HETATM    5  C           1     -36.177  -0.923 -10.798  0.00  0.00     0.195 C 
BRANCH   5   6
HETATM    6  C           1     -37.427  -0.801  -9.937  0.00  0.00     0.149 C 
BRANCH   6   7
HETATM    7  C           1     -37.053  -0.261  -8.580  0.00  0.00     0.175 C 
HETATM    8  O           1     -35.965   0.335  -8.423  0.00  0.00    -0.648 OA
HETATM    9  O           1     -37.830  -0.408  -7.612  0.00  0.00    -0.648 OA
ENDBRANCH   6   7
ENDBRANCH   5   6
BRANCH   5  10
HETATM   10  C           1     -35.653  -2.337 -10.728  0.00  0.00     0.197 C 
HETATM   11  O           1     -34.422  -2.546 -10.697  0.00  0.00    -0.646 OA
HETATM   12  O           1     -36.451  -3.298 -10.702  0.00  0.00    -0.646 OA
ENDBRANCH   5  10
ENDBRANCH   1   5
BRANCH   2  13
HETATM   13  C           1     -35.970   0.475 -14.360  0.00  0.00     0.274 C 
BRANCH  13  14
HETATM   14  C           1     -37.416   0.088 -14.644  0.00  0.00     0.045 C 
BRANCH  14  15
HETATM   15 Se           1     -37.517  -0.836 -16.357  0.00  0.00     0.000 Se
HETATM   16  H           1     -36.637  -1.941 -15.945  0.00  0.00     0.000 HD
ENDBRANCH  14  15
ENDBRANCH  13  14
BRANCH  13  17
HETATM   17  N           1     -35.061  -0.281 -15.283  0.00  0.00    -0.067 N 
HETATM   18  H           1     -35.533  -0.416 -16.205  0.00  0.00     0.275 HD
HETATM   19  H           1     -34.177   0.261 -15.421  0.00  0.00     0.275 HD
HETATM   20  H           1     -34.837  -1.212 -14.865  0.00  0.00     0.275 HD
ENDBRANCH  13  17
ENDBRANCH   2  13
TORSDOF 8
ENDMDL
MODEL 9
REMARK VINA RESULT:      -4.4     12.953     15.531
REMARK  8 active torsions:
REMARK  status: ('A' for Active; 'I' for Inactive)
REMARK    1  A    between atoms: C_2  and  C_4 
REMARK    2  A    between atoms: C_4  and  C_5 
REMARK    3  A    between atoms: C_5  and  C_6 
REMARK    4  A    between atoms: C_5  and  N_9 
REMARK       I    between atoms: N_9  and  C_10 
REMARK    5  A    between atoms: C_10  and  C_11 
REMARK    6  A    between atoms: C_11  and  C_12 
REMARK    7  A    between atoms: C_11  and  N_14 
REMARK    8  A    between atoms: C_12  and  Se_13 
ROOT
HETATM    1  N           1     -21.678  -5.256  -8.020  0.00  0.00    -0.344 N 
HETATM    2  C           1     -22.893  -4.687  -8.299  0.00  0.00     0.249 C 
HETATM    3  O           1     -23.584  -4.268  -7.401  0.00  0.00    -0.271 OA
HETATM    4  H           1     -21.099  -5.607  -8.772  0.00  0.00     0.163 HD
ENDROOT
BRANCH   1   5
HETATM    5  C           1     -21.224  -5.357  -6.646  0.00  0.00     0.195 C 
BRANCH   5   6
HETATM    6  C           1     -21.096  -6.825  -6.261  0.00  0.00     0.149 C 
BRANCH   6   7
HETATM    7  C           1     -21.933  -7.098  -5.037  0.00  0.00     0.175 C 
HETATM    8  O           1     -21.885  -8.218  -4.484  0.00  0.00    -0.648 OA
HETATM    9  O           1     -22.676  -6.205  -4.574  0.00  0.00    -0.648 OA
ENDBRANCH   6   7
ENDBRANCH   5   6
BRANCH   5  10
HETATM   10  C           1     -19.881  -4.681  -6.511  0.00  0.00     0.197 C 
HETATM   11  O           1     -19.428  -4.411  -5.379  0.00  0.00    -0.646 OA
HETATM   12  O           1     -19.222  -4.393  -7.533  0.00  0.00    -0.646 OA
ENDBRANCH   5  10
ENDBRANCH   1   5
BRANCH   2  13
HETATM   13  C           1     -23.366  -4.582  -9.728  0.00  0.00     0.274 C 
BRANCH  13  14
HETATM   14  C           1     -22.705  -3.384 -10.395  0.00  0.00     0.045 C 
BRANCH  14  15
HETATM   15 Se           1     -21.238  -3.995 -11.524  0.00  0.00     0.000 Se
HETATM   16  H           1     -20.239  -3.106 -10.908  0.00  0.00     0.000 HD
ENDBRANCH  14  15
ENDBRANCH  13  14
BRANCH  13  17
HETATM   17  N           1     -24.855  -4.406  -9.749  0.00  0.00    -0.067 N 
HETATM   18  H           1     -25.086  -3.391  -9.844  0.00  0.00     0.275 HD
HETATM   19  H           1     -25.257  -4.931 -10.559  0.00  0.00     0.275 HD
HETATM   20  H           1     -25.262  -4.773  -8.859  0.00  0.00     0.275 HD
ENDBRANCH  13  17
ENDBRANCH   2  13
TORSDOF 8
ENDMDL
