MODEL 1
REMARK VINA RESULT:      -7.4      0.000      0.000
REMARK  9 active torsions:
REMARK  status: ('A' for Active; 'I' for Inactive)
REMARK    1  A    between atoms: O_1  and  C_20 
REMARK    2  A    between atoms: C_8  and  C_16 
REMARK    3  A    between atoms: C_8  and  C_13 
REMARK    4  A    between atoms: N_9  and  C_25 
REMARK       I    between atoms: N_9  and  C_15 
REMARK    5  A    between atoms: C_14  and  C_22 
REMARK    6  A    between atoms: C_14  and  C_25 
REMARK    7  A    between atoms: C_15  and  C_16 
REMARK    8  A    between atoms: C_16  and  N_17 
REMARK    9  A    between atoms: C_23  and  C_25 
ROOT
HETATM    1  C           1     -22.191  -5.250  -6.658  0.00  0.00     0.278 C 
ENDROOT
BRANCH   1   2
HETATM    2  C           1     -21.644  -3.920  -7.163  0.00  0.00     0.081 C 
BRANCH   2   3
HETATM    3  C           1     -21.657  -3.913  -8.660  0.00  0.00    -0.056 A 
HETATM    4  C           1     -20.480  -4.160  -9.368  0.00  0.00     0.010 A 
HETATM    5  C           1     -20.492  -4.153 -10.763  0.00  0.00     0.037 A 
HETATM    6  C           1     -21.679  -3.900 -11.450  0.00  0.00     0.065 A 
HETATM    7  C           1     -22.855  -3.653 -10.742  0.00  0.00     0.037 A 
HETATM    8  C           1     -22.845  -3.660  -9.347  0.00  0.00     0.010 A 
BRANCH   6   9
HETATM    9  O           1     -21.690  -3.893 -12.805  0.00  0.00    -0.361 OA
HETATM   10  H           1     -21.225  -3.094 -13.104  0.00  0.00     0.217 HD
ENDBRANCH   6   9
ENDBRANCH   2   3
ENDBRANCH   1   2
BRANCH   1  11
HETATM   11  C           1     -21.320  -5.757  -5.535  0.00  0.00     0.249 C 
HETATM   12  N           1     -21.569  -6.983  -4.975  0.00  0.00    -0.344 N 
HETATM   13  H           1     -22.337  -7.547  -5.315  0.00  0.00     0.163 HD
HETATM   14  O           1     -20.404  -5.084  -5.129  0.00  0.00    -0.271 OA
BRANCH  12  15
HETATM   15  C           1     -20.733  -7.470  -3.896  0.00  0.00     0.195 C 
BRANCH  15  16
HETATM   16  C           1     -21.611  -8.054  -2.798  0.00  0.00     0.149 C 
BRANCH  16  17
HETATM   17  C           1     -22.004  -6.963  -1.833  0.00  0.00     0.175 C 
HETATM   18  O           1     -21.991  -7.181  -0.603  0.00  0.00    -0.648 OA
HETATM   19  O           1     -22.345  -5.840  -2.265  0.00  0.00    -0.648 OA
ENDBRANCH  16  17
ENDBRANCH  15  16
BRANCH  15  20
HETATM   20  C           1     -19.807  -8.539  -4.422  0.00  0.00     0.197 C 
HETATM   21  O           1     -19.968  -8.992  -5.577  0.00  0.00    -0.646 OA
HETATM   22  O           1     -18.879  -8.970  -3.705  0.00  0.00    -0.646 OA
ENDBRANCH  15  20
ENDBRANCH  12  15
ENDBRANCH   1  11
BRANCH   1  23
HETATM   23  N           1     -23.591  -5.055  -6.156  0.00  0.00    -0.066 N 
HETATM   24  H           1     -23.978  -4.164  -6.540  0.00  0.00     0.275 HD
HETATM   25  H           1     -23.583  -5.010  -5.112  0.00  0.00     0.275 HD
HETATM   26  H           1     -24.186  -5.856  -6.467  0.00  0.00     0.275 HD
ENDBRANCH   1  23
TORSDOF 9
ENDMDL
MODEL 2
REMARK VINA RESULT:      -7.2      2.208      7.729
REMARK  9 active torsions:
REMARK  status: ('A' for Active; 'I' for Inactive)
REMARK    1  A    between atoms: O_1  and  C_20 
REMARK    2  A    between atoms: C_8  and  C_16 
REMARK    3  A    between atoms: C_8  and  C_13 
REMARK    4  A    between atoms: N_9  and  C_25 
REMARK       I    between atoms: N_9  and  C_15 
REMARK    5  A    between atoms: C_14  and  C_22 
REMARK    6  A    between atoms: C_14  and  C_25 
REMARK    7  A    between atoms: C_15  and  C_16 
REMARK    8  A    between atoms: C_16  and  N_17 
REMARK    9  A    between atoms: C_23  and  C_25 
ROOT
HETATM    1  C           1     -21.152  -5.731  -6.791  0.00  0.00     0.278 C 
ENDROOT
BRANCH   1   2
HETATM    2  C           1     -20.869  -5.229  -5.381  0.00  0.00     0.081 C 
BRANCH   2   3
HETATM    3  C           1     -21.145  -6.324  -4.397  0.00  0.00    -0.056 A 
HETATM    4  C           1     -21.264  -7.642  -4.838  0.00  0.00     0.010 A 
HETATM    5  C           1     -21.520  -8.663  -3.922  0.00  0.00     0.037 A 
HETATM    6  C           1     -21.657  -8.366  -2.567  0.00  0.00     0.065 A 
HETATM    7  C           1     -21.538  -7.048  -2.126  0.00  0.00     0.037 A 
HETATM    8  C           1     -21.281  -6.027  -3.041  0.00  0.00     0.010 A 
BRANCH   6   9
HETATM    9  O           1     -21.906  -9.358  -1.677  0.00  0.00    -0.361 OA
HETATM   10  H           1     -21.751  -9.005  -0.785  0.00  0.00     0.217 HD
ENDBRANCH   6   9
ENDBRANCH   2   3
ENDBRANCH   1   2
BRANCH   1  11
HETATM   11  C           1     -21.686  -4.596  -7.631  0.00  0.00     0.249 C 
HETATM   12  N           1     -22.277  -4.857  -8.839  0.00  0.00    -0.344 N 
HETATM   13  H           1     -22.354  -5.811  -9.168  0.00  0.00     0.163 HD
HETATM   14  O           1     -21.594  -3.458  -7.238  0.00  0.00    -0.271 OA
BRANCH  12  15
HETATM   15  C           1     -22.790  -3.768  -9.645  0.00  0.00     0.195 C 
BRANCH  15  16
HETATM   16  C           1     -22.242  -3.883 -11.062  0.00  0.00     0.149 C 
BRANCH  16  17
HETATM   17  C           1     -20.743  -3.717 -11.037  0.00  0.00     0.175 C 
HETATM   18  O           1     -20.009  -4.697 -10.784  0.00  0.00    -0.648 OA
HETATM   19  O           1     -20.233  -2.599 -11.270  0.00  0.00    -0.648 OA
ENDBRANCH  16  17
ENDBRANCH  15  16
BRANCH  15  20
HETATM   20  C           1     -24.297  -3.836  -9.681  0.00  0.00     0.197 C 
HETATM   21  O           1     -24.973  -2.797  -9.516  0.00  0.00    -0.646 OA
HETATM   22  O           1     -24.868  -4.930  -9.877  0.00  0.00    -0.646 OA
ENDBRANCH  15  20
ENDBRANCH  12  15
ENDBRANCH   1  11
BRANCH   1  23
HETATM   23  N           1     -19.882  -6.248  -7.400  0.00  0.00    -0.066 N 
HETATM   24  H           1     -19.186  -5.472  -7.466  0.00  0.00     0.275 HD
HETATM   25  H           1     -20.081  -6.620  -8.356  0.00  0.00     0.275 HD
HETATM   26  H           1     -19.496  -7.013  -6.801  0.00  0.00     0.275 HD
ENDBRANCH   1  23
TORSDOF 9
ENDMDL
MODEL 3
REMARK VINA RESULT:      -7.1     12.661     14.977
REMARK  9 active torsions:
REMARK  status: ('A' for Active; 'I' for Inactive)
REMARK    1  A    between atoms: O_1  and  C_20 
REMARK    2  A    between atoms: C_8  and  C_16 
REMARK    3  A    between atoms: C_8  and  C_13 
REMARK    4  A    between atoms: N_9  and  C_25 
REMARK       I    between atoms: N_9  and  C_15 
REMARK    5  A    between atoms: C_14  and  C_22 
REMARK    6  A    between atoms: C_14  and  C_25 
REMARK    7  A    between atoms: C_15  and  C_16 
REMARK    8  A    between atoms: C_16  and  N_17 
REMARK    9  A    between atoms: C_23  and  C_25 
ROOT
HETATM    1  C           1     -26.293  -7.733 -20.554  0.00  0.00     0.278 C 
ENDROOT
BRANCH   1   2
HETATM    2  C           1     -25.489  -7.215 -21.739  0.00  0.00     0.081 C 
BRANCH   2   3
HETATM    3  C           1     -24.116  -7.813 -21.709  0.00  0.00    -0.056 A 
HETATM    4  C           1     -23.499  -8.200 -22.899  0.00  0.00     0.010 A 
HETATM    5  C           1     -22.220  -8.757 -22.871  0.00  0.00     0.037 A 
HETATM    6  C           1     -21.559  -8.926 -21.656  0.00  0.00     0.065 A 
HETATM    7  C           1     -22.176  -8.539 -20.466  0.00  0.00     0.037 A 
HETATM    8  C           1     -23.455  -7.982 -20.493  0.00  0.00     0.010 A 
BRANCH   6   9
HETATM    9  O           1     -20.317  -9.467 -21.629  0.00  0.00    -0.361 OA
HETATM   10  H           1     -20.284 -10.174 -22.296  0.00  0.00     0.217 HD
ENDBRANCH   6   9
ENDBRANCH   2   3
ENDBRANCH   1   2
BRANCH   1  11
HETATM   11  C           1     -27.040  -6.588 -19.913  0.00  0.00     0.249 C 
HETATM   12  N           1     -27.557  -6.727 -18.653  0.00  0.00    -0.344 N 
HETATM   13  H           1     -27.438  -7.598 -18.151  0.00  0.00     0.163 HD
HETATM   14  O           1     -27.181  -5.549 -20.512  0.00  0.00    -0.271 OA
BRANCH  12  15
HETATM   15  C           1     -28.273  -5.628 -18.037  0.00  0.00     0.195 C 
BRANCH  15  16
HETATM   16  C           1     -29.723  -6.032 -17.807  0.00  0.00     0.149 C 
BRANCH  16  17
HETATM   17  C           1     -29.840  -7.536 -17.847  0.00  0.00     0.175 C 
HETATM   18  O           1     -29.425  -8.221 -16.887  0.00  0.00    -0.648 OA
HETATM   19  O           1     -30.351  -8.098 -18.840  0.00  0.00    -0.648 OA
ENDBRANCH  16  17
ENDBRANCH  15  16
BRANCH  15  20
HETATM   20  C           1     -27.630  -5.286 -16.716  0.00  0.00     0.197 C 
HETATM   21  O           1     -26.416  -5.524 -16.532  0.00  0.00    -0.646 OA
HETATM   22  O           1     -28.310  -4.766 -15.806  0.00  0.00    -0.646 OA
ENDBRANCH  15  20
ENDBRANCH  12  15
ENDBRANCH   1  11
BRANCH   1  23
HETATM   23  N           1     -27.274  -8.765 -21.029  0.00  0.00    -0.066 N 
HETATM   24  H           1     -26.758  -9.555 -21.477  0.00  0.00     0.275 HD
HETATM   25  H           1     -27.923  -8.333 -21.724  0.00  0.00     0.275 HD
HETATM   26  H           1     -27.822  -9.124 -20.214  0.00  0.00     0.275 HD
ENDBRANCH   1  23
TORSDOF 9
ENDMDL
MODEL 4
REMARK VINA RESULT:      -7.0      1.205      2.718
REMARK  9 active torsions:
REMARK  status: ('A' for Active; 'I' for Inactive)
REMARK    1  A    between atoms: O_1  and  C_20 
REMARK    2  A    between atoms: C_8  and  C_16 
REMARK    3  A    between atoms: C_8  and  C_13 
REMARK    4  A    between atoms: N_9  and  C_25 
REMARK       I    between atoms: N_9  and  C_15 
REMARK    5  A    between atoms: C_14  and  C_22 
REMARK    6  A    between atoms: C_14  and  C_25 
REMARK    7  A    between atoms: C_15  and  C_16 
REMARK    8  A    between atoms: C_16  and  N_17 
REMARK    9  A    between atoms: C_23  and  C_25 
ROOT
HETATM    1  C           1     -20.394  -5.120  -6.560  0.00  0.00     0.278 C 
ENDROOT
BRANCH   1   2
HETATM    2  C           1     -21.076  -3.856  -7.069  0.00  0.00     0.081 C 
BRANCH   2   3
HETATM    3  C           1     -21.430  -4.027  -8.513  0.00  0.00    -0.056 A 
HETATM    4  C           1     -20.451  -3.867  -9.494  0.00  0.00     0.010 A 
HETATM    5  C           1     -20.781  -4.027 -10.840  0.00  0.00     0.037 A 
HETATM    6  C           1     -22.087  -4.347 -11.205  0.00  0.00     0.065 A 
HETATM    7  C           1     -23.066  -4.507 -10.225  0.00  0.00     0.037 A 
HETATM    8  C           1     -22.738  -4.348  -8.879  0.00  0.00     0.010 A 
BRANCH   6   9
HETATM    9  O           1     -22.407  -4.502 -12.513  0.00  0.00    -0.361 OA
HETATM   10  H           1     -23.135  -3.891 -12.718  0.00  0.00     0.217 HD
ENDBRANCH   6   9
ENDBRANCH   2   3
ENDBRANCH   1   2
BRANCH   1  11
HETATM   11  C           1     -21.325  -5.851  -5.623  0.00  0.00     0.249 C 
HETATM   12  N           1     -20.827  -6.791  -4.760  0.00  0.00    -0.344 N 
HETATM   13  H           1     -19.836  -6.995  -4.751  0.00  0.00     0.163 HD
HETATM   14  O           1     -22.508  -5.608  -5.634  0.00  0.00    -0.271 OA
BRANCH  12  15
HETATM   15  C           1     -21.720  -7.494  -3.860  0.00  0.00     0.195 C 
BRANCH  15  16
HETATM   16  C           1     -21.325  -8.963  -3.797  0.00  0.00     0.149 C 
BRANCH  16  17
HETATM   17  C           1     -20.044  -9.174  -4.565  0.00  0.00     0.175 C 
HETATM   18  O           1     -18.942  -8.954  -4.017  0.00  0.00    -0.648 OA
HETATM   19  O           1     -20.084  -9.568  -5.751  0.00  0.00    -0.648 OA
ENDBRANCH  16  17
ENDBRANCH  15  16
BRANCH  15  20
HETATM   20  C           1     -21.625  -6.886  -2.482  0.00  0.00     0.197 C 
HETATM   21  O           1     -20.858  -7.388  -1.631  0.00  0.00    -0.646 OA
HETATM   22  O           1     -22.310  -5.883  -2.192  0.00  0.00    -0.646 OA
ENDBRANCH  15  20
ENDBRANCH  12  15
ENDBRANCH   1  11
BRANCH   1  23
HETATM   23  N           1     -20.057  -6.007  -7.722  0.00  0.00    -0.066 N 
HETATM   24  H           1     -20.905  -6.546  -8.007  0.00  0.00     0.275 HD
HETATM   25  H           1     -19.299  -6.670  -7.446  0.00  0.00     0.275 HD
HETATM   26  H           1     -19.733  -5.420  -8.524  0.00  0.00     0.275 HD
ENDBRANCH   1  23
TORSDOF 9
ENDMDL
MODEL 5
REMARK VINA RESULT:      -7.0     13.636     14.893
REMARK  9 active torsions:
REMARK  status: ('A' for Active; 'I' for Inactive)
REMARK    1  A    between atoms: O_1  and  C_20 
REMARK    2  A    between atoms: C_8  and  C_16 
REMARK    3  A    between atoms: C_8  and  C_13 
REMARK    4  A    between atoms: N_9  and  C_25 
REMARK       I    between atoms: N_9  and  C_15 
REMARK    5  A    between atoms: C_14  and  C_22 
REMARK    6  A    between atoms: C_14  and  C_25 
REMARK    7  A    between atoms: C_15  and  C_16 
REMARK    8  A    between atoms: C_16  and  N_17 
REMARK    9  A    between atoms: C_23  and  C_25 
ROOT
HETATM    1  C           1     -32.924  -4.494 -16.691  0.00  0.00     0.278 C 
ENDROOT
BRANCH   1   2
HETATM    2  C           1     -31.471  -4.474 -16.234  0.00  0.00     0.081 C 
BRANCH   2   3
HETATM    3  C           1     -30.658  -5.368 -17.119  0.00  0.00    -0.056 A 
HETATM    4  C           1     -31.061  -6.685 -17.337  0.00  0.00     0.010 A 
HETATM    5  C           1     -30.303  -7.518 -18.162  0.00  0.00     0.037 A 
HETATM    6  C           1     -29.145  -7.033 -18.767  0.00  0.00     0.065 A 
HETATM    7  C           1     -28.742  -5.716 -18.548  0.00  0.00     0.037 A 
HETATM    8  C           1     -29.499  -4.883 -17.724  0.00  0.00     0.010 A 
BRANCH   6   9
HETATM    9  O           1     -28.409  -7.842 -19.567  0.00  0.00    -0.361 OA
HETATM   10  H           1     -28.247  -8.672 -19.088  0.00  0.00     0.217 HD
ENDBRANCH   6   9
ENDBRANCH   2   3
ENDBRANCH   1   2
BRANCH   1  11
HETATM   11  C           1     -33.831  -4.454 -15.485  0.00  0.00     0.249 C 
HETATM   12  N           1     -33.347  -4.025 -14.278  0.00  0.00    -0.344 N 
HETATM   13  H           1     -32.381  -3.736 -14.195  0.00  0.00     0.163 HD
HETATM   14  O           1     -34.984  -4.800 -15.585  0.00  0.00    -0.271 OA
BRANCH  12  15
HETATM   15  C           1     -34.218  -3.987 -13.120  0.00  0.00     0.195 C 
BRANCH  15  16
HETATM   16  C           1     -33.493  -4.580 -11.919  0.00  0.00     0.149 C 
BRANCH  16  17
HETATM   17  C           1     -34.318  -5.699 -11.335  0.00  0.00     0.175 C 
HETATM   18  O           1     -34.255  -5.950 -10.112  0.00  0.00    -0.648 OA
HETATM   19  O           1     -35.064  -6.378 -12.074  0.00  0.00    -0.648 OA
ENDBRANCH  16  17
ENDBRANCH  15  16
BRANCH  15  20
HETATM   20  C           1     -34.596  -2.557 -12.824  0.00  0.00     0.197 C 
HETATM   21  O           1     -35.011  -1.817 -13.744  0.00  0.00    -0.646 OA
HETATM   22  O           1     -34.497  -2.112 -11.661  0.00  0.00    -0.646 OA
ENDBRANCH  15  20
ENDBRANCH  12  15
ENDBRANCH   1  11
BRANCH   1  23
HETATM   23  N           1     -33.192  -3.299 -17.557  0.00  0.00    -0.066 N 
HETATM   24  H           1     -34.192  -3.303 -17.858  0.00  0.00     0.275 HD
HETATM   25  H           1     -32.574  -3.333 -18.399  0.00  0.00     0.275 HD
HETATM   26  H           1     -32.995  -2.427 -17.015  0.00  0.00     0.275 HD
ENDBRANCH   1  23
TORSDOF 9
ENDMDL
MODEL 6
REMARK VINA RESULT:      -6.8      1.387      1.982
REMARK  9 active torsions:
REMARK  status: ('A' for Active; 'I' for Inactive)
REMARK    1  A    between atoms: O_1  and  C_20 
REMARK    2  A    between atoms: C_8  and  C_16 
REMARK    3  A    between atoms: C_8  and  C_13 
REMARK    4  A    between atoms: N_9  and  C_25 
REMARK       I    between atoms: N_9  and  C_15 
REMARK    5  A    between atoms: C_14  and  C_22 
REMARK    6  A    between atoms: C_14  and  C_25 
REMARK    7  A    between atoms: C_15  and  C_16 
REMARK    8  A    between atoms: C_16  and  N_17 
REMARK    9  A    between atoms: C_23  and  C_25 
ROOT
HETATM    1  C           1     -21.579  -5.958  -6.540  0.00  0.00     0.278 C 
ENDROOT
BRANCH   1   2
HETATM    2  C           1     -20.949  -4.622  -6.914  0.00  0.00     0.081 C 
BRANCH   2   3
HETATM    3  C           1     -21.141  -4.372  -8.377  0.00  0.00    -0.056 A 
HETATM    4  C           1     -22.356  -3.871  -8.844  0.00  0.00     0.010 A 
HETATM    5  C           1     -22.535  -3.638 -10.208  0.00  0.00     0.037 A 
HETATM    6  C           1     -21.500  -3.905 -11.104  0.00  0.00     0.065 A 
HETATM    7  C           1     -20.285  -4.405 -10.636  0.00  0.00     0.037 A 
HETATM    8  C           1     -20.105  -4.639  -9.273  0.00  0.00     0.010 A 
BRANCH   6   9
HETATM    9  O           1     -21.675  -3.678 -12.428  0.00  0.00    -0.361 OA
HETATM   10  H           1     -21.913  -2.743 -12.543  0.00  0.00     0.217 HD
ENDBRANCH   6   9
ENDBRANCH   2   3
ENDBRANCH   1   2
BRANCH   1  11
HETATM   11  C           1     -20.497  -6.929  -6.134  0.00  0.00     0.249 C 
HETATM   12  N           1     -20.725  -7.823  -5.122  0.00  0.00    -0.344 N 
HETATM   13  H           1     -21.618  -7.833  -4.647  0.00  0.00     0.163 HD
HETATM   14  O           1     -19.431  -6.918  -6.701  0.00  0.00    -0.271 OA
BRANCH  12  15
HETATM   15  C           1     -19.686  -8.756  -4.731  0.00  0.00     0.195 C 
BRANCH  15  16
HETATM   16  C           1     -19.552  -8.761  -3.215  0.00  0.00     0.149 C 
BRANCH  16  17
HETATM   17  C           1     -20.833  -8.262  -2.594  0.00  0.00     0.175 C 
HETATM   18  O           1     -21.779  -9.053  -2.390  0.00  0.00    -0.648 OA
HETATM   19  O           1     -20.949  -7.056  -2.282  0.00  0.00    -0.648 OA
ENDBRANCH  16  17
ENDBRANCH  15  16
BRANCH  15  20
HETATM   20  C           1     -20.049 -10.140  -5.209  0.00  0.00     0.197 C 
HETATM   21  O           1     -19.438 -11.135  -4.760  0.00  0.00    -0.646 OA
HETATM   22  O           1     -20.958 -10.293  -6.052  0.00  0.00    -0.646 OA
ENDBRANCH  15  20
ENDBRANCH  12  15
ENDBRANCH   1  11
BRANCH   1  23
HETATM   23  N           1     -22.528  -5.759  -5.395  0.00  0.00    -0.066 N 
HETATM   24  H           1     -23.504  -5.690  -5.759  0.00  0.00     0.275 HD
HETATM   25  H           1     -22.282  -4.879  -4.888  0.00  0.00     0.275 HD
HETATM   26  H           1     -22.456  -6.571  -4.740  0.00  0.00     0.275 HD
ENDBRANCH   1  23
TORSDOF 9
ENDMDL
MODEL 7
REMARK VINA RESULT:      -6.7     12.021     14.580
REMARK  9 active torsions:
REMARK  status: ('A' for Active; 'I' for Inactive)
REMARK    1  A    between atoms: O_1  and  C_20 
REMARK    2  A    between atoms: C_8  and  C_16 
REMARK    3  A    between atoms: C_8  and  C_13 
REMARK    4  A    between atoms: N_9  and  C_25 
REMARK       I    between atoms: N_9  and  C_15 
REMARK    5  A    between atoms: C_14  and  C_22 
REMARK    6  A    between atoms: C_14  and  C_25 
REMARK    7  A    between atoms: C_15  and  C_16 
REMARK    8  A    between atoms: C_16  and  N_17 
REMARK    9  A    between atoms: C_23  and  C_25 
ROOT
HETATM    1  C           1     -28.551  -6.639 -19.129  0.00  0.00     0.278 C 
ENDROOT
BRANCH   1   2
HETATM    2  C           1     -28.645  -6.108 -17.705  0.00  0.00     0.081 C 
BRANCH   2   3
HETATM    3  C           1     -29.926  -5.351 -17.538  0.00  0.00    -0.056 A 
HETATM    4  C           1     -29.982  -3.996 -17.862  0.00  0.00     0.010 A 
HETATM    5  C           1     -31.176  -3.291 -17.707  0.00  0.00     0.037 A 
HETATM    6  C           1     -32.313  -3.941 -17.228  0.00  0.00     0.065 A 
HETATM    7  C           1     -32.257  -5.296 -16.904  0.00  0.00     0.037 A 
HETATM    8  C           1     -31.064  -6.002 -17.059  0.00  0.00     0.010 A 
BRANCH   6   9
HETATM    9  O           1     -33.472  -3.256 -17.078  0.00  0.00    -0.361 OA
HETATM   10  H           1     -33.394  -2.708 -16.279  0.00  0.00     0.217 HD
ENDBRANCH   6   9
ENDBRANCH   2   3
ENDBRANCH   1   2
BRANCH   1  11
HETATM   11  C           1     -27.153  -6.423 -19.656  0.00  0.00     0.249 C 
HETATM   12  N           1     -26.100  -7.100 -19.100  0.00  0.00    -0.344 N 
HETATM   13  H           1     -26.260  -7.744 -18.336  0.00  0.00     0.163 HD
HETATM   14  O           1     -26.963  -5.654 -20.568  0.00  0.00    -0.271 OA
BRANCH  12  15
HETATM   15  C           1     -24.758  -6.892 -19.605  0.00  0.00     0.195 C 
BRANCH  15  16
HETATM   16  C           1     -23.757  -7.053 -18.469  0.00  0.00     0.149 C 
BRANCH  16  17
HETATM   17  C           1     -24.494  -7.136 -17.156  0.00  0.00     0.175 C 
HETATM   18  O           1     -25.129  -6.147 -16.731  0.00  0.00    -0.648 OA
HETATM   19  O           1     -24.471  -8.195 -16.492  0.00  0.00    -0.648 OA
ENDBRANCH  16  17
ENDBRANCH  15  16
BRANCH  15  20
HETATM   20  C           1     -24.464  -7.908 -20.682  0.00  0.00     0.197 C 
HETATM   21  O           1     -25.397  -8.373 -21.373  0.00  0.00    -0.646 OA
HETATM   22  O           1     -23.290  -8.284 -20.883  0.00  0.00    -0.646 OA
ENDBRANCH  15  20
ENDBRANCH  12  15
ENDBRANCH   1  11
BRANCH   1  23
HETATM   23  N           1     -28.866  -8.106 -19.137  0.00  0.00    -0.066 N 
HETATM   24  H           1     -28.107  -8.628 -18.644  0.00  0.00     0.275 HD
HETATM   25  H           1     -28.937  -8.442 -20.123  0.00  0.00     0.275 HD
HETATM   26  H           1     -29.775  -8.268 -18.646  0.00  0.00     0.275 HD
ENDBRANCH   1  23
TORSDOF 9
ENDMDL
MODEL 8
REMARK VINA RESULT:      -6.7      2.355      7.551
REMARK  9 active torsions:
REMARK  status: ('A' for Active; 'I' for Inactive)
REMARK    1  A    between atoms: O_1  and  C_20 
REMARK    2  A    between atoms: C_8  and  C_16 
REMARK    3  A    between atoms: C_8  and  C_13 
REMARK    4  A    between atoms: N_9  and  C_25 
REMARK       I    between atoms: N_9  and  C_15 
REMARK    5  A    between atoms: C_14  and  C_22 
REMARK    6  A    between atoms: C_14  and  C_25 
REMARK    7  A    between atoms: C_15  and  C_16 
REMARK    8  A    between atoms: C_16  and  N_17 
REMARK    9  A    between atoms: C_23  and  C_25 
ROOT
HETATM    1  C           1     -19.934  -5.288  -7.024  0.00  0.00     0.278 C 
ENDROOT
BRANCH   1   2
HETATM    2  C           1     -20.485  -4.897  -5.658  0.00  0.00     0.081 C 
BRANCH   2   3
HETATM    3  C           1     -20.691  -6.129  -4.832  0.00  0.00    -0.056 A 
HETATM    4  C           1     -21.349  -6.042  -3.605  0.00  0.00     0.010 A 
HETATM    5  C           1     -21.542  -7.190  -2.836  0.00  0.00     0.037 A 
HETATM    6  C           1     -21.077  -8.423  -3.293  0.00  0.00     0.065 A 
HETATM    7  C           1     -20.419  -8.509  -4.520  0.00  0.00     0.037 A 
HETATM    8  C           1     -20.227  -7.362  -5.290  0.00  0.00     0.010 A 
BRANCH   6   9
HETATM    9  O           1     -21.264  -9.538  -2.546  0.00  0.00    -0.361 OA
HETATM   10  H           1     -21.219 -10.306  -3.138  0.00  0.00     0.217 HD
ENDBRANCH   6   9
ENDBRANCH   2   3
ENDBRANCH   1   2
BRANCH   1  11
HETATM   11  C           1     -21.027  -5.174  -8.058  0.00  0.00     0.249 C 
HETATM   12  N           1     -20.877  -4.325  -9.122  0.00  0.00    -0.344 N 
HETATM   13  H           1     -20.034  -3.773  -9.214  0.00  0.00     0.163 HD
HETATM   14  O           1     -22.034  -5.832  -7.949  0.00  0.00    -0.271 OA
BRANCH  12  15
HETATM   15  C           1     -21.927  -4.215 -10.116  0.00  0.00     0.195 C 
BRANCH  15  16
HETATM   16  C           1     -23.049  -3.340  -9.576  0.00  0.00     0.149 C 
BRANCH  16  17
HETATM   17  C           1     -24.371  -3.822 -10.119  0.00  0.00     0.175 C 
HETATM   18  O           1     -25.025  -3.102 -10.903  0.00  0.00    -0.648 OA
HETATM   19  O           1     -24.813  -4.944  -9.785  0.00  0.00    -0.648 OA
ENDBRANCH  16  17
ENDBRANCH  15  16
BRANCH  15  20
HETATM   20  C           1     -21.366  -3.596 -11.373  0.00  0.00     0.197 C 
HETATM   21  O           1     -20.367  -2.846 -11.307  0.00  0.00    -0.646 OA
HETATM   22  O           1     -21.898  -3.833 -12.478  0.00  0.00    -0.646 OA
ENDBRANCH  15  20
ENDBRANCH  12  15
ENDBRANCH   1  11
BRANCH   1  23
HETATM   23  N           1     -18.805  -4.370  -7.387  0.00  0.00    -0.066 N 
HETATM   24  H           1     -18.700  -3.637  -6.650  0.00  0.00     0.275 HD
HETATM   25  H           1     -19.009  -3.913  -8.305  0.00  0.00     0.275 HD
HETATM   26  H           1     -17.920  -4.920  -7.460  0.00  0.00     0.275 HD
ENDBRANCH   1  23
TORSDOF 9
ENDMDL
MODEL 9
REMARK VINA RESULT:      -6.6      2.156      7.743
REMARK  9 active torsions:
REMARK  status: ('A' for Active; 'I' for Inactive)
REMARK    1  A    between atoms: O_1  and  C_20 
REMARK    2  A    between atoms: C_8  and  C_16 
REMARK    3  A    between atoms: C_8  and  C_13 
REMARK    4  A    between atoms: N_9  and  C_25 
REMARK       I    between atoms: N_9  and  C_15 
REMARK    5  A    between atoms: C_14  and  C_22 
REMARK    6  A    between atoms: C_14  and  C_25 
REMARK    7  A    between atoms: C_15  and  C_16 
REMARK    8  A    between atoms: C_16  and  N_17 
REMARK    9  A    between atoms: C_23  and  C_25 
ROOT
HETATM    1  C           1     -20.828  -5.858  -5.310  0.00  0.00     0.278 C 
ENDROOT
BRANCH   1   2
HETATM    2  C           1     -22.111  -6.086  -4.520  0.00  0.00     0.081 C 
BRANCH   2   3
HETATM    3  C           1     -21.785  -6.761  -3.224  0.00  0.00    -0.056 A 
HETATM    4  C           1     -20.875  -7.818  -3.200  0.00  0.00     0.010 A 
HETATM    5  C           1     -20.571  -8.448  -1.992  0.00  0.00     0.037 A 
HETATM    6  C           1     -21.175  -8.020  -0.811  0.00  0.00     0.065 A 
HETATM    7  C           1     -22.085  -6.963  -0.836  0.00  0.00     0.037 A 
HETATM    8  C           1     -22.390  -6.333  -2.042  0.00  0.00     0.010 A 
BRANCH   6   9
HETATM    9  O           1     -20.880  -8.631   0.362  0.00  0.00    -0.361 OA
HETATM   10  H           1     -21.571  -9.291   0.538  0.00  0.00     0.217 HD
ENDBRANCH   6   9
ENDBRANCH   2   3
ENDBRANCH   1   2
BRANCH   1  11
HETATM   11  C           1     -21.148  -5.804  -6.784  0.00  0.00     0.249 C 
HETATM   12  N           1     -21.712  -4.677  -7.322  0.00  0.00    -0.344 N 
HETATM   13  H           1     -21.914  -3.881  -6.730  0.00  0.00     0.163 HD
HETATM   14  O           1     -20.907  -6.753  -7.490  0.00  0.00    -0.271 OA
BRANCH  12  15
HETATM   15  C           1     -22.019  -4.625  -8.737  0.00  0.00     0.195 C 
BRANCH  15  16
HETATM   16  C           1     -23.131  -3.613  -8.978  0.00  0.00     0.149 C 
BRANCH  16  17
HETATM   17  C           1     -24.019  -4.097 -10.098  0.00  0.00     0.175 C 
HETATM   18  O           1     -24.819  -3.310 -10.647  0.00  0.00    -0.648 OA
HETATM   19  O           1     -23.954  -5.287 -10.477  0.00  0.00    -0.648 OA
ENDBRANCH  16  17
ENDBRANCH  15  16
BRANCH  15  20
HETATM   20  C           1     -20.787  -4.211  -9.504  0.00  0.00     0.197 C 
HETATM   21  O           1     -19.864  -3.601  -8.920  0.00  0.00    -0.646 OA
HETATM   22  O           1     -20.689  -4.477 -10.720  0.00  0.00    -0.646 OA
ENDBRANCH  15  20
ENDBRANCH  12  15
ENDBRANCH   1  11
BRANCH   1  23
HETATM   23  N           1     -20.205  -4.560  -4.887  0.00  0.00    -0.066 N 
HETATM   24  H           1     -20.863  -3.775  -5.092  0.00  0.00     0.275 HD
HETATM   25  H           1     -19.313  -4.415  -5.411  0.00  0.00     0.275 HD
HETATM   26  H           1     -20.007  -4.589  -3.861  0.00  0.00     0.275 HD
ENDBRANCH   1  23
TORSDOF 9
ENDMDL
