MODEL 1
REMARK VINA RESULT:      -6.9      0.000      0.000
REMARK  11 active torsions:
REMARK  status: ('A' for Active; 'I' for Inactive)
REMARK    1  A    between atoms: C_1  and  C_2 
REMARK    2  A    between atoms: C_1  and  O_27 
REMARK    3  A    between atoms: C_2  and  C_3 
REMARK    4  A    between atoms: C_2  and  N_22 
REMARK       I    between atoms: C_3  and  N_4 
REMARK    5  A    between atoms: N_4  and  C_8 
REMARK    6  A    between atoms: C_7  and  C_8 
REMARK    7  A    between atoms: C_8  and  C_9 
REMARK    8  A    between atoms: C_9  and  C_10 
REMARK    9  A    between atoms: C_10  and  C_12 
REMARK       I    between atoms: N_11  and  C_12 
REMARK   10  A    between atoms: O_25  and  P_26 
REMARK   11  A    between atoms: P_26  and  O_27 
ROOT
HETATM    1  C           1     -32.509  -4.378 -16.823  0.00  0.00     0.251 C 
HETATM    2  N           1     -31.891  -5.594 -16.715  0.00  0.00    -0.345 N 
HETATM    3  H           1     -32.342  -6.349 -16.214  0.00  0.00     0.163 HD
HETATM    4  O           1     -31.970  -3.477 -17.420  0.00  0.00    -0.271 OA
ENDROOT
BRANCH   1   5
HETATM    5  C           1     -33.864  -4.162 -16.195  0.00  0.00     0.298 C 
BRANCH   5   6
HETATM    6  C           1     -34.403  -2.797 -16.605  0.00  0.00     0.224 C 
BRANCH   6   7
HETATM    7  O           1     -35.089  -2.222 -15.525  0.00  0.00    -0.287 OA
BRANCH   7   8
HETATM    8  P           1     -35.803  -0.803 -15.816  0.00  0.00     0.406 P 
HETATM    9  O           1     -34.860   0.296 -15.508  0.00  0.00    -0.624 OA
HETATM   10  O           1     -37.007  -0.674 -14.964  0.00  0.00    -0.624 OA
BRANCH   8  11
HETATM   11  O           1     -36.233  -0.724 -17.371  0.00  0.00    -0.300 OA
HETATM   12  H           1     -36.658   0.112 -17.464  0.00  0.00     0.223 HD
ENDBRANCH   8  11
ENDBRANCH   7   8
ENDBRANCH   6   7
ENDBRANCH   5   6
BRANCH   5  13
HETATM   13  N           1     -33.738  -4.220 -14.701  0.00  0.00    -0.064 N 
HETATM   14  H           1     -34.679  -4.395 -14.279  0.00  0.00     0.275 HD
HETATM   15  H           1     -33.360  -3.313 -14.347  0.00  0.00     0.275 HD
HETATM   16  H           1     -33.088  -4.994 -14.436  0.00  0.00     0.275 HD
ENDBRANCH   5  13
ENDBRANCH   1   5
BRANCH   2  17
HETATM   17  C           1     -30.589  -5.802 -17.318  0.00  0.00     0.186 C 
BRANCH  17  18
HETATM   18  C           1     -30.484  -7.225 -17.809  0.00  0.00     0.196 C 
HETATM   19  O           1     -31.206  -7.615 -18.752  0.00  0.00    -0.646 OA
HETATM   20  O           1     -29.675  -8.013 -17.274  0.00  0.00    -0.646 OA
ENDBRANCH  17  18
BRANCH  17  21
HETATM   21  C           1     -29.503  -5.540 -16.283  0.00  0.00     0.045 C 
BRANCH  21  22
HETATM   22  C           1     -28.388  -4.716 -16.913  0.00  0.00     0.105 C 
BRANCH  22  23
HETATM   23  C           1     -27.151  -5.567 -17.057  0.00  0.00     0.215 C 
HETATM   24  N           1     -27.042  -6.446 -18.100  0.00  0.00    -0.370 N 
HETATM   25  H           1     -27.792  -6.525 -18.775  0.00  0.00     0.159 HD
HETATM   26  H           1     -26.212  -7.017 -18.196  0.00  0.00     0.159 HD
HETATM   27  O           1     -26.256  -5.473 -16.251  0.00  0.00    -0.274 OA
ENDBRANCH  22  23
ENDBRANCH  21  22
ENDBRANCH  17  21
ENDBRANCH   2  17
TORSDOF 11
ENDMDL
MODEL 2
REMARK VINA RESULT:      -6.9      4.347      8.094
REMARK  11 active torsions:
REMARK  status: ('A' for Active; 'I' for Inactive)
REMARK    1  A    between atoms: C_1  and  C_2 
REMARK    2  A    between atoms: C_1  and  O_27 
REMARK    3  A    between atoms: C_2  and  C_3 
REMARK    4  A    between atoms: C_2  and  N_22 
REMARK       I    between atoms: C_3  and  N_4 
REMARK    5  A    between atoms: N_4  and  C_8 
REMARK    6  A    between atoms: C_7  and  C_8 
REMARK    7  A    between atoms: C_8  and  C_9 
REMARK    8  A    between atoms: C_9  and  C_10 
REMARK    9  A    between atoms: C_10  and  C_12 
REMARK       I    between atoms: N_11  and  C_12 
REMARK   10  A    between atoms: O_25  and  P_26 
REMARK   11  A    between atoms: P_26  and  O_27 
ROOT
HETATM    1  C           1     -27.179  -6.805 -16.361  0.00  0.00     0.251 C 
HETATM    2  N           1     -28.066  -6.568 -17.376  0.00  0.00    -0.345 N 
HETATM    3  H           1     -27.762  -6.081 -18.211  0.00  0.00     0.163 HD
HETATM    4  O           1     -27.542  -7.385 -15.365  0.00  0.00    -0.271 OA
ENDROOT
BRANCH   1   5
HETATM    5  C           1     -25.748  -6.342 -16.486  0.00  0.00     0.298 C 
BRANCH   5   6
HETATM    6  C           1     -25.114  -6.973 -17.719  0.00  0.00     0.224 C 
BRANCH   6   7
HETATM    7  O           1     -25.593  -6.333 -18.870  0.00  0.00    -0.287 OA
BRANCH   7   8
HETATM    8  P           1     -25.267  -7.062 -20.273  0.00  0.00     0.406 P 
HETATM    9  O           1     -23.992  -7.806 -20.158  0.00  0.00    -0.624 OA
HETATM   10  O           1     -25.152  -6.045 -21.342  0.00  0.00    -0.624 OA
BRANCH   8  11
HETATM   11  O           1     -26.458  -8.091 -20.636  0.00  0.00    -0.300 OA
HETATM   12  H           1     -26.238  -8.430 -21.487  0.00  0.00     0.223 HD
ENDBRANCH   8  11
ENDBRANCH   7   8
ENDBRANCH   6   7
ENDBRANCH   5   6
BRANCH   5  13
HETATM   13  N           1     -24.981  -6.754 -15.264  0.00  0.00    -0.064 N 
HETATM   14  H           1     -24.175  -6.103 -15.124  0.00  0.00     0.275 HD
HETATM   15  H           1     -24.626  -7.728 -15.388  0.00  0.00     0.275 HD
HETATM   16  H           1     -25.608  -6.716 -14.429  0.00  0.00     0.275 HD
ENDBRANCH   5  13
ENDBRANCH   1   5
BRANCH   2  17
HETATM   17  C           1     -29.440  -7.011 -17.257  0.00  0.00     0.186 C 
BRANCH  17  18
HETATM   18  C           1     -29.835  -7.766 -18.504  0.00  0.00     0.196 C 
HETATM   19  O           1     -28.959  -8.129 -19.317  0.00  0.00    -0.646 OA
HETATM   20  O           1     -31.038  -8.027 -18.722  0.00  0.00    -0.646 OA
ENDBRANCH  17  18
BRANCH  17  21
HETATM   21  C           1     -30.351  -5.803 -17.085  0.00  0.00     0.045 C 
BRANCH  21  22
HETATM   22  C           1     -29.885  -4.680 -18.001  0.00  0.00     0.105 C 
BRANCH  22  23
HETATM   23  C           1     -30.573  -3.394 -17.612  0.00  0.00     0.215 C 
HETATM   24  N           1     -29.837  -2.258 -17.410  0.00  0.00    -0.370 N 
HETATM   25  H           1     -28.831  -2.280 -17.521  0.00  0.00     0.159 HD
HETATM   26  H           1     -30.298  -1.396 -17.149  0.00  0.00     0.159 HD
HETATM   27  O           1     -31.773  -3.368 -17.479  0.00  0.00    -0.274 OA
ENDBRANCH  22  23
ENDBRANCH  21  22
ENDBRANCH  17  21
ENDBRANCH   2  17
TORSDOF 11
ENDMDL
MODEL 3
REMARK VINA RESULT:      -6.4     12.838     15.459
REMARK  11 active torsions:
REMARK  status: ('A' for Active; 'I' for Inactive)
REMARK    1  A    between atoms: C_1  and  C_2 
REMARK    2  A    between atoms: C_1  and  O_27 
REMARK    3  A    between atoms: C_2  and  C_3 
REMARK    4  A    between atoms: C_2  and  N_22 
REMARK       I    between atoms: C_3  and  N_4 
REMARK    5  A    between atoms: N_4  and  C_8 
REMARK    6  A    between atoms: C_7  and  C_8 
REMARK    7  A    between atoms: C_8  and  C_9 
REMARK    8  A    between atoms: C_9  and  C_10 
REMARK    9  A    between atoms: C_10  and  C_12 
REMARK       I    between atoms: N_11  and  C_12 
REMARK   10  A    between atoms: O_25  and  P_26 
REMARK   11  A    between atoms: P_26  and  O_27 
ROOT
HETATM    1  C           1     -20.700  -4.765  -6.337  0.00  0.00     0.251 C 
HETATM    2  N           1     -21.515  -5.721  -5.792  0.00  0.00    -0.345 N 
HETATM    3  H           1     -22.401  -5.941  -6.230  0.00  0.00     0.163 HD
HETATM    4  O           1     -19.644  -4.502  -5.813  0.00  0.00    -0.271 OA
ENDROOT
BRANCH   1   5
HETATM    5  C           1     -21.122  -4.040  -7.591  0.00  0.00     0.298 C 
BRANCH   5   6
HETATM    6  C           1     -22.293  -4.772  -8.233  0.00  0.00     0.224 C 
BRANCH   6   7
HETATM    7  O           1     -23.367  -3.885  -8.395  0.00  0.00    -0.287 OA
BRANCH   7   8
HETATM    8  P           1     -24.061  -3.873  -9.852  0.00  0.00     0.406 P 
HETATM    9  O           1     -24.094  -5.250 -10.394  0.00  0.00    -0.624 OA
HETATM   10  O           1     -23.283  -3.002 -10.761  0.00  0.00    -0.624 OA
BRANCH   8  11
HETATM   11  O           1     -25.570  -3.309  -9.727  0.00  0.00    -0.300 OA
HETATM   12  H           1     -25.473  -2.381  -9.590  0.00  0.00     0.223 HD
ENDBRANCH   8  11
ENDBRANCH   7   8
ENDBRANCH   6   7
ENDBRANCH   5   6
BRANCH   5  13
HETATM   13  N           1     -19.972  -3.996  -8.553  0.00  0.00    -0.064 N 
HETATM   14  H           1     -20.301  -3.615  -9.470  0.00  0.00     0.275 HD
HETATM   15  H           1     -19.597  -4.961  -8.691  0.00  0.00     0.275 HD
HETATM   16  H           1     -19.219  -3.382  -8.170  0.00  0.00     0.275 HD
ENDBRANCH   5  13
ENDBRANCH   1   5
BRANCH   2  17
HETATM   17  C           1     -21.111  -6.417  -4.586  0.00  0.00     0.186 C 
BRANCH  17  18
HETATM   18  C           1     -20.653  -7.811  -4.941  0.00  0.00     0.196 C 
HETATM   19  O           1     -19.844  -8.410  -4.201  0.00  0.00    -0.646 OA
HETATM   20  O           1     -21.085  -8.366  -5.975  0.00  0.00    -0.646 OA
ENDBRANCH  17  18
BRANCH  17  21
HETATM   21  C           1     -22.291  -6.498  -3.627  0.00  0.00     0.045 C 
BRANCH  21  22
HETATM   22  C           1     -21.855  -6.032  -2.244  0.00  0.00     0.105 C 
BRANCH  22  23
HETATM   23  C           1     -22.018  -7.160  -1.257  0.00  0.00     0.215 C 
HETATM   24  N           1     -21.141  -8.211  -1.266  0.00  0.00    -0.370 N 
HETATM   25  H           1     -20.382  -8.230  -1.936  0.00  0.00     0.159 HD
HETATM   26  H           1     -21.250  -8.968  -0.603  0.00  0.00     0.159 HD
HETATM   27  O           1     -22.923  -7.137  -0.457  0.00  0.00    -0.274 OA
ENDBRANCH  22  23
ENDBRANCH  21  22
ENDBRANCH  17  21
ENDBRANCH   2  17
TORSDOF 11
ENDMDL
MODEL 4
REMARK VINA RESULT:      -6.0      2.206      2.600
REMARK  11 active torsions:
REMARK  status: ('A' for Active; 'I' for Inactive)
REMARK    1  A    between atoms: C_1  and  C_2 
REMARK    2  A    between atoms: C_1  and  O_27 
REMARK    3  A    between atoms: C_2  and  C_3 
REMARK    4  A    between atoms: C_2  and  N_22 
REMARK       I    between atoms: C_3  and  N_4 
REMARK    5  A    between atoms: N_4  and  C_8 
REMARK    6  A    between atoms: C_7  and  C_8 
REMARK    7  A    between atoms: C_8  and  C_9 
REMARK    8  A    between atoms: C_9  and  C_10 
REMARK    9  A    between atoms: C_10  and  C_12 
REMARK       I    between atoms: N_11  and  C_12 
REMARK   10  A    between atoms: O_25  and  P_26 
REMARK   11  A    between atoms: P_26  and  O_27 
ROOT
HETATM    1  C           1     -32.758  -4.268 -16.404  0.00  0.00     0.251 C 
HETATM    2  N           1     -31.818  -5.195 -16.041  0.00  0.00    -0.345 N 
HETATM    3  H           1     -32.008  -5.837 -15.281  0.00  0.00     0.163 HD
HETATM    4  O           1     -32.530  -3.502 -17.310  0.00  0.00    -0.271 OA
ENDROOT
BRANCH   1   5
HETATM    5  C           1     -34.076  -4.202 -15.673  0.00  0.00     0.298 C 
BRANCH   5   6
HETATM    6  C           1     -33.822  -4.011 -14.183  0.00  0.00     0.224 C 
BRANCH   6   7
HETATM    7  O           1     -34.561  -2.913 -13.721  0.00  0.00    -0.287 OA
BRANCH   7   8
HETATM    8  P           1     -34.476  -2.620 -12.135  0.00  0.00     0.406 P 
HETATM    9  O           1     -33.201  -3.152 -11.603  0.00  0.00    -0.624 OA
HETATM   10  O           1     -35.611  -3.279 -11.451  0.00  0.00    -0.624 OA
BRANCH   8  11
HETATM   11  O           1     -34.544  -1.027 -11.876  0.00  0.00    -0.300 OA
HETATM   12  H           1     -35.442  -0.854 -11.651  0.00  0.00     0.223 HD
ENDBRANCH   8  11
ENDBRANCH   7   8
ENDBRANCH   6   7
ENDBRANCH   5   6
BRANCH   5  13
HETATM   13  N           1     -34.833  -5.479 -15.891  0.00  0.00    -0.064 N 
HETATM   14  H           1     -35.513  -5.350 -16.675  0.00  0.00     0.275 HD
HETATM   15  H           1     -35.350  -5.730 -15.019  0.00  0.00     0.275 HD
HETATM   16  H           1     -34.164  -6.245 -16.132  0.00  0.00     0.275 HD
ENDBRANCH   5  13
ENDBRANCH   1   5
BRANCH   2  17
HETATM   17  C           1     -30.552  -5.258 -16.742  0.00  0.00     0.186 C 
BRANCH  17  18
HETATM   18  C           1     -30.554  -6.443 -17.677  0.00  0.00     0.196 C 
HETATM   19  O           1     -29.604  -6.614 -18.471  0.00  0.00    -0.646 OA
HETATM   20  O           1     -31.506  -7.253 -17.657  0.00  0.00    -0.646 OA
ENDBRANCH  17  18
BRANCH  17  21
HETATM   21  C           1     -29.420  -5.409 -15.734  0.00  0.00     0.045 C 
BRANCH  21  22
HETATM   22  C           1     -28.133  -4.852 -16.328  0.00  0.00     0.105 C 
BRANCH  22  23
HETATM   23  C           1     -27.059  -5.911 -16.285  0.00  0.00     0.215 C 
HETATM   24  N           1     -27.402  -7.231 -16.169  0.00  0.00    -0.370 N 
HETATM   25  H           1     -28.377  -7.497 -16.113  0.00  0.00     0.159 HD
HETATM   26  H           1     -26.681  -7.941 -16.140  0.00  0.00     0.159 HD
HETATM   27  O           1     -25.895  -5.594 -16.352  0.00  0.00    -0.274 OA
ENDBRANCH  22  23
ENDBRANCH  21  22
ENDBRANCH  17  21
ENDBRANCH   2  17
TORSDOF 11
ENDMDL
MODEL 5
REMARK VINA RESULT:      -5.9     14.181     16.979
REMARK  11 active torsions:
REMARK  status: ('A' for Active; 'I' for Inactive)
REMARK    1  A    between atoms: C_1  and  C_2 
REMARK    2  A    between atoms: C_1  and  O_27 
REMARK    3  A    between atoms: C_2  and  C_3 
REMARK    4  A    between atoms: C_2  and  N_22 
REMARK       I    between atoms: C_3  and  N_4 
REMARK    5  A    between atoms: N_4  and  C_8 
REMARK    6  A    between atoms: C_7  and  C_8 
REMARK    7  A    between atoms: C_8  and  C_9 
REMARK    8  A    between atoms: C_9  and  C_10 
REMARK    9  A    between atoms: C_10  and  C_12 
REMARK       I    between atoms: N_11  and  C_12 
REMARK   10  A    between atoms: O_25  and  P_26 
REMARK   11  A    between atoms: P_26  and  O_27 
ROOT
HETATM    1  C           1     -21.524  -6.575  -4.355  0.00  0.00     0.251 C 
HETATM    2  N           1     -21.111  -5.527  -5.132  0.00  0.00    -0.345 N 
HETATM    3  H           1     -20.656  -4.729  -4.704  0.00  0.00     0.163 HD
HETATM    4  O           1     -22.068  -7.526  -4.864  0.00  0.00    -0.271 OA
ENDROOT
BRANCH   1   5
HETATM    5  C           1     -21.302  -6.543  -2.863  0.00  0.00     0.298 C 
BRANCH   5   6
HETATM    6  C           1     -21.296  -7.966  -2.319  0.00  0.00     0.224 C 
BRANCH   6   7
HETATM    7  O           1     -20.874  -7.954  -0.982  0.00  0.00    -0.287 OA
BRANCH   7   8
HETATM    8  P           1     -21.946  -8.482   0.104  0.00  0.00     0.406 P 
HETATM    9  O           1     -21.316  -8.512   1.444  0.00  0.00    -0.624 OA
HETATM   10  O           1     -22.391  -9.844  -0.264  0.00  0.00    -0.624 OA
BRANCH   8  11
HETATM   11  O           1     -23.220  -7.489   0.132  0.00  0.00    -0.300 OA
HETATM   12  H           1     -23.288  -7.155  -0.746  0.00  0.00     0.223 HD
ENDBRANCH   8  11
ENDBRANCH   7   8
ENDBRANCH   6   7
ENDBRANCH   5   6
BRANCH   5  13
HETATM   13  N           1     -22.403  -5.763  -2.210  0.00  0.00    -0.064 N 
HETATM   14  H           1     -22.481  -4.824  -2.664  0.00  0.00     0.275 HD
HETATM   15  H           1     -22.190  -5.642  -1.194  0.00  0.00     0.275 HD
HETATM   16  H           1     -23.306  -6.277  -2.316  0.00  0.00     0.275 HD
ENDBRANCH   5  13
ENDBRANCH   1   5
BRANCH   2  17
HETATM   17  C           1     -21.325  -5.556  -6.565  0.00  0.00     0.186 C 
BRANCH  17  18
HETATM   18  C           1     -20.010  -5.803  -7.264  0.00  0.00     0.196 C 
HETATM   19  O           1     -19.364  -6.847  -7.030  0.00  0.00    -0.646 OA
HETATM   20  O           1     -19.568  -4.963  -8.078  0.00  0.00    -0.646 OA
ENDBRANCH  17  18
BRANCH  17  21
HETATM   21  C           1     -21.900  -4.222  -7.020  0.00  0.00     0.045 C 
BRANCH  21  22
HETATM   22  C           1     -23.323  -4.427  -7.524  0.00  0.00     0.105 C 
BRANCH  22  23
HETATM   23  C           1     -23.481  -3.764  -8.870  0.00  0.00     0.215 C 
HETATM   24  N           1     -24.682  -3.213  -9.224  0.00  0.00    -0.370 N 
HETATM   25  H           1     -25.465  -3.250  -8.584  0.00  0.00     0.159 HD
HETATM   26  H           1     -24.789  -2.768 -10.128  0.00  0.00     0.159 HD
HETATM   27  O           1     -22.547  -3.719  -9.635  0.00  0.00    -0.274 OA
ENDBRANCH  22  23
ENDBRANCH  21  22
ENDBRANCH  17  21
ENDBRANCH   2  17
TORSDOF 11
ENDMDL
MODEL 6
REMARK VINA RESULT:      -5.9     20.646     23.020
REMARK  11 active torsions:
REMARK  status: ('A' for Active; 'I' for Inactive)
REMARK    1  A    between atoms: C_1  and  C_2 
REMARK    2  A    between atoms: C_1  and  O_27 
REMARK    3  A    between atoms: C_2  and  C_3 
REMARK    4  A    between atoms: C_2  and  N_22 
REMARK       I    between atoms: C_3  and  N_4 
REMARK    5  A    between atoms: N_4  and  C_8 
REMARK    6  A    between atoms: C_7  and  C_8 
REMARK    7  A    between atoms: C_8  and  C_9 
REMARK    8  A    between atoms: C_9  and  C_10 
REMARK    9  A    between atoms: C_10  and  C_12 
REMARK       I    between atoms: N_11  and  C_12 
REMARK   10  A    between atoms: O_25  and  P_26 
REMARK   11  A    between atoms: P_26  and  O_27 
ROOT
HETATM    1  C           1     -13.436   7.031 -22.621  0.00  0.00     0.251 C 
HETATM    2  N           1     -13.024   5.849 -22.066  0.00  0.00    -0.345 N 
HETATM    3  H           1     -12.048   5.711 -21.837  0.00  0.00     0.163 HD
HETATM    4  O           1     -14.601   7.195 -22.897  0.00  0.00    -0.271 OA
ENDROOT
BRANCH   1   5
HETATM    5  C           1     -12.436   8.128 -22.889  0.00  0.00     0.298 C 
BRANCH   5   6
HETATM    6  C           1     -11.076   7.724 -22.335  0.00  0.00     0.224 C 
BRANCH   6   7
HETATM    7  O           1     -10.778   8.504 -21.209  0.00  0.00    -0.287 OA
BRANCH   7   8
HETATM    8  P           1     -10.514   7.696 -19.837  0.00  0.00     0.406 P 
HETATM    9  O           1     -10.292   8.657 -18.733  0.00  0.00    -0.624 OA
HETATM   10  O           1      -9.319   6.837 -19.993  0.00  0.00    -0.624 OA
BRANCH   8  11
HETATM   11  O           1     -11.797   6.775 -19.497  0.00  0.00    -0.300 OA
HETATM   12  H           1     -12.482   7.094 -20.060  0.00  0.00     0.223 HD
ENDBRANCH   8  11
ENDBRANCH   7   8
ENDBRANCH   6   7
ENDBRANCH   5   6
BRANCH   5  13
HETATM   13  N           1     -12.890   9.393 -22.222  0.00  0.00    -0.064 N 
HETATM   14  H           1     -12.941   9.242 -21.188  0.00  0.00     0.275 HD
HETATM   15  H           1     -13.834   9.657 -22.582  0.00  0.00     0.275 HD
HETATM   16  H           1     -12.212  10.160 -22.428  0.00  0.00     0.275 HD
ENDBRANCH   5  13
ENDBRANCH   1   5
BRANCH   2  17
HETATM   17  C           1     -13.984   4.794 -21.810  0.00  0.00     0.186 C 
BRANCH  17  18
HETATM   18  C           1     -14.500   4.917 -20.397  0.00  0.00     0.196 C 
HETATM   19  O           1     -13.755   4.635 -19.434  0.00  0.00    -0.646 OA
HETATM   20  O           1     -15.671   5.302 -20.190  0.00  0.00    -0.646 OA
ENDBRANCH  17  18
BRANCH  17  21
HETATM   21  C           1     -13.311   3.440 -21.989  0.00  0.00     0.045 C 
BRANCH  21  22
HETATM   22  C           1     -11.804   3.631 -22.098  0.00  0.00     0.105 C 
BRANCH  22  23
HETATM   23  C           1     -11.138   3.103 -20.852  0.00  0.00     0.215 C 
HETATM   24  N           1     -10.699   3.970 -19.890  0.00  0.00    -0.370 N 
HETATM   25  H           1     -10.821   4.967 -20.014  0.00  0.00     0.159 HD
HETATM   26  H           1     -10.251   3.616 -19.054  0.00  0.00     0.159 HD
HETATM   27  O           1     -10.992   1.913 -20.704  0.00  0.00    -0.274 OA
ENDBRANCH  22  23
ENDBRANCH  21  22
ENDBRANCH  17  21
ENDBRANCH   2  17
TORSDOF 11
ENDMDL
MODEL 7
REMARK VINA RESULT:      -5.8     20.653     23.258
REMARK  11 active torsions:
REMARK  status: ('A' for Active; 'I' for Inactive)
REMARK    1  A    between atoms: C_1  and  C_2 
REMARK    2  A    between atoms: C_1  and  O_27 
REMARK    3  A    between atoms: C_2  and  C_3 
REMARK    4  A    between atoms: C_2  and  N_22 
REMARK       I    between atoms: C_3  and  N_4 
REMARK    5  A    between atoms: N_4  and  C_8 
REMARK    6  A    between atoms: C_7  and  C_8 
REMARK    7  A    between atoms: C_8  and  C_9 
REMARK    8  A    between atoms: C_9  and  C_10 
REMARK    9  A    between atoms: C_10  and  C_12 
REMARK       I    between atoms: N_11  and  C_12 
REMARK   10  A    between atoms: O_25  and  P_26 
REMARK   11  A    between atoms: P_26  and  O_27 
ROOT
HETATM    1  C           1     -11.530   4.558 -22.265  0.00  0.00     0.251 C 
HETATM    2  N           1     -11.187   5.652 -21.517  0.00  0.00    -0.345 N 
HETATM    3  H           1     -11.850   6.406 -21.391  0.00  0.00     0.163 HD
HETATM    4  O           1     -10.738   3.658 -22.417  0.00  0.00    -0.271 OA
ENDROOT
BRANCH   1   5
HETATM    5  C           1     -12.897   4.475 -22.899  0.00  0.00     0.298 C 
BRANCH   5   6
HETATM    6  C           1     -13.746   5.651 -22.433  0.00  0.00     0.224 C 
BRANCH   6   7
HETATM    7  O           1     -14.713   5.198 -21.525  0.00  0.00    -0.287 OA
BRANCH   7   8
HETATM    8  P           1     -14.359   5.388 -19.961  0.00  0.00     0.406 P 
HETATM    9  O           1     -13.639   6.667 -19.770  0.00  0.00    -0.624 OA
HETATM   10  O           1     -13.504   4.267 -19.510  0.00  0.00    -0.624 OA
BRANCH   8  11
HETATM   11  O           1     -15.723   5.404 -19.097  0.00  0.00    -0.300 OA
HETATM   12  H           1     -15.453   5.238 -18.210  0.00  0.00     0.223 HD
ENDBRANCH   8  11
ENDBRANCH   7   8
ENDBRANCH   6   7
ENDBRANCH   5   6
BRANCH   5  13
HETATM   13  N           1     -13.558   3.191 -22.496  0.00  0.00    -0.064 N 
HETATM   14  H           1     -14.388   3.400 -21.896  0.00  0.00     0.275 HD
HETATM   15  H           1     -12.880   2.603 -21.960  0.00  0.00     0.275 HD
HETATM   16  H           1     -13.867   2.674 -23.350  0.00  0.00     0.275 HD
ENDBRANCH   5  13
ENDBRANCH   1   5
BRANCH   2  17
HETATM   17  C           1      -9.874   5.732 -20.908  0.00  0.00     0.186 C 
BRANCH  17  18
HETATM   18  C           1      -9.972   5.351 -19.451  0.00  0.00     0.196 C 
HETATM   19  O           1     -10.026   6.240 -18.575  0.00  0.00    -0.646 OA
HETATM   20  O           1     -10.000   4.145 -19.121  0.00  0.00    -0.646 OA
ENDBRANCH  17  18
BRANCH  17  21
HETATM   21  C           1      -9.345   7.155 -21.027  0.00  0.00     0.045 C 
BRANCH  21  22
HETATM   22  C           1     -10.475   8.084 -21.452  0.00  0.00     0.105 C 
BRANCH  22  23
HETATM   23  C           1     -10.598   9.215 -20.461  0.00  0.00     0.215 C 
HETATM   24  N           1     -10.015   9.111 -19.227  0.00  0.00    -0.370 N 
HETATM   25  H           1      -9.502   8.275 -18.979  0.00  0.00     0.159 HD
HETATM   26  H           1     -10.098   9.870 -18.562  0.00  0.00     0.159 HD
HETATM   27  O           1     -11.211  10.213 -20.756  0.00  0.00    -0.274 OA
ENDBRANCH  22  23
ENDBRANCH  21  22
ENDBRANCH  17  21
ENDBRANCH   2  17
TORSDOF 11
ENDMDL
MODEL 8
REMARK VINA RESULT:      -5.7     12.792     15.460
REMARK  11 active torsions:
REMARK  status: ('A' for Active; 'I' for Inactive)
REMARK    1  A    between atoms: C_1  and  C_2 
REMARK    2  A    between atoms: C_1  and  O_27 
REMARK    3  A    between atoms: C_2  and  C_3 
REMARK    4  A    between atoms: C_2  and  N_22 
REMARK       I    between atoms: C_3  and  N_4 
REMARK    5  A    between atoms: N_4  and  C_8 
REMARK    6  A    between atoms: C_7  and  C_8 
REMARK    7  A    between atoms: C_8  and  C_9 
REMARK    8  A    between atoms: C_9  and  C_10 
REMARK    9  A    between atoms: C_10  and  C_12 
REMARK       I    between atoms: N_11  and  C_12 
REMARK   10  A    between atoms: O_25  and  P_26 
REMARK   11  A    between atoms: P_26  and  O_27 
ROOT
HETATM    1  C           1     -21.946  -5.383  -6.101  0.00  0.00     0.251 C 
HETATM    2  N           1     -21.182  -6.234  -5.349  0.00  0.00    -0.345 N 
HETATM    3  H           1     -20.172  -6.191  -5.405  0.00  0.00     0.163 HD
HETATM    4  O           1     -23.151  -5.435  -6.035  0.00  0.00    -0.271 OA
ENDROOT
BRANCH   1   5
HETATM    5  C           1     -21.284  -4.380  -7.013  0.00  0.00     0.298 C 
BRANCH   5   6
HETATM    6  C           1     -21.728  -4.627  -8.449  0.00  0.00     0.224 C 
BRANCH   6   7
HETATM    7  O           1     -22.746  -3.724  -8.785  0.00  0.00    -0.287 OA
BRANCH   7   8
HETATM    8  P           1     -23.356  -3.866 -10.274  0.00  0.00     0.406 P 
HETATM    9  O           1     -24.523  -2.965 -10.416  0.00  0.00    -0.624 OA
HETATM   10  O           1     -23.781  -5.266 -10.500  0.00  0.00    -0.624 OA
BRANCH   8  11
HETATM   11  O           1     -22.230  -3.464 -11.359  0.00  0.00    -0.300 OA
HETATM   12  H           1     -22.705  -3.312 -12.159  0.00  0.00     0.223 HD
ENDBRANCH   8  11
ENDBRANCH   7   8
ENDBRANCH   6   7
ENDBRANCH   5   6
BRANCH   5  13
HETATM   13  N           1     -19.794  -4.526  -6.920  0.00  0.00    -0.064 N 
HETATM   14  H           1     -19.517  -4.632  -5.917  0.00  0.00     0.275 HD
HETATM   15  H           1     -19.335  -3.678  -7.321  0.00  0.00     0.275 HD
HETATM   16  H           1     -19.492  -5.371  -7.455  0.00  0.00     0.275 HD
ENDBRANCH   5  13
ENDBRANCH   1   5
BRANCH   2  17
HETATM   17  C           1     -21.817  -7.198  -4.473  0.00  0.00     0.186 C 
BRANCH  17  18
HETATM   18  C           1     -21.690  -6.736  -3.042  0.00  0.00     0.196 C 
HETATM   19  O           1     -22.484  -5.886  -2.587  0.00  0.00    -0.646 OA
HETATM   20  O           1     -20.791  -7.206  -2.311  0.00  0.00    -0.646 OA
ENDBRANCH  17  18
BRANCH  17  21
HETATM   21  C           1     -21.141  -8.553  -4.632  0.00  0.00     0.045 C 
BRANCH  21  22
HETATM   22  C           1     -19.756  -8.362  -5.237  0.00  0.00     0.105 C 
BRANCH  22  23
HETATM   23  C           1     -18.768  -9.252  -4.525  0.00  0.00     0.215 C 
HETATM   24  N           1     -18.633  -9.176  -3.166  0.00  0.00    -0.370 N 
HETATM   25  H           1     -19.196  -8.522  -2.637  0.00  0.00     0.159 HD
HETATM   26  H           1     -17.970  -9.774  -2.688  0.00  0.00     0.159 HD
HETATM   27  O           1     -18.096 -10.033  -5.156  0.00  0.00    -0.274 OA
ENDBRANCH  22  23
ENDBRANCH  21  22
ENDBRANCH  17  21
ENDBRANCH   2  17
TORSDOF 11
ENDMDL
MODEL 9
REMARK VINA RESULT:      -5.6      2.511      4.070
REMARK  11 active torsions:
REMARK  status: ('A' for Active; 'I' for Inactive)
REMARK    1  A    between atoms: C_1  and  C_2 
REMARK    2  A    between atoms: C_1  and  O_27 
REMARK    3  A    between atoms: C_2  and  C_3 
REMARK    4  A    between atoms: C_2  and  N_22 
REMARK       I    between atoms: C_3  and  N_4 
REMARK    5  A    between atoms: N_4  and  C_8 
REMARK    6  A    between atoms: C_7  and  C_8 
REMARK    7  A    between atoms: C_8  and  C_9 
REMARK    8  A    between atoms: C_9  and  C_10 
REMARK    9  A    between atoms: C_10  and  C_12 
REMARK       I    between atoms: N_11  and  C_12 
REMARK   10  A    between atoms: O_25  and  P_26 
REMARK   11  A    between atoms: P_26  and  O_27 
ROOT
HETATM    1  C           1     -29.711  -5.482 -17.061  0.00  0.00     0.251 C 
HETATM    2  N           1     -28.390  -5.260 -17.345  0.00  0.00    -0.345 N 
HETATM    3  H           1     -28.047  -4.313 -17.446  0.00  0.00     0.163 HD
HETATM    4  O           1     -30.122  -6.611 -16.942  0.00  0.00    -0.271 OA
ENDROOT
BRANCH   1   5
HETATM    5  C           1     -30.654  -4.315 -16.897  0.00  0.00     0.298 C 
BRANCH   5   6
HETATM    6  C           1     -32.092  -4.815 -16.929  0.00  0.00     0.224 C 
BRANCH   6   7
HETATM    7  O           1     -32.969  -3.728 -16.808  0.00  0.00    -0.287 OA
BRANCH   7   8
HETATM    8  P           1     -34.109  -3.860 -15.673  0.00  0.00     0.406 P 
HETATM    9  O           1     -35.018  -2.694 -15.749  0.00  0.00    -0.624 OA
HETATM   10  O           1     -33.472  -3.904 -14.338  0.00  0.00    -0.624 OA
BRANCH   8  11
HETATM   11  O           1     -34.953  -5.216 -15.912  0.00  0.00    -0.300 OA
HETATM   12  H           1     -35.856  -4.958 -15.838  0.00  0.00     0.223 HD
ENDBRANCH   8  11
ENDBRANCH   7   8
ENDBRANCH   6   7
ENDBRANCH   5   6
BRANCH   5  13
HETATM   13  N           1     -30.440  -3.338 -18.015  0.00  0.00    -0.064 N 
HETATM   14  H           1     -30.624  -3.811 -18.930  0.00  0.00     0.275 HD
HETATM   15  H           1     -29.454  -2.994 -17.993  0.00  0.00     0.275 HD
HETATM   16  H           1     -31.093  -2.531 -17.903  0.00  0.00     0.275 HD
ENDBRANCH   5  13
ENDBRANCH   1   5
BRANCH   2  17
HETATM   17  C           1     -27.484  -6.380 -17.503  0.00  0.00     0.186 C 
BRANCH  17  18
HETATM   18  C           1     -26.493  -6.389 -16.365  0.00  0.00     0.196 C 
HETATM   19  O           1     -26.470  -7.349 -15.565  0.00  0.00    -0.646 OA
HETATM   20  O           1     -25.696  -5.437 -16.223  0.00  0.00    -0.646 OA
ENDBRANCH  17  18
BRANCH  17  21
HETATM   21  C           1     -26.739  -6.248 -18.825  0.00  0.00     0.045 C 
BRANCH  21  22
HETATM   22  C           1     -25.369  -6.901 -18.703  0.00  0.00     0.105 C 
BRANCH  22  23
HETATM   23  C           1     -24.783  -7.103 -20.079  0.00  0.00     0.215 C 
HETATM   24  N           1     -23.836  -8.069 -20.285  0.00  0.00    -0.370 N 
HETATM   25  H           1     -23.529  -8.649 -19.515  0.00  0.00     0.159 HD
HETATM   26  H           1     -23.443  -8.205 -21.208  0.00  0.00     0.159 HD
HETATM   27  O           1     -25.150  -6.411 -20.999  0.00  0.00    -0.274 OA
ENDBRANCH  22  23
ENDBRANCH  21  22
ENDBRANCH  17  21
ENDBRANCH   2  17
TORSDOF 11
ENDMDL
