MODEL 1
REMARK VINA RESULT:      -5.5      0.000      0.000
REMARK  9 active torsions:
REMARK  status: ('A' for Active; 'I' for Inactive)
REMARK    1  A    between atoms: N_4  and  C_9 
REMARK    2  A    between atoms: Se_6  and  C_7 
REMARK    3  A    between atoms: C_7  and  C_8 
REMARK    4  A    between atoms: C_8  and  C_9 
REMARK    5  A    between atoms: C_9  and  C_10 
REMARK       I    between atoms: C_10  and  N_11 
REMARK    6  A    between atoms: N_11  and  C_15 
REMARK    7  A    between atoms: C_14  and  C_15 
REMARK    8  A    between atoms: C_15  and  C_16 
REMARK    9  A    between atoms: C_16  and  Se_17 
ROOT
HETATM    1  H           1     -22.372  -5.682  -9.437  0.00  0.00     0.163 HD
HETATM    2  O           1     -21.764  -3.557  -7.211  0.00  0.00    -0.271 OA
HETATM    3  C           1     -21.801  -4.642  -7.742  0.00  0.00     0.249 C 
HETATM    4  N           1     -22.342  -4.773  -8.992  0.00  0.00    -0.345 N 
ENDROOT
BRANCH   3   5
HETATM    5  C           1     -21.252  -5.851  -7.025  0.00  0.00     0.274 C 
BRANCH   5   6
HETATM    6  N           1     -19.848  -6.109  -7.486  0.00  0.00    -0.067 N 
HETATM    7  H           1     -19.259  -6.392  -6.671  0.00  0.00     0.275 HD
HETATM    8  H           1     -19.850  -6.876  -8.196  0.00  0.00     0.275 HD
HETATM    9  H           1     -19.457  -5.240  -7.914  0.00  0.00     0.275 HD
ENDBRANCH   5   6
BRANCH   5  10
HETATM   10  C           1     -21.254  -5.597  -5.524  0.00  0.00     0.042 C 
BRANCH  10  11
HETATM   11  C           1     -22.169  -6.603  -4.839  0.00  0.00     0.003 C 
BRANCH  11  12
HETATM   12 Se           1     -21.265  -7.350  -3.282  0.00  0.00     0.000 Se
HETATM   13  C           1     -22.160  -6.188  -1.999  0.00  0.00     0.000 C 
ENDBRANCH  11  12
ENDBRANCH  10  11
ENDBRANCH   5  10
ENDBRANCH   3   5
BRANCH   4  14
HETATM   14  C           1     -22.869  -3.611  -9.681  0.00  0.00     0.185 C 
BRANCH  14  15
HETATM   15  C           1     -24.288  -3.887 -10.115  0.00  0.00     0.196 C 
HETATM   16  O           1     -24.887  -3.071 -10.848  0.00  0.00    -0.646 OA
HETATM   17  O           1     -24.864  -4.931  -9.740  0.00  0.00    -0.646 OA
ENDBRANCH  14  15
BRANCH  14  18
HETATM   18  C           1     -22.012  -3.314 -10.904  0.00  0.00     0.039 C 
BRANCH  18  19
HETATM   19 Se           1     -20.376  -4.371 -10.824  0.00  0.00     0.000 Se
HETATM   20  H           1     -20.003  -4.113 -12.224  0.00  0.00     0.000 HD
ENDBRANCH  18  19
ENDBRANCH  14  18
ENDBRANCH   4  14
TORSDOF 9
ENDMDL
MODEL 2
REMARK VINA RESULT:      -5.4     12.521     14.133
REMARK  9 active torsions:
REMARK  status: ('A' for Active; 'I' for Inactive)
REMARK    1  A    between atoms: N_4  and  C_9 
REMARK    2  A    between atoms: Se_6  and  C_7 
REMARK    3  A    between atoms: C_7  and  C_8 
REMARK    4  A    between atoms: C_8  and  C_9 
REMARK    5  A    between atoms: C_9  and  C_10 
REMARK       I    between atoms: C_10  and  N_11 
REMARK    6  A    between atoms: N_11  and  C_15 
REMARK    7  A    between atoms: C_14  and  C_15 
REMARK    8  A    between atoms: C_15  and  C_16 
REMARK    9  A    between atoms: C_16  and  Se_17 
ROOT
HETATM    1  H           1     -35.268  -2.160 -14.412  0.00  0.00     0.163 HD
HETATM    2  O           1     -34.273  -1.858 -11.453  0.00  0.00    -0.271 OA
HETATM    3  C           1     -34.490  -2.401 -12.511  0.00  0.00     0.249 C 
HETATM    4  N           1     -35.087  -1.705 -13.527  0.00  0.00    -0.345 N 
ENDROOT
BRANCH   3   5
HETATM    5  C           1     -34.103  -3.846 -12.710  0.00  0.00     0.274 C 
BRANCH   5   6
HETATM    6  N           1     -33.655  -4.051 -14.126  0.00  0.00    -0.067 N 
HETATM    7  H           1     -33.166  -4.972 -14.208  0.00  0.00     0.275 HD
HETATM    8  H           1     -34.486  -4.042 -14.759  0.00  0.00     0.275 HD
HETATM    9  H           1     -33.000  -3.284 -14.399  0.00  0.00     0.275 HD
ENDBRANCH   5   6
BRANCH   5  10
HETATM   10  C           1     -32.967  -4.203 -11.761  0.00  0.00     0.042 C 
BRANCH  10  11
HETATM   11  C           1     -33.121  -5.647 -11.303  0.00  0.00     0.003 C 
BRANCH  11  12
HETATM   12 Se           1     -34.716  -5.812 -10.195  0.00  0.00     0.000 Se
HETATM   13  C           1     -34.684  -7.760 -10.151  0.00  0.00     0.000 C 
ENDBRANCH  11  12
ENDBRANCH  10  11
ENDBRANCH   5  10
ENDBRANCH   3   5
BRANCH   4  14
HETATM   14  C           1     -35.459  -0.317 -13.335  0.00  0.00     0.185 C 
BRANCH  14  15
HETATM   15  C           1     -36.857  -0.245 -12.774  0.00  0.00     0.196 C 
HETATM   16  O           1     -37.825  -0.651 -13.452  0.00  0.00    -0.646 OA
HETATM   17  O           1     -37.048   0.221 -11.629  0.00  0.00    -0.646 OA
ENDBRANCH  14  15
BRANCH  14  18
HETATM   18  C           1     -35.410   0.410 -14.673  0.00  0.00     0.039 C 
BRANCH  18  19
HETATM   19 Se           1     -35.614  -0.878 -16.121  0.00  0.00     0.000 Se
HETATM   20  H           1     -34.251  -0.685 -16.641  0.00  0.00     0.000 HD
ENDBRANCH  18  19
ENDBRANCH  14  18
ENDBRANCH   4  14
TORSDOF 9
ENDMDL
MODEL 3
REMARK VINA RESULT:      -5.1     12.529     14.170
REMARK  9 active torsions:
REMARK  status: ('A' for Active; 'I' for Inactive)
REMARK    1  A    between atoms: N_4  and  C_9 
REMARK    2  A    between atoms: Se_6  and  C_7 
REMARK    3  A    between atoms: C_7  and  C_8 
REMARK    4  A    between atoms: C_8  and  C_9 
REMARK    5  A    between atoms: C_9  and  C_10 
REMARK       I    between atoms: C_10  and  N_11 
REMARK    6  A    between atoms: N_11  and  C_15 
REMARK    7  A    between atoms: C_14  and  C_15 
REMARK    8  A    between atoms: C_15  and  C_16 
REMARK    9  A    between atoms: C_16  and  Se_17 
ROOT
HETATM    1  H           1     -32.478  -3.561 -14.359  0.00  0.00     0.163 HD
HETATM    2  O           1     -35.041  -5.020 -15.428  0.00  0.00    -0.271 OA
HETATM    3  C           1     -33.948  -4.506 -15.467  0.00  0.00     0.249 C 
HETATM    4  N           1     -33.394  -3.991 -14.327  0.00  0.00    -0.345 N 
ENDROOT
BRANCH   3   5
HETATM    5  C           1     -33.196  -4.432 -16.773  0.00  0.00     0.274 C 
BRANCH   5   6
HETATM    6  N           1     -33.398  -3.079 -17.389  0.00  0.00    -0.067 N 
HETATM    7  H           1     -34.233  -2.621 -16.960  0.00  0.00     0.275 HD
HETATM    8  H           1     -32.552  -2.489 -17.217  0.00  0.00     0.275 HD
HETATM    9  H           1     -33.547  -3.183 -18.418  0.00  0.00     0.275 HD
ENDBRANCH   5   6
BRANCH   5  10
HETATM   10  C           1     -31.712  -4.657 -16.518  0.00  0.00     0.042 C 
BRANCH  10  11
HETATM   11  C           1     -30.895  -3.790 -17.467  0.00  0.00     0.003 C 
BRANCH  11  12
HETATM   12 Se           1     -29.387  -4.817 -18.152  0.00  0.00     0.000 Se
HETATM   13  C           1     -30.181  -6.554 -17.762  0.00  0.00     0.000 C 
ENDBRANCH  11  12
ENDBRANCH  10  11
ENDBRANCH   5  10
ENDBRANCH   3   5
BRANCH   4  14
HETATM   14  C           1     -34.116  -4.062 -13.072  0.00  0.00     0.185 C 
BRANCH  14  15
HETATM   15  C           1     -34.642  -2.693 -12.718  0.00  0.00     0.196 C 
HETATM   16  O           1     -34.696  -2.334 -11.522  0.00  0.00    -0.646 OA
HETATM   17  O           1     -35.025  -1.918 -13.621  0.00  0.00    -0.646 OA
ENDBRANCH  14  15
BRANCH  14  18
HETATM   18  C           1     -33.179  -4.546 -11.973  0.00  0.00     0.039 C 
BRANCH  18  19
HETATM   19 Se           1     -34.081  -5.899 -10.899  0.00  0.00     0.000 Se
HETATM   20  H           1     -35.058  -6.245 -11.943  0.00  0.00     0.000 HD
ENDBRANCH  18  19
ENDBRANCH  14  18
ENDBRANCH   4  14
TORSDOF 9
ENDMDL
MODEL 4
REMARK VINA RESULT:      -4.7      2.797      6.463
REMARK  9 active torsions:
REMARK  status: ('A' for Active; 'I' for Inactive)
REMARK    1  A    between atoms: N_4  and  C_9 
REMARK    2  A    between atoms: Se_6  and  C_7 
REMARK    3  A    between atoms: C_7  and  C_8 
REMARK    4  A    between atoms: C_8  and  C_9 
REMARK    5  A    between atoms: C_9  and  C_10 
REMARK       I    between atoms: C_10  and  N_11 
REMARK    6  A    between atoms: N_11  and  C_15 
REMARK    7  A    between atoms: C_14  and  C_15 
REMARK    8  A    between atoms: C_15  and  C_16 
REMARK    9  A    between atoms: C_16  and  Se_17 
ROOT
HETATM    1  H           1     -19.937  -6.835  -4.922  0.00  0.00     0.163 HD
HETATM    2  O           1     -22.673  -5.544  -5.748  0.00  0.00    -0.271 OA
HETATM    3  C           1     -21.482  -5.744  -5.761  0.00  0.00     0.249 C 
HETATM    4  N           1     -20.935  -6.667  -4.912  0.00  0.00    -0.345 N 
ENDROOT
BRANCH   3   5
HETATM    5  C           1     -20.598  -4.976  -6.713  0.00  0.00     0.274 C 
BRANCH   5   6
HETATM    6  N           1     -19.767  -5.938  -7.508  0.00  0.00    -0.067 N 
HETATM    7  H           1     -19.552  -5.524  -8.443  0.00  0.00     0.275 HD
HETATM    8  H           1     -18.874  -6.130  -7.000  0.00  0.00     0.275 HD
HETATM    9  H           1     -20.294  -6.831  -7.636  0.00  0.00     0.275 HD
ENDBRANCH   5   6
BRANCH   5  10
HETATM   10  C           1     -21.463  -4.152  -7.657  0.00  0.00     0.042 C 
BRANCH  10  11
HETATM   11  C           1     -21.065  -4.444  -9.097  0.00  0.00     0.003 C 
BRANCH  11  12
HETATM   12 Se           1     -22.379  -3.666 -10.307  0.00  0.00     0.000 Se
HETATM   13  C           1     -23.889  -3.938  -9.105  0.00  0.00     0.000 C 
ENDBRANCH  11  12
ENDBRANCH  10  11
ENDBRANCH   5  10
ENDBRANCH   3   5
BRANCH   4  14
HETATM   14  C           1     -21.784  -7.405  -3.997  0.00  0.00     0.185 C 
BRANCH  14  15
HETATM   15  C           1     -21.623  -6.849  -2.604  0.00  0.00     0.196 C 
HETATM   16  O           1     -20.796  -7.359  -1.818  0.00  0.00    -0.646 OA
HETATM   17  O           1     -22.318  -5.877  -2.234  0.00  0.00    -0.646 OA
ENDBRANCH  14  15
BRANCH  14  18
HETATM   18  C           1     -21.383  -8.875  -4.007  0.00  0.00     0.039 C 
BRANCH  18  19
HETATM   19 Se           1     -19.644  -9.068  -4.866  0.00  0.00     0.000 Se
HETATM   20  H           1     -19.396  -7.621  -4.953  0.00  0.00     0.000 HD
ENDBRANCH  18  19
ENDBRANCH  14  18
ENDBRANCH   4  14
TORSDOF 9
ENDMDL
MODEL 5
REMARK VINA RESULT:      -4.7      3.449      4.662
REMARK  9 active torsions:
REMARK  status: ('A' for Active; 'I' for Inactive)
REMARK    1  A    between atoms: N_4  and  C_9 
REMARK    2  A    between atoms: Se_6  and  C_7 
REMARK    3  A    between atoms: C_7  and  C_8 
REMARK    4  A    between atoms: C_8  and  C_9 
REMARK    5  A    between atoms: C_9  and  C_10 
REMARK       I    between atoms: C_10  and  N_11 
REMARK    6  A    between atoms: N_11  and  C_15 
REMARK    7  A    between atoms: C_14  and  C_15 
REMARK    8  A    between atoms: C_15  and  C_16 
REMARK    9  A    between atoms: C_16  and  Se_17 
ROOT
HETATM    1  H           1     -20.613  -4.701  -4.659  0.00  0.00     0.163 HD
HETATM    2  O           1     -22.128  -7.428  -4.984  0.00  0.00    -0.271 OA
HETATM    3  C           1     -21.555  -6.528  -4.419  0.00  0.00     0.249 C 
HETATM    4  N           1     -21.092  -5.456  -5.133  0.00  0.00    -0.345 N 
ENDROOT
BRANCH   3   5
HETATM    5  C           1     -21.350  -6.585  -2.925  0.00  0.00     0.274 C 
BRANCH   5   6
HETATM    6  N           1     -22.423  -5.790  -2.243  0.00  0.00    -0.067 N 
HETATM    7  H           1     -22.566  -6.153  -1.274  0.00  0.00     0.275 HD
HETATM    8  H           1     -22.138  -4.785  -2.199  0.00  0.00     0.275 HD
HETATM    9  H           1     -23.315  -5.875  -2.781  0.00  0.00     0.275 HD
ENDBRANCH   5   6
BRANCH   5  10
HETATM   10  C           1     -21.418  -8.033  -2.458  0.00  0.00     0.042 C 
BRANCH  10  11
HETATM   11  C           1     -20.651  -8.182  -1.150  0.00  0.00     0.003 C 
BRANCH  11  12
HETATM   12 Se           1     -21.613  -9.395   0.034  0.00  0.00     0.000 Se
HETATM   13  C           1     -23.060  -8.144   0.410  0.00  0.00     0.000 C 
ENDBRANCH  11  12
ENDBRANCH  10  11
ENDBRANCH   5  10
ENDBRANCH   3   5
BRANCH   4  14
HETATM   14  C           1     -21.289  -5.401  -6.569  0.00  0.00     0.185 C 
BRANCH  14  15
HETATM   15  C           1     -19.984  -5.697  -7.266  0.00  0.00     0.196 C 
HETATM   16  O           1     -19.438  -6.811  -7.123  0.00  0.00    -0.646 OA
HETATM   17  O           1     -19.449  -4.826  -7.986  0.00  0.00    -0.646 OA
ENDBRANCH  14  15
BRANCH  14  18
HETATM   18  C           1     -21.772  -4.011  -6.961  0.00  0.00     0.039 C 
BRANCH  18  19
HETATM   19 Se           1     -22.941  -4.144  -8.515  0.00  0.00     0.000 Se
HETATM   20  H           1     -22.209  -5.271  -9.115  0.00  0.00     0.000 HD
ENDBRANCH  18  19
ENDBRANCH  14  18
ENDBRANCH   4  14
TORSDOF 9
ENDMDL
MODEL 6
REMARK VINA RESULT:      -4.5      2.452      2.714
REMARK  9 active torsions:
REMARK  status: ('A' for Active; 'I' for Inactive)
REMARK    1  A    between atoms: N_4  and  C_9 
REMARK    2  A    between atoms: Se_6  and  C_7 
REMARK    3  A    between atoms: C_7  and  C_8 
REMARK    4  A    between atoms: C_8  and  C_9 
REMARK    5  A    between atoms: C_9  and  C_10 
REMARK       I    between atoms: C_10  and  N_11 
REMARK    6  A    between atoms: N_11  and  C_15 
REMARK    7  A    between atoms: C_14  and  C_15 
REMARK    8  A    between atoms: C_15  and  C_16 
REMARK    9  A    between atoms: C_16  and  Se_17 
ROOT
HETATM    1  H           1     -22.961  -3.808  -8.753  0.00  0.00     0.163 HD
HETATM    2  O           1     -20.282  -5.438  -8.715  0.00  0.00    -0.271 OA
HETATM    3  C           1     -21.215  -4.810  -8.275  0.00  0.00     0.249 C 
HETATM    4  N           1     -22.179  -4.333  -9.121  0.00  0.00    -0.345 N 
ENDROOT
BRANCH   3   5
HETATM    5  C           1     -21.318  -4.552  -6.791  0.00  0.00     0.274 C 
BRANCH   5   6
HETATM    6  N           1     -22.715  -4.845  -6.330  0.00  0.00    -0.067 N 
HETATM    7  H           1     -22.803  -5.862  -6.107  0.00  0.00     0.275 HD
HETATM    8  H           1     -22.924  -4.283  -5.474  0.00  0.00     0.275 HD
HETATM    9  H           1     -23.391  -4.594  -7.085  0.00  0.00     0.275 HD
ENDBRANCH   5   6
BRANCH   5  10
HETATM   10  C           1     -20.339  -5.452  -6.050  0.00  0.00     0.042 C 
BRANCH  10  11
HETATM   11  C           1     -21.009  -6.784  -5.738  0.00  0.00     0.003 C 
BRANCH  11  12
HETATM   12 Se           1     -21.244  -6.959  -3.811  0.00  0.00     0.000 Se
HETATM   13  C           1     -21.533  -8.886  -3.856  0.00  0.00     0.000 C 
ENDBRANCH  11  12
ENDBRANCH  10  11
ENDBRANCH   5  10
ENDBRANCH   3   5
BRANCH   4  14
HETATM   14  C           1     -22.080  -4.582 -10.547  0.00  0.00     0.185 C 
BRANCH  14  15
HETATM   15  C           1     -21.311  -3.460 -11.199  0.00  0.00     0.196 C 
HETATM   16  O           1     -21.916  -2.458 -11.637  0.00  0.00    -0.646 OA
HETATM   17  O           1     -20.067  -3.532 -11.302  0.00  0.00    -0.646 OA
ENDBRANCH  14  15
BRANCH  14  18
HETATM   18  C           1     -23.478  -4.656 -11.146  0.00  0.00     0.039 C 
BRANCH  18  19
HETATM   19 Se           1     -24.727  -3.686 -10.007  0.00  0.00     0.000 Se
HETATM   20  H           1     -25.104  -4.868  -9.216  0.00  0.00     0.000 HD
ENDBRANCH  18  19
ENDBRANCH  14  18
ENDBRANCH   4  14
TORSDOF 9
ENDMDL
MODEL 7
REMARK VINA RESULT:      -4.5      2.783      6.668
REMARK  9 active torsions:
REMARK  status: ('A' for Active; 'I' for Inactive)
REMARK    1  A    between atoms: N_4  and  C_9 
REMARK    2  A    between atoms: Se_6  and  C_7 
REMARK    3  A    between atoms: C_7  and  C_8 
REMARK    4  A    between atoms: C_8  and  C_9 
REMARK    5  A    between atoms: C_9  and  C_10 
REMARK       I    between atoms: C_10  and  N_11 
REMARK    6  A    between atoms: N_11  and  C_15 
REMARK    7  A    between atoms: C_14  and  C_15 
REMARK    8  A    between atoms: C_15  and  C_16 
REMARK    9  A    between atoms: C_16  and  Se_17 
ROOT
HETATM    1  H           1     -21.802  -7.479  -6.430  0.00  0.00     0.163 HD
HETATM    2  O           1     -20.527  -4.679  -5.822  0.00  0.00    -0.271 OA
HETATM    3  C           1     -21.156  -5.514  -6.428  0.00  0.00     0.249 C 
HETATM    4  N           1     -21.274  -6.780  -5.923  0.00  0.00    -0.345 N 
ENDROOT
BRANCH   3   5
HETATM    5  C           1     -21.811  -5.159  -7.740  0.00  0.00     0.274 C 
BRANCH   5   6
HETATM    6  N           1     -22.894  -4.149  -7.501  0.00  0.00    -0.067 N 
HETATM    7  H           1     -22.629  -3.538  -6.695  0.00  0.00     0.275 HD
HETATM    8  H           1     -23.018  -3.562  -8.356  0.00  0.00     0.275 HD
HETATM    9  H           1     -23.789  -4.642  -7.284  0.00  0.00     0.275 HD
ENDBRANCH   5   6
BRANCH   5  10
HETATM   10  C           1     -20.771  -4.573  -8.685  0.00  0.00     0.042 C 
BRANCH  10  11
HETATM   11  C           1     -21.436  -3.562  -9.610  0.00  0.00     0.003 C 
BRANCH  11  12
HETATM   12 Se           1     -21.697  -4.359 -11.368  0.00  0.00     0.000 Se
HETATM   13  C           1     -23.576  -4.789 -11.076  0.00  0.00     0.000 C 
ENDBRANCH  11  12
ENDBRANCH  10  11
ENDBRANCH   5  10
ENDBRANCH   3   5
BRANCH   4  14
HETATM   14  C           1     -20.645  -7.120  -4.662  0.00  0.00     0.185 C 
BRANCH  14  15
HETATM   15  C           1     -19.638  -8.222  -4.885  0.00  0.00     0.196 C 
HETATM   16  O           1     -19.217  -8.460  -6.037  0.00  0.00    -0.646 OA
HETATM   17  O           1     -19.225  -8.896  -3.917  0.00  0.00    -0.646 OA
ENDBRANCH  14  15
BRANCH  14  18
HETATM   18  C           1     -21.706  -7.593  -3.677  0.00  0.00     0.039 C 
BRANCH  18  19
HETATM   19 Se           1     -21.934  -6.258  -2.276  0.00  0.00     0.000 Se
HETATM   20  H           1     -21.175  -7.016  -1.268  0.00  0.00     0.000 HD
ENDBRANCH  18  19
ENDBRANCH  14  18
ENDBRANCH   4  14
TORSDOF 9
ENDMDL
MODEL 8
REMARK VINA RESULT:      -4.3      2.124      5.987
REMARK  9 active torsions:
REMARK  status: ('A' for Active; 'I' for Inactive)
REMARK    1  A    between atoms: N_4  and  C_9 
REMARK    2  A    between atoms: Se_6  and  C_7 
REMARK    3  A    between atoms: C_7  and  C_8 
REMARK    4  A    between atoms: C_8  and  C_9 
REMARK    5  A    between atoms: C_9  and  C_10 
REMARK       I    between atoms: C_10  and  N_11 
REMARK    6  A    between atoms: N_11  and  C_15 
REMARK    7  A    between atoms: C_14  and  C_15 
REMARK    8  A    between atoms: C_15  and  C_16 
REMARK    9  A    between atoms: C_16  and  Se_17 
ROOT
HETATM    1  H           1     -22.962  -6.416  -7.079  0.00  0.00     0.163 HD
HETATM    2  O           1     -22.020  -3.437  -7.352  0.00  0.00    -0.271 OA
HETATM    3  C           1     -22.626  -4.447  -7.619  0.00  0.00     0.249 C 
HETATM    4  N           1     -22.454  -5.570  -6.855  0.00  0.00    -0.345 N 
ENDROOT
BRANCH   3   5
HETATM    5  C           1     -23.572  -4.470  -8.794  0.00  0.00     0.274 C 
BRANCH   5   6
HETATM    6  N           1     -24.281  -3.152  -8.890  0.00  0.00    -0.067 N 
HETATM    7  H           1     -24.144  -2.616  -8.003  0.00  0.00     0.275 HD
HETATM    8  H           1     -23.891  -2.604  -9.690  0.00  0.00     0.275 HD
HETATM    9  H           1     -25.301  -3.315  -9.045  0.00  0.00     0.275 HD
ENDBRANCH   5   6
BRANCH   5  10
HETATM   10  C           1     -22.786  -4.718 -10.074  0.00  0.00     0.042 C 
BRANCH  10  11
HETATM   11  C           1     -22.563  -3.397 -10.798  0.00  0.00     0.003 C 
BRANCH  11  12
HETATM   12 Se           1     -20.666  -3.181 -11.190  0.00  0.00     0.000 Se
HETATM   13  C           1     -20.118  -4.790 -10.235  0.00  0.00     0.000 C 
ENDBRANCH  11  12
ENDBRANCH  10  11
ENDBRANCH   5  10
ENDBRANCH   3   5
BRANCH   4  14
HETATM   14  C           1     -21.545  -5.547  -5.726  0.00  0.00     0.185 C 
BRANCH  14  15
HETATM   15  C           1     -20.128  -5.709  -6.219  0.00  0.00     0.196 C 
HETATM   16  O           1     -19.324  -4.757  -6.135  0.00  0.00    -0.646 OA
HETATM   17  O           1     -19.759  -6.797  -6.713  0.00  0.00    -0.646 OA
ENDBRANCH  14  15
BRANCH  14  18
HETATM   18  C           1     -21.887  -6.689  -4.777  0.00  0.00     0.039 C 
BRANCH  18  19
HETATM   19 Se           1     -21.413  -6.183  -2.955  0.00  0.00     0.000 Se
HETATM   20  H           1     -22.461  -5.157  -2.843  0.00  0.00     0.000 HD
ENDBRANCH  18  19
ENDBRANCH  14  18
ENDBRANCH   4  14
TORSDOF 9
ENDMDL
MODEL 9
REMARK VINA RESULT:      -4.3      4.891      8.060
REMARK  9 active torsions:
REMARK  status: ('A' for Active; 'I' for Inactive)
REMARK    1  A    between atoms: N_4  and  C_9 
REMARK    2  A    between atoms: Se_6  and  C_7 
REMARK    3  A    between atoms: C_7  and  C_8 
REMARK    4  A    between atoms: C_8  and  C_9 
REMARK    5  A    between atoms: C_9  and  C_10 
REMARK       I    between atoms: C_10  and  N_11 
REMARK    6  A    between atoms: N_11  and  C_15 
REMARK    7  A    between atoms: C_14  and  C_15 
REMARK    8  A    between atoms: C_15  and  C_16 
REMARK    9  A    between atoms: C_16  and  Se_17 
ROOT
HETATM    1  H           1     -20.036  -7.499  -2.189  0.00  0.00     0.163 HD
HETATM    2  O           1     -21.878  -9.173  -4.098  0.00  0.00    -0.271 OA
HETATM    3  C           1     -20.984  -8.427  -3.777  0.00  0.00     0.249 C 
HETATM    4  N           1     -20.786  -8.123  -2.458  0.00  0.00    -0.345 N 
ENDROOT
BRANCH   3   5
HETATM    5  C           1     -20.085  -7.830  -4.833  0.00  0.00     0.274 C 
BRANCH   5   6
HETATM    6  N           1     -19.446  -8.933  -5.624  0.00  0.00    -0.067 N 
HETATM    7  H           1     -19.600  -9.845  -5.139  0.00  0.00     0.275 HD
HETATM    8  H           1     -19.873  -8.970  -6.577  0.00  0.00     0.275 HD
HETATM    9  H           1     -18.420  -8.752  -5.708  0.00  0.00     0.275 HD
ENDBRANCH   5   6
BRANCH   5  10
HETATM   10  C           1     -20.908  -6.950  -5.763  0.00  0.00     0.042 C 
BRANCH  10  11
HETATM   11  C           1     -20.714  -5.488  -5.383  0.00  0.00     0.003 C 
BRANCH  11  12
HETATM   12 Se           1     -21.177  -4.354  -6.899  0.00  0.00     0.000 Se
HETATM   13  C           1     -19.410  -4.446  -7.718  0.00  0.00     0.000 C 
ENDBRANCH  11  12
ENDBRANCH  10  11
ENDBRANCH   5  10
ENDBRANCH   3   5
BRANCH   4  14
HETATM   14  C           1     -21.650  -8.696  -1.444  0.00  0.00     0.185 C 
BRANCH  14  15
HETATM   15  C           1     -22.162  -7.599  -0.543  0.00  0.00     0.196 C 
HETATM   16  O           1     -22.676  -6.573  -1.038  0.00  0.00    -0.646 OA
HETATM   17  O           1     -22.072  -7.717   0.698  0.00  0.00    -0.646 OA
ENDBRANCH  14  15
BRANCH  14  18
HETATM   18  C           1     -20.862  -9.705  -0.618  0.00  0.00     0.039 C 
BRANCH  18  19
HETATM   19 Se           1     -21.997 -11.236  -0.208  0.00  0.00     0.000 Se
HETATM   20  H           1     -23.202 -10.425   0.035  0.00  0.00     0.000 HD
ENDBRANCH  18  19
ENDBRANCH  14  18
ENDBRANCH   4  14
TORSDOF 9
ENDMDL
