MODEL 1
REMARK VINA RESULT:      -5.7      0.000      0.000
REMARK  10 active torsions:
REMARK  status: ('A' for Active; 'I' for Inactive)
REMARK    1  A    between atoms: C_2  and  C_18 
REMARK    2  A    between atoms: C_2  and  C_3 
REMARK    3  A    between atoms: C_2  and  N_7 
REMARK    4  A    between atoms: C_4  and  C_13 
REMARK    5  A    between atoms: C_4  and  N_20 
REMARK       I    between atoms: N_7  and  C_8 
REMARK    6  A    between atoms: C_8  and  C_15 
REMARK    7  A    between atoms: C_13  and  C_14 
REMARK    8  A    between atoms: C_14  and  C_15 
REMARK    9  A    between atoms: C_15  and  N_21 
REMARK   10  A    between atoms: C_18  and  S_19 
ROOT
HETATM    1  C           1     -21.117  -5.851  -6.833  0.00  0.00     0.274 C 
ENDROOT
BRANCH   1   2
HETATM    2  C           1     -21.674  -4.635  -7.532  0.00  0.00     0.249 C 
HETATM    3  N           1     -22.252  -4.760  -8.767  0.00  0.00    -0.344 N 
HETATM    4  H           1     -22.306  -5.667  -9.211  0.00  0.00     0.163 HD
HETATM    5  O           1     -21.609  -3.552  -7.001  0.00  0.00    -0.271 OA
BRANCH   3   6
HETATM    6  C           1     -22.787  -3.591  -9.438  0.00  0.00     0.194 C 
BRANCH   6   7
HETATM    7  C           1     -22.089  -3.414 -10.780  0.00  0.00     0.106 C 
BRANCH   7   8
HETATM    8  S           1     -20.499  -4.289 -10.756  0.00  0.00    -0.180 SA
HETATM    9  H           1     -20.920  -5.366 -11.443  0.00  0.00     0.101 HD
ENDBRANCH   7   8
ENDBRANCH   6   7
BRANCH   6  10
HETATM   10  C           1     -24.268  -3.773  -9.660  0.00  0.00     0.197 C 
HETATM   11  O           1     -24.722  -4.900  -9.956  0.00  0.00    -0.646 OA
HETATM   12  O           1     -25.042  -2.797  -9.547  0.00  0.00    -0.646 OA
ENDBRANCH   6  10
ENDBRANCH   3   6
ENDBRANCH   1   2
BRANCH   1  13
HETATM   13  C           1     -20.894  -5.534  -5.360  0.00  0.00     0.044 C 
BRANCH  13  14
HETATM   14  C           1     -21.868  -6.343  -4.513  0.00  0.00     0.030 C 
BRANCH  14  15
HETATM   15  C           1     -21.353  -6.422  -3.082  0.00  0.00     0.230 C 
BRANCH  15  16
HETATM   16  N           1     -22.392  -5.881  -2.145  0.00  0.00    -0.079 N 
HETATM   17  H           1     -22.406  -6.454  -1.271  0.00  0.00     0.274 HD
HETATM   18  H           1     -22.165  -4.889  -1.908  0.00  0.00     0.274 HD
HETATM   19  H           1     -23.330  -5.922  -2.604  0.00  0.00     0.274 HD
ENDBRANCH  15  16
ENDBRANCH  14  15
ENDBRANCH  13  14
ENDBRANCH   1  13
BRANCH   1  20
HETATM   20  N           1     -19.812  -6.236  -7.465  0.00  0.00    -0.067 N 
HETATM   21  H           1     -19.944  -7.097  -8.040  0.00  0.00     0.275 HD
HETATM   22  H           1     -19.478  -5.455  -8.075  0.00  0.00     0.275 HD
HETATM   23  H           1     -19.104  -6.420  -6.719  0.00  0.00     0.275 HD
ENDBRANCH   1  20
TORSDOF 10
ENDMDL
MODEL 2
REMARK VINA RESULT:      -5.3      3.310      6.113
REMARK  10 active torsions:
REMARK  status: ('A' for Active; 'I' for Inactive)
REMARK    1  A    between atoms: C_2  and  C_18 
REMARK    2  A    between atoms: C_2  and  C_3 
REMARK    3  A    between atoms: C_2  and  N_7 
REMARK    4  A    between atoms: C_4  and  C_13 
REMARK    5  A    between atoms: C_4  and  N_20 
REMARK       I    between atoms: N_7  and  C_8 
REMARK    6  A    between atoms: C_8  and  C_15 
REMARK    7  A    between atoms: C_13  and  C_14 
REMARK    8  A    between atoms: C_14  and  C_15 
REMARK    9  A    between atoms: C_15  and  N_21 
REMARK   10  A    between atoms: C_18  and  S_19 
ROOT
HETATM    1  C           1     -20.506  -4.962  -6.589  0.00  0.00     0.274 C 
ENDROOT
BRANCH   1   2
HETATM    2  C           1     -21.391  -5.769  -5.672  0.00  0.00     0.249 C 
HETATM    3  N           1     -20.838  -6.682  -4.814  0.00  0.00    -0.344 N 
HETATM    4  H           1     -19.835  -6.816  -4.796  0.00  0.00     0.163 HD
HETATM    5  O           1     -22.589  -5.610  -5.694  0.00  0.00    -0.271 OA
BRANCH   3   6
HETATM    6  C           1     -21.689  -7.457  -3.932  0.00  0.00     0.194 C 
BRANCH   6   7
HETATM    7  C           1     -21.211  -8.903  -3.909  0.00  0.00     0.106 C 
BRANCH   7   8
HETATM    8  S           1     -19.591  -9.018  -4.720  0.00  0.00    -0.180 SA
HETATM    9  H           1     -18.980  -8.104  -3.945  0.00  0.00     0.101 HD
ENDBRANCH   7   8
ENDBRANCH   6   7
BRANCH   6  10
HETATM   10  C           1     -21.624  -6.883  -2.539  0.00  0.00     0.197 C 
HETATM   11  O           1     -20.862  -7.392  -1.688  0.00  0.00    -0.646 OA
HETATM   12  O           1     -22.332  -5.898  -2.235  0.00  0.00    -0.646 OA
ENDBRANCH   6  10
ENDBRANCH   3   6
ENDBRANCH   1   2
BRANCH   1  13
HETATM   13  C           1     -21.311  -3.824  -7.201  0.00  0.00     0.044 C 
BRANCH  13  14
HETATM   14  C           1     -21.473  -4.063  -8.697  0.00  0.00     0.030 C 
BRANCH  14  15
HETATM   15  C           1     -22.905  -3.745  -9.110  0.00  0.00     0.230 C 
BRANCH  15  16
HETATM   16  N           1     -23.837  -4.078  -7.983  0.00  0.00    -0.079 N 
HETATM   17  H           1     -24.273  -3.200  -7.621  0.00  0.00     0.274 HD
HETATM   18  H           1     -24.584  -4.722  -8.328  0.00  0.00     0.274 HD
HETATM   19  H           1     -23.303  -4.544  -7.216  0.00  0.00     0.274 HD
ENDBRANCH  15  16
ENDBRANCH  14  15
ENDBRANCH  13  14
ENDBRANCH   1  13
BRANCH   1  20
HETATM   20  N           1     -19.982  -5.847  -7.681  0.00  0.00    -0.067 N 
HETATM   21  H           1     -20.632  -6.652  -7.820  0.00  0.00     0.275 HD
HETATM   22  H           1     -19.909  -5.299  -8.569  0.00  0.00     0.275 HD
HETATM   23  H           1     -19.036  -6.205  -7.416  0.00  0.00     0.275 HD
ENDBRANCH   1  20
TORSDOF 10
ENDMDL
MODEL 3
REMARK VINA RESULT:      -5.0      1.570      1.666
REMARK  10 active torsions:
REMARK  status: ('A' for Active; 'I' for Inactive)
REMARK    1  A    between atoms: C_2  and  C_18 
REMARK    2  A    between atoms: C_2  and  C_3 
REMARK    3  A    between atoms: C_2  and  N_7 
REMARK    4  A    between atoms: C_4  and  C_13 
REMARK    5  A    between atoms: C_4  and  N_20 
REMARK       I    between atoms: N_7  and  C_8 
REMARK    6  A    between atoms: C_8  and  C_15 
REMARK    7  A    between atoms: C_13  and  C_14 
REMARK    8  A    between atoms: C_14  and  C_15 
REMARK    9  A    between atoms: C_15  and  N_21 
REMARK   10  A    between atoms: C_18  and  S_19 
ROOT
HETATM    1  C           1     -21.030  -5.538  -6.979  0.00  0.00     0.274 C 
ENDROOT
BRANCH   1   2
HETATM    2  C           1     -21.655  -4.427  -7.787  0.00  0.00     0.249 C 
HETATM    3  N           1     -22.081  -4.666  -9.066  0.00  0.00    -0.344 N 
HETATM    4  H           1     -21.977  -5.588  -9.470  0.00  0.00     0.163 HD
HETATM    5  O           1     -21.778  -3.326  -7.305  0.00  0.00    -0.271 OA
BRANCH   3   6
HETATM    6  C           1     -22.681  -3.598  -9.841  0.00  0.00     0.194 C 
BRANCH   6   7
HETATM    7  C           1     -21.749  -3.217 -10.984  0.00  0.00     0.106 C 
BRANCH   7   8
HETATM    8  S           1     -20.338  -4.358 -11.020  0.00  0.00    -0.180 SA
HETATM    9  H           1     -20.704  -5.069  -9.939  0.00  0.00     0.101 HD
ENDBRANCH   7   8
ENDBRANCH   6   7
BRANCH   6  10
HETATM   10  C           1     -24.001  -4.066 -10.403  0.00  0.00     0.197 C 
HETATM   11  O           1     -24.215  -5.288 -10.562  0.00  0.00    -0.646 OA
HETATM   12  O           1     -24.881  -3.232 -10.710  0.00  0.00    -0.646 OA
ENDBRANCH   6  10
ENDBRANCH   3   6
ENDBRANCH   1   2
BRANCH   1  13
HETATM   13  C           1     -21.882  -5.813  -5.747  0.00  0.00     0.044 C 
BRANCH  13  14
HETATM   14  C           1     -21.106  -6.697  -4.779  0.00  0.00     0.030 C 
BRANCH  14  15
HETATM   15  C           1     -21.173  -8.145  -5.249  0.00  0.00     0.230 C 
BRANCH  15  16
HETATM   16  N           1     -19.786  -8.649  -5.517  0.00  0.00    -0.079 N 
HETATM   17  H           1     -19.092  -8.036  -5.033  0.00  0.00     0.274 HD
HETATM   18  H           1     -19.696  -9.627  -5.161  0.00  0.00     0.274 HD
HETATM   19  H           1     -19.603  -8.635  -6.546  0.00  0.00     0.274 HD
ENDBRANCH  15  16
ENDBRANCH  14  15
ENDBRANCH  13  14
ENDBRANCH   1  13
BRANCH   1  20
HETATM   20  N           1     -19.651  -5.129  -6.552  0.00  0.00    -0.067 N 
HETATM   21  H           1     -19.577  -5.187  -5.513  0.00  0.00     0.275 HD
HETATM   22  H           1     -18.948  -5.769  -6.989  0.00  0.00     0.275 HD
HETATM   23  H           1     -19.467  -4.148  -6.861  0.00  0.00     0.275 HD
ENDBRANCH   1  20
TORSDOF 10
ENDMDL
MODEL 4
REMARK VINA RESULT:      -4.9      3.550      6.475
REMARK  10 active torsions:
REMARK  status: ('A' for Active; 'I' for Inactive)
REMARK    1  A    between atoms: C_2  and  C_18 
REMARK    2  A    between atoms: C_2  and  C_3 
REMARK    3  A    between atoms: C_2  and  N_7 
REMARK    4  A    between atoms: C_4  and  C_13 
REMARK    5  A    between atoms: C_4  and  N_20 
REMARK       I    between atoms: N_7  and  C_8 
REMARK    6  A    between atoms: C_8  and  C_15 
REMARK    7  A    between atoms: C_13  and  C_14 
REMARK    8  A    between atoms: C_14  and  C_15 
REMARK    9  A    between atoms: C_15  and  N_21 
REMARK   10  A    between atoms: C_18  and  S_19 
ROOT
HETATM    1  C           1     -21.461  -4.825  -8.173  0.00  0.00     0.274 C 
ENDROOT
BRANCH   1   2
HETATM    2  C           1     -21.003  -5.284  -6.810  0.00  0.00     0.249 C 
HETATM    3  N           1     -21.025  -6.616  -6.492  0.00  0.00    -0.344 N 
HETATM    4  H           1     -21.350  -7.293  -7.171  0.00  0.00     0.163 HD
HETATM    5  O           1     -20.617  -4.476  -5.999  0.00  0.00    -0.271 OA
BRANCH   3   6
HETATM    6  C           1     -20.585  -7.056  -5.183  0.00  0.00     0.194 C 
BRANCH   6   7
HETATM    7  C           1     -21.797  -7.263  -4.284  0.00  0.00     0.106 C 
BRANCH   7   8
HETATM    8  S           1     -21.590  -6.305  -2.757  0.00  0.00    -0.180 SA
HETATM    9  H           1     -21.931  -7.300  -1.919  0.00  0.00     0.101 HD
ENDBRANCH   7   8
ENDBRANCH   6   7
BRANCH   6  10
HETATM   10  C           1     -19.830  -8.355  -5.318  0.00  0.00     0.197 C 
HETATM   11  O           1     -20.130  -9.331  -4.595  0.00  0.00    -0.646 OA
HETATM   12  O           1     -18.904  -8.456  -6.152  0.00  0.00    -0.646 OA
ENDBRANCH   6  10
ENDBRANCH   3   6
ENDBRANCH   1   2
BRANCH   1  13
HETATM   13  C           1     -20.309  -4.136  -8.892  0.00  0.00     0.044 C 
BRANCH  13  14
HETATM   14  C           1     -20.206  -4.670 -10.314  0.00  0.00     0.030 C 
BRANCH  14  15
HETATM   15  C           1     -20.974  -3.753 -11.259  0.00  0.00     0.230 C 
BRANCH  15  16
HETATM   16  N           1     -22.043  -4.538 -11.958  0.00  0.00    -0.079 N 
HETATM   17  H           1     -21.634  -5.418 -12.345  0.00  0.00     0.274 HD
HETATM   18  H           1     -22.801  -4.775 -11.280  0.00  0.00     0.274 HD
HETATM   19  H           1     -22.440  -3.967 -12.738  0.00  0.00     0.274 HD
ENDBRANCH  15  16
ENDBRANCH  14  15
ENDBRANCH  13  14
ENDBRANCH   1  13
BRANCH   1  20
HETATM   20  N           1     -22.601  -3.862  -8.017  0.00  0.00    -0.067 N 
HETATM   21  H           1     -22.849  -3.462  -8.949  0.00  0.00     0.275 HD
HETATM   22  H           1     -23.428  -4.364  -7.621  0.00  0.00     0.275 HD
HETATM   23  H           1     -22.320  -3.090  -7.371  0.00  0.00     0.275 HD
ENDBRANCH   1  20
TORSDOF 10
ENDMDL
MODEL 5
REMARK VINA RESULT:      -4.7      3.274      4.552
REMARK  10 active torsions:
REMARK  status: ('A' for Active; 'I' for Inactive)
REMARK    1  A    between atoms: C_2  and  C_18 
REMARK    2  A    between atoms: C_2  and  C_3 
REMARK    3  A    between atoms: C_2  and  N_7 
REMARK    4  A    between atoms: C_4  and  C_13 
REMARK    5  A    between atoms: C_4  and  N_20 
REMARK       I    between atoms: N_7  and  C_8 
REMARK    6  A    between atoms: C_8  and  C_15 
REMARK    7  A    between atoms: C_13  and  C_14 
REMARK    8  A    between atoms: C_14  and  C_15 
REMARK    9  A    between atoms: C_15  and  N_21 
REMARK   10  A    between atoms: C_18  and  S_19 
ROOT
HETATM    1  C           1     -21.219  -6.284  -2.756  0.00  0.00     0.274 C 
ENDROOT
BRANCH   1   2
HETATM    2  C           1     -21.392  -6.328  -4.255  0.00  0.00     0.249 C 
HETATM    3  N           1     -20.978  -5.273  -5.024  0.00  0.00    -0.344 N 
HETATM    4  H           1     -20.557  -4.464  -4.587  0.00  0.00     0.163 HD
HETATM    5  O           1     -21.896  -7.294  -4.776  0.00  0.00    -0.271 OA
BRANCH   3   6
HETATM    6  C           1     -21.145  -5.317  -6.463  0.00  0.00     0.194 C 
BRANCH   6   7
HETATM    7  C           1     -21.658  -3.969  -6.954  0.00  0.00     0.106 C 
BRANCH   7   8
HETATM    8  S           1     -22.624  -4.206  -8.472  0.00  0.00    -0.180 SA
HETATM    9  H           1     -22.947  -5.490  -8.235  0.00  0.00     0.101 HD
ENDBRANCH   7   8
ENDBRANCH   6   7
BRANCH   6  10
HETATM   10  C           1     -19.818  -5.618  -7.114  0.00  0.00     0.197 C 
HETATM   11  O           1     -19.405  -6.797  -7.176  0.00  0.00    -0.646 OA
HETATM   12  O           1     -19.130  -4.689  -7.591  0.00  0.00    -0.646 OA
ENDBRANCH   6  10
ENDBRANCH   3   6
ENDBRANCH   1   2
BRANCH   1  13
HETATM   13  C           1     -20.764  -7.648  -2.256  0.00  0.00     0.044 C 
BRANCH  13  14
HETATM   14  C           1     -21.763  -8.172  -1.231  0.00  0.00     0.030 C 
BRANCH  14  15
HETATM   15  C           1     -22.113  -9.619  -1.556  0.00  0.00     0.230 C 
BRANCH  15  16
HETATM   16  N           1     -21.901  -9.868  -3.020  0.00  0.00    -0.079 N 
HETATM   17  H           1     -21.935 -10.896  -3.207  0.00  0.00     0.274 HD
HETATM   18  H           1     -22.651  -9.389  -3.567  0.00  0.00     0.274 HD
HETATM   19  H           1     -20.968  -9.493  -3.306  0.00  0.00     0.274 HD
ENDBRANCH  15  16
ENDBRANCH  14  15
ENDBRANCH  13  14
ENDBRANCH   1  13
BRANCH   1  20
HETATM   20  N           1     -22.526  -5.926  -2.113  0.00  0.00    -0.067 N 
HETATM   21  H           1     -23.226  -6.677  -2.304  0.00  0.00     0.275 HD
HETATM   22  H           1     -22.391  -5.828  -1.081  0.00  0.00     0.275 HD
HETATM   23  H           1     -22.871  -5.020  -2.505  0.00  0.00     0.275 HD
ENDBRANCH   1  20
TORSDOF 10
ENDMDL
MODEL 6
REMARK VINA RESULT:      -4.6     18.466     20.746
REMARK  10 active torsions:
REMARK  status: ('A' for Active; 'I' for Inactive)
REMARK    1  A    between atoms: C_2  and  C_18 
REMARK    2  A    between atoms: C_2  and  C_3 
REMARK    3  A    between atoms: C_2  and  N_7 
REMARK    4  A    between atoms: C_4  and  C_13 
REMARK    5  A    between atoms: C_4  and  N_20 
REMARK       I    between atoms: N_7  and  C_8 
REMARK    6  A    between atoms: C_8  and  C_15 
REMARK    7  A    between atoms: C_13  and  C_14 
REMARK    8  A    between atoms: C_14  and  C_15 
REMARK    9  A    between atoms: C_15  and  N_21 
REMARK   10  A    between atoms: C_18  and  S_19 
ROOT
HETATM    1  C           1     -10.501   7.166 -19.939  0.00  0.00     0.274 C 
ENDROOT
BRANCH   1   2
HETATM    2  C           1     -11.612   6.540 -20.746  0.00  0.00     0.249 C 
HETATM    3  N           1     -12.017   5.260 -20.478  0.00  0.00    -0.344 N 
HETATM    4  H           1     -11.570   4.733 -19.739  0.00  0.00     0.163 HD
HETATM    5  O           1     -12.145   7.170 -21.629  0.00  0.00    -0.271 OA
BRANCH   3   6
HETATM    6  C           1     -13.084   4.660 -21.254  0.00  0.00     0.194 C 
BRANCH   6   7
HETATM    7  C           1     -12.846   3.159 -21.366  0.00  0.00     0.106 C 
BRANCH   7   8
HETATM    8  S           1     -11.207   2.755 -20.699  0.00  0.00    -0.180 SA
HETATM    9  H           1     -10.970   1.720 -21.525  0.00  0.00     0.101 HD
ENDBRANCH   7   8
ENDBRANCH   6   7
BRANCH   6  10
HETATM   10  C           1     -14.405   4.910 -20.569  0.00  0.00     0.197 C 
HETATM   11  O           1     -14.528   4.681 -19.346  0.00  0.00    -0.646 OA
HETATM   12  O           1     -15.376   5.347 -21.224  0.00  0.00    -0.646 OA
ENDBRANCH   6  10
ENDBRANCH   3   6
ENDBRANCH   1   2
BRANCH   1  13
HETATM   13  C           1     -10.438   8.659 -20.232  0.00  0.00     0.044 C 
BRANCH  13  14
HETATM   14  C           1      -9.209   8.959 -21.081  0.00  0.00     0.030 C 
BRANCH  14  15
HETATM   15  C           1      -9.647   9.475 -22.446  0.00  0.00     0.230 C 
BRANCH  15  16
HETATM   16  N           1     -11.094   9.863 -22.393  0.00  0.00    -0.079 N 
HETATM   17  H           1     -11.644   9.099 -21.939  0.00  0.00     0.274 HD
HETATM   18  H           1     -11.199  10.743 -21.840  0.00  0.00     0.274 HD
HETATM   19  H           1     -11.450  10.018 -23.363  0.00  0.00     0.274 HD
ENDBRANCH  15  16
ENDBRANCH  14  15
ENDBRANCH  13  14
ENDBRANCH   1  13
BRANCH   1  20
HETATM   20  N           1      -9.195   6.528 -20.310  0.00  0.00    -0.067 N 
HETATM   21  H           1      -9.278   6.086 -21.252  0.00  0.00     0.275 HD
HETATM   22  H           1      -8.446   7.256 -20.331  0.00  0.00     0.275 HD
HETATM   23  H           1      -8.951   5.798 -19.604  0.00  0.00     0.275 HD
ENDBRANCH   1  20
TORSDOF 10
ENDMDL
MODEL 7
REMARK VINA RESULT:      -4.5     19.145     20.323
REMARK  10 active torsions:
REMARK  status: ('A' for Active; 'I' for Inactive)
REMARK    1  A    between atoms: C_2  and  C_18 
REMARK    2  A    between atoms: C_2  and  C_3 
REMARK    3  A    between atoms: C_2  and  N_7 
REMARK    4  A    between atoms: C_4  and  C_13 
REMARK    5  A    between atoms: C_4  and  N_20 
REMARK       I    between atoms: N_7  and  C_8 
REMARK    6  A    between atoms: C_8  and  C_15 
REMARK    7  A    between atoms: C_13  and  C_14 
REMARK    8  A    between atoms: C_14  and  C_15 
REMARK    9  A    between atoms: C_15  and  N_21 
REMARK   10  A    between atoms: C_18  and  S_19 
ROOT
HETATM    1  C           1     -14.152   5.008 -21.488  0.00  0.00     0.274 C 
ENDROOT
BRANCH   1   2
HETATM    2  C           1     -13.191   6.171 -21.503  0.00  0.00     0.249 C 
HETATM    3  N           1     -12.673   6.647 -20.329  0.00  0.00    -0.344 N 
HETATM    4  H           1     -12.935   6.219 -19.450  0.00  0.00     0.163 HD
HETATM    5  O           1     -12.878   6.682 -22.552  0.00  0.00    -0.271 OA
BRANCH   3   6
HETATM    6  C           1     -11.749   7.765 -20.344  0.00  0.00     0.194 C 
BRANCH   6   7
HETATM    7  C           1     -12.293   8.883 -19.465  0.00  0.00     0.106 C 
BRANCH   7   8
HETATM    8  S           1     -12.741  10.304 -20.502  0.00  0.00    -0.180 SA
HETATM    9  H           1     -12.767  11.205 -19.502  0.00  0.00     0.101 HD
ENDBRANCH   7   8
ENDBRANCH   6   7
BRANCH   6  10
HETATM   10  C           1     -10.409   7.316 -19.816  0.00  0.00     0.197 C 
HETATM   11  O           1      -9.356   7.745 -20.337  0.00  0.00    -0.646 OA
HETATM   12  O           1     -10.351   6.514 -18.858  0.00  0.00    -0.646 OA
ENDBRANCH   6  10
ENDBRANCH   3   6
ENDBRANCH   1   2
BRANCH   1  13
HETATM   13  C           1     -13.522   3.817 -22.198  0.00  0.00     0.044 C 
BRANCH  13  14
HETATM   14  C           1     -13.022   2.816 -21.164  0.00  0.00     0.030 C 
BRANCH  14  15
HETATM   15  C           1     -11.499   2.843 -21.125  0.00  0.00     0.230 C 
BRANCH  15  16
HETATM   16  N           1     -11.043   3.630 -19.933  0.00  0.00    -0.079 N 
HETATM   17  H           1     -10.483   4.453 -20.252  0.00  0.00     0.274 HD
HETATM   18  H           1     -11.875   3.963 -19.396  0.00  0.00     0.274 HD
HETATM   19  H           1     -10.453   3.024 -19.320  0.00  0.00     0.274 HD
ENDBRANCH  15  16
ENDBRANCH  14  15
ENDBRANCH  13  14
ENDBRANCH   1  13
BRANCH   1  20
HETATM   20  N           1     -15.418   5.398 -22.194  0.00  0.00    -0.067 N 
HETATM   21  H           1     -15.289   6.327 -22.652  0.00  0.00     0.275 HD
HETATM   22  H           1     -15.647   4.680 -22.918  0.00  0.00     0.275 HD
HETATM   23  H           1     -16.199   5.456 -21.502  0.00  0.00     0.275 HD
ENDBRANCH   1  20
TORSDOF 10
ENDMDL
MODEL 8
REMARK VINA RESULT:      -4.5      5.241      6.776
REMARK  10 active torsions:
REMARK  status: ('A' for Active; 'I' for Inactive)
REMARK    1  A    between atoms: C_2  and  C_18 
REMARK    2  A    between atoms: C_2  and  C_3 
REMARK    3  A    between atoms: C_2  and  N_7 
REMARK    4  A    between atoms: C_4  and  C_13 
REMARK    5  A    between atoms: C_4  and  N_20 
REMARK       I    between atoms: N_7  and  C_8 
REMARK    6  A    between atoms: C_8  and  C_15 
REMARK    7  A    between atoms: C_13  and  C_14 
REMARK    8  A    between atoms: C_14  and  C_15 
REMARK    9  A    between atoms: C_15  and  N_21 
REMARK   10  A    between atoms: C_18  and  S_19 
ROOT
HETATM    1  C           1     -21.699  -7.157  -1.277  0.00  0.00     0.274 C 
ENDROOT
BRANCH   1   2
HETATM    2  C           1     -21.520  -8.030  -2.495  0.00  0.00     0.249 C 
HETATM    3  N           1     -20.906  -7.530  -3.612  0.00  0.00    -0.344 N 
HETATM    4  H           1     -20.573  -6.574  -3.622  0.00  0.00     0.163 HD
HETATM    5  O           1     -21.919  -9.170  -2.484  0.00  0.00    -0.271 OA
BRANCH   3   6
HETATM    6  C           1     -20.735  -8.370  -4.782  0.00  0.00     0.194 C 
BRANCH   6   7
HETATM    7  C           1     -21.146  -7.594  -6.026  0.00  0.00     0.106 C 
BRANCH   7   8
HETATM    8  S           1     -21.168  -5.818  -5.653  0.00  0.00    -0.180 SA
HETATM    9  H           1     -21.227  -5.405  -6.932  0.00  0.00     0.101 HD
ENDBRANCH   7   8
ENDBRANCH   6   7
BRANCH   6  10
HETATM   10  C           1     -19.287  -8.779  -4.898  0.00  0.00     0.197 C 
HETATM   11  O           1     -18.620  -9.017  -3.868  0.00  0.00    -0.646 OA
HETATM   12  O           1     -18.756  -8.880  -6.025  0.00  0.00    -0.646 OA
ENDBRANCH   6  10
ENDBRANCH   3   6
ENDBRANCH   1   2
BRANCH   1  13
HETATM   13  C           1     -22.616  -7.854  -0.281  0.00  0.00     0.044 C 
BRANCH  13  14
HETATM   14  C           1     -21.866  -8.085   1.025  0.00  0.00     0.030 C 
BRANCH  14  15
HETATM   15  C           1     -21.090  -9.394   0.941  0.00  0.00     0.230 C 
BRANCH  15  16
HETATM   16  N           1     -21.936 -10.434   0.269  0.00  0.00    -0.079 N 
HETATM   17  H           1     -21.701 -11.376   0.654  0.00  0.00     0.274 HD
HETATM   18  H           1     -22.945 -10.228   0.443  0.00  0.00     0.274 HD
HETATM   19  H           1     -21.751 -10.422  -0.760  0.00  0.00     0.274 HD
ENDBRANCH  15  16
ENDBRANCH  14  15
ENDBRANCH  13  14
ENDBRANCH   1  13
BRANCH   1  20
HETATM   20  N           1     -22.309  -5.848  -1.687  0.00  0.00    -0.067 N 
HETATM   21  H           1     -23.125  -6.026  -2.313  0.00  0.00     0.275 HD
HETATM   22  H           1     -22.627  -5.332  -0.836  0.00  0.00     0.275 HD
HETATM   23  H           1     -21.597  -5.276  -2.195  0.00  0.00     0.275 HD
ENDBRANCH   1  20
TORSDOF 10
ENDMDL
MODEL 9
REMARK VINA RESULT:      -4.4      6.141      8.185
REMARK  10 active torsions:
REMARK  status: ('A' for Active; 'I' for Inactive)
REMARK    1  A    between atoms: C_2  and  C_18 
REMARK    2  A    between atoms: C_2  and  C_3 
REMARK    3  A    between atoms: C_2  and  N_7 
REMARK    4  A    between atoms: C_4  and  C_13 
REMARK    5  A    between atoms: C_4  and  N_20 
REMARK       I    between atoms: N_7  and  C_8 
REMARK    6  A    between atoms: C_8  and  C_15 
REMARK    7  A    between atoms: C_13  and  C_14 
REMARK    8  A    between atoms: C_14  and  C_15 
REMARK    9  A    between atoms: C_15  and  N_21 
REMARK   10  A    between atoms: C_18  and  S_19 
ROOT
HETATM    1  C           1     -20.387  -9.571  -4.413  0.00  0.00     0.274 C 
ENDROOT
BRANCH   1   2
HETATM    2  C           1     -21.434  -9.692  -3.333  0.00  0.00     0.249 C 
HETATM    3  N           1     -21.240  -9.089  -2.120  0.00  0.00    -0.344 N 
HETATM    4  H           1     -20.394  -8.562  -1.946  0.00  0.00     0.163 HD
HETATM    5  O           1     -22.444 -10.322  -3.540  0.00  0.00    -0.271 OA
BRANCH   3   6
HETATM    6  C           1     -22.247  -9.206  -1.083  0.00  0.00     0.194 C 
BRANCH   6   7
HETATM    7  C           1     -21.886 -10.359  -0.155  0.00  0.00     0.106 C 
BRANCH   7   8
HETATM    8  S           1     -23.262 -11.542  -0.095  0.00  0.00    -0.180 SA
HETATM    9  H           1     -22.507 -12.644  -0.252  0.00  0.00     0.101 HD
ENDBRANCH   7   8
ENDBRANCH   6   7
BRANCH   6  10
HETATM   10  C           1     -22.306  -7.923  -0.292  0.00  0.00     0.197 C 
HETATM   11  O           1     -22.712  -6.872  -0.835  0.00  0.00    -0.646 OA
HETATM   12  O           1     -21.948  -7.910   0.906  0.00  0.00    -0.646 OA
ENDBRANCH   6  10
ENDBRANCH   3   6
ENDBRANCH   1   2
BRANCH   1  13
HETATM   13  C           1     -20.114  -8.099  -4.694  0.00  0.00     0.044 C 
BRANCH  13  14
HETATM   14  C           1     -21.250  -7.522  -5.529  0.00  0.00     0.030 C 
BRANCH  14  15
HETATM   15  C           1     -21.547  -6.100  -5.070  0.00  0.00     0.230 C 
BRANCH  15  16
HETATM   16  N           1     -22.121  -6.132  -3.684  0.00  0.00    -0.079 N 
HETATM   17  H           1     -23.162  -6.198  -3.739  0.00  0.00     0.274 HD
HETATM   18  H           1     -21.746  -6.961  -3.171  0.00  0.00     0.274 HD
HETATM   19  H           1     -21.854  -5.259  -3.176  0.00  0.00     0.274 HD
ENDBRANCH  15  16
ENDBRANCH  14  15
ENDBRANCH  13  14
ENDBRANCH   1  13
BRANCH   1  20
HETATM   20  N           1     -20.880 -10.235  -5.664  0.00  0.00    -0.067 N 
HETATM   21  H           1     -20.803  -9.571  -6.465  0.00  0.00     0.275 HD
HETATM   22  H           1     -20.302 -11.085  -5.858  0.00  0.00     0.275 HD
HETATM   23  H           1     -21.879 -10.516  -5.539  0.00  0.00     0.275 HD
ENDBRANCH   1  20
TORSDOF 10
ENDMDL
