MODEL 1
REMARK VINA RESULT:      -5.3      0.000      0.000
REMARK  8 active torsions:
REMARK  status: ('A' for Active; 'I' for Inactive)
REMARK    1  A    between atoms: Se_2  and  C_14 
REMARK    2  A    between atoms: N_3  and  C_7 
REMARK       I    between atoms: N_3  and  C_5 
REMARK    3  A    between atoms: N_4  and  C_19 
REMARK    4  A    between atoms: C_5  and  C_19 
REMARK    5  A    between atoms: C_7  and  C_14 
REMARK    6  A    between atoms: C_7  and  C_10 
REMARK    7  A    between atoms: O_16  and  C_18 
REMARK    8  A    between atoms: C_18  and  C_19 
ROOT
HETATM    1  H           1     -35.434  -1.950 -13.772  0.00  0.00     0.163 HD
HETATM    2  N           1     -34.953  -1.598 -12.954  0.00  0.00    -0.345 N 
HETATM    3  C           1     -34.211  -2.448 -12.179  0.00  0.00     0.251 C 
HETATM    4  O           1     -33.636  -2.028 -11.204  0.00  0.00    -0.271 OA
ENDROOT
BRANCH   3   5
HETATM    5  C           1     -34.112  -3.909 -12.543  0.00  0.00     0.302 C 
BRANCH   5   6
HETATM    6  N           1     -32.694  -4.370 -12.379  0.00  0.00    -0.064 N 
HETATM    7  H           1     -32.454  -4.405 -11.362  0.00  0.00     0.275 HD
HETATM    8  H           1     -32.587  -5.323 -12.794  0.00  0.00     0.275 HD
HETATM    9  H           1     -32.053  -3.704 -12.866  0.00  0.00     0.275 HD
ENDBRANCH   5   6
BRANCH   5  10
HETATM   10  C           1     -35.018  -4.723 -11.628  0.00  0.00     0.153 C 
HETATM   11  C           1     -34.171  -5.457 -10.597  0.00  0.00     0.042 C 
BRANCH  10  12
HETATM   12  O           1     -35.913  -3.865 -10.973  0.00  0.00    -0.393 OA
HETATM   13  H           1     -35.977  -3.084 -11.497  0.00  0.00     0.210 HD
ENDBRANCH  10  12
ENDBRANCH   5  10
ENDBRANCH   3   5
BRANCH   2  14
HETATM   14  C           1     -35.048  -0.194 -12.605  0.00  0.00     0.185 C 
BRANCH  14  15
HETATM   15  C           1     -35.081   0.644 -13.877  0.00  0.00     0.039 C 
BRANCH  15  16
HETATM   16 Se           1     -35.658  -0.466 -15.372  0.00  0.00     0.000 Se
HETATM   17  H           1     -36.994   0.143 -15.460  0.00  0.00     0.000 HD
ENDBRANCH  15  16
ENDBRANCH  14  15
BRANCH  14  18
HETATM   18  C           1     -36.311   0.042 -11.814  0.00  0.00     0.196 C 
HETATM   19  O           1     -37.426  -0.138 -12.350  0.00  0.00    -0.646 OA
HETATM   20  O           1     -36.242   0.416 -10.624  0.00  0.00    -0.646 OA
ENDBRANCH  14  18
ENDBRANCH   2  14
TORSDOF 8
ENDMDL
MODEL 2
REMARK VINA RESULT:      -5.1     10.408     11.689
REMARK  8 active torsions:
REMARK  status: ('A' for Active; 'I' for Inactive)
REMARK    1  A    between atoms: Se_2  and  C_14 
REMARK    2  A    between atoms: N_3  and  C_7 
REMARK       I    between atoms: N_3  and  C_5 
REMARK    3  A    between atoms: N_4  and  C_19 
REMARK    4  A    between atoms: C_5  and  C_19 
REMARK    5  A    between atoms: C_7  and  C_14 
REMARK    6  A    between atoms: C_7  and  C_10 
REMARK    7  A    between atoms: O_16  and  C_18 
REMARK    8  A    between atoms: C_18  and  C_19 
ROOT
HETATM    1  H           1     -27.833  -6.671 -20.036  0.00  0.00     0.163 HD
HETATM    2  N           1     -27.635  -6.484 -19.061  0.00  0.00    -0.345 N 
HETATM    3  C           1     -26.339  -6.444 -18.622  0.00  0.00     0.251 C 
HETATM    4  O           1     -26.103  -6.220 -17.459  0.00  0.00    -0.271 OA
ENDROOT
BRANCH   3   5
HETATM    5  C           1     -25.206  -6.679 -19.591  0.00  0.00     0.302 C 
BRANCH   5   6
HETATM    6  N           1     -24.230  -7.647 -18.993  0.00  0.00    -0.064 N 
HETATM    7  H           1     -24.283  -7.596 -17.950  0.00  0.00     0.275 HD
HETATM    8  H           1     -24.465  -8.617 -19.305  0.00  0.00     0.275 HD
HETATM    9  H           1     -23.263  -7.406 -19.305  0.00  0.00     0.275 HD
ENDBRANCH   5   6
BRANCH   5  10
HETATM   10  C           1     -25.759  -7.253 -20.889  0.00  0.00     0.153 C 
HETATM   11  C           1     -24.608  -7.736 -21.760  0.00  0.00     0.042 C 
BRANCH  10  12
HETATM   12  O           1     -26.610  -8.329 -20.599  0.00  0.00    -0.393 OA
HETATM   13  H           1     -26.957  -8.179 -19.736  0.00  0.00     0.210 HD
ENDBRANCH  10  12
ENDBRANCH   5  10
ENDBRANCH   3   5
BRANCH   2  14
HETATM   14  C           1     -28.724  -6.258 -18.131  0.00  0.00     0.185 C 
BRANCH  14  15
HETATM   15  C           1     -29.358  -4.902 -18.411  0.00  0.00     0.039 C 
BRANCH  15  16
HETATM   16 Se           1     -28.719  -3.603 -17.107  0.00  0.00     0.000 Se
HETATM   17  H           1     -28.410  -2.573 -18.111  0.00  0.00     0.000 HD
ENDBRANCH  15  16
ENDBRANCH  14  15
BRANCH  14  18
HETATM   18  C           1     -29.760  -7.343 -18.298  0.00  0.00     0.196 C 
HETATM   19  O           1     -29.512  -8.338 -19.013  0.00  0.00    -0.646 OA
HETATM   20  O           1     -30.864  -7.247 -17.721  0.00  0.00    -0.646 OA
ENDBRANCH  14  18
ENDBRANCH   2  14
TORSDOF 8
ENDMDL
MODEL 3
REMARK VINA RESULT:      -5.1     10.622     11.886
REMARK  8 active torsions:
REMARK  status: ('A' for Active; 'I' for Inactive)
REMARK    1  A    between atoms: Se_2  and  C_14 
REMARK    2  A    between atoms: N_3  and  C_7 
REMARK       I    between atoms: N_3  and  C_5 
REMARK    3  A    between atoms: N_4  and  C_19 
REMARK    4  A    between atoms: C_5  and  C_19 
REMARK    5  A    between atoms: C_7  and  C_14 
REMARK    6  A    between atoms: C_7  and  C_10 
REMARK    7  A    between atoms: O_16  and  C_18 
REMARK    8  A    between atoms: C_18  and  C_19 
ROOT
HETATM    1  H           1     -26.252  -6.641 -17.568  0.00  0.00     0.163 HD
HETATM    2  N           1     -26.851  -6.372 -18.339  0.00  0.00    -0.345 N 
HETATM    3  C           1     -26.365  -6.378 -19.618  0.00  0.00     0.251 C 
HETATM    4  O           1     -27.080  -6.058 -20.537  0.00  0.00    -0.271 OA
ENDROOT
BRANCH   3   5
HETATM    5  C           1     -24.935  -6.785 -19.880  0.00  0.00     0.302 C 
BRANCH   5   6
HETATM    6  N           1     -24.427  -7.594 -18.724  0.00  0.00    -0.064 N 
HETATM    7  H           1     -24.752  -7.165 -17.829  0.00  0.00     0.275 HD
HETATM    8  H           1     -24.793  -8.570 -18.795  0.00  0.00     0.275 HD
HETATM    9  H           1     -23.382  -7.611 -18.743  0.00  0.00     0.275 HD
ENDBRANCH   5   6
BRANCH   5  10
HETATM   10  C           1     -24.869  -7.621 -21.152  0.00  0.00     0.153 C 
HETATM   11  C           1     -23.522  -8.326 -21.226  0.00  0.00     0.042 C 
BRANCH  10  12
HETATM   12  O           1     -25.896  -8.575 -21.137  0.00  0.00    -0.393 OA
HETATM   13  H           1     -25.681  -9.199 -20.464  0.00  0.00     0.210 HD
ENDBRANCH  10  12
ENDBRANCH   5  10
ENDBRANCH   3   5
BRANCH   2  14
HETATM   14  C           1     -28.224  -5.981 -18.086  0.00  0.00     0.185 C 
BRANCH  14  15
HETATM   15  C           1     -28.889  -7.017 -17.188  0.00  0.00     0.039 C 
BRANCH  15  16
HETATM   16 Se           1     -30.814  -7.002 -17.494  0.00  0.00     0.000 Se
HETATM   17  H           1     -30.707  -6.537 -18.886  0.00  0.00     0.000 HD
ENDBRANCH  15  16
ENDBRANCH  14  15
BRANCH  14  18
HETATM   18  C           1     -28.246  -4.635 -17.404  0.00  0.00     0.196 C 
HETATM   19  O           1     -29.075  -3.769 -17.758  0.00  0.00    -0.646 OA
HETATM   20  O           1     -27.436  -4.387 -16.486  0.00  0.00    -0.646 OA
ENDBRANCH  14  18
ENDBRANCH   2  14
TORSDOF 8
ENDMDL
MODEL 4
REMARK VINA RESULT:      -5.0     10.627     12.109
REMARK  8 active torsions:
REMARK  status: ('A' for Active; 'I' for Inactive)
REMARK    1  A    between atoms: Se_2  and  C_14 
REMARK    2  A    between atoms: N_3  and  C_7 
REMARK       I    between atoms: N_3  and  C_5 
REMARK    3  A    between atoms: N_4  and  C_19 
REMARK    4  A    between atoms: C_5  and  C_19 
REMARK    5  A    between atoms: C_7  and  C_14 
REMARK    6  A    between atoms: C_7  and  C_10 
REMARK    7  A    between atoms: O_16  and  C_18 
REMARK    8  A    between atoms: C_18  and  C_19 
ROOT
HETATM    1  H           1     -27.048  -7.911 -18.653  0.00  0.00     0.163 HD
HETATM    2  N           1     -27.297  -7.078 -19.171  0.00  0.00    -0.345 N 
HETATM    3  C           1     -28.198  -6.190 -18.647  0.00  0.00     0.251 C 
HETATM    4  O           1     -28.494  -5.195 -19.264  0.00  0.00    -0.271 OA
ENDROOT
BRANCH   3   5
HETATM    5  C           1     -28.822  -6.455 -17.299  0.00  0.00     0.302 C 
BRANCH   5   6
HETATM    6  N           1     -29.093  -7.924 -17.155  0.00  0.00    -0.064 N 
HETATM    7  H           1     -30.095  -8.069 -16.896  0.00  0.00     0.275 HD
HETATM    8  H           1     -28.895  -8.405 -18.061  0.00  0.00     0.275 HD
HETATM    9  H           1     -28.479  -8.320 -16.408  0.00  0.00     0.275 HD
ENDBRANCH   5   6
BRANCH   5  10
HETATM   10  C           1     -27.868  -6.006 -16.200  0.00  0.00     0.153 C 
HETATM   11  C           1     -27.201  -7.225 -15.578  0.00  0.00     0.042 C 
BRANCH  10  12
HETATM   12  O           1     -26.888  -5.165 -16.747  0.00  0.00    -0.393 OA
HETATM   13  H           1     -26.776  -4.448 -16.145  0.00  0.00     0.210 HD
ENDBRANCH  10  12
ENDBRANCH   5  10
ENDBRANCH   3   5
BRANCH   2  14
HETATM   14  C           1     -26.697  -6.823 -20.466  0.00  0.00     0.185 C 
BRANCH  14  15
HETATM   15  C           1     -25.303  -6.238 -20.273  0.00  0.00     0.039 C 
BRANCH  15  16
HETATM   16 Se           1     -24.467  -7.052 -18.712  0.00  0.00     0.000 Se
HETATM   17  H           1     -24.259  -8.357 -19.359  0.00  0.00     0.000 HD
ENDBRANCH  15  16
ENDBRANCH  14  15
BRANCH  14  18
HETATM   18  C           1     -26.598  -8.117 -21.236  0.00  0.00     0.196 C 
HETATM   19  O           1     -27.610  -8.837 -21.381  0.00  0.00    -0.646 OA
HETATM   20  O           1     -25.505  -8.470 -21.729  0.00  0.00    -0.646 OA
ENDBRANCH  14  18
ENDBRANCH   2  14
TORSDOF 8
ENDMDL
MODEL 5
REMARK VINA RESULT:      -4.9     10.577     12.030
REMARK  8 active torsions:
REMARK  status: ('A' for Active; 'I' for Inactive)
REMARK    1  A    between atoms: Se_2  and  C_14 
REMARK    2  A    between atoms: N_3  and  C_7 
REMARK       I    between atoms: N_3  and  C_5 
REMARK    3  A    between atoms: N_4  and  C_19 
REMARK    4  A    between atoms: C_5  and  C_19 
REMARK    5  A    between atoms: C_7  and  C_14 
REMARK    6  A    between atoms: C_7  and  C_10 
REMARK    7  A    between atoms: O_16  and  C_18 
REMARK    8  A    between atoms: C_18  and  C_19 
ROOT
HETATM    1  H           1     -26.513  -7.560 -18.307  0.00  0.00     0.163 HD
HETATM    2  N           1     -26.901  -6.900 -18.968  0.00  0.00    -0.345 N 
HETATM    3  C           1     -27.990  -6.145 -18.623  0.00  0.00     0.251 C 
HETATM    4  O           1     -28.452  -5.357 -19.413  0.00  0.00    -0.271 OA
ENDROOT
BRANCH   3   5
HETATM    5  C           1     -28.612  -6.298 -17.257  0.00  0.00     0.302 C 
BRANCH   5   6
HETATM    6  N           1     -29.267  -5.009 -16.859  0.00  0.00    -0.064 N 
HETATM    7  H           1     -29.218  -4.899 -15.821  0.00  0.00     0.275 HD
HETATM    8  H           1     -28.772  -4.211 -17.317  0.00  0.00     0.275 HD
HETATM    9  H           1     -30.267  -5.019 -17.162  0.00  0.00     0.275 HD
ENDBRANCH   5   6
BRANCH   5  10
HETATM   10  C           1     -29.656  -7.407 -17.295  0.00  0.00     0.153 C 
HETATM   11  C           1     -31.046  -6.791 -17.385  0.00  0.00     0.042 C 
BRANCH  10  12
HETATM   12  O           1     -29.432  -8.221 -18.414  0.00  0.00    -0.393 OA
HETATM   13  H           1     -29.639  -9.104 -18.156  0.00  0.00     0.210 HD
ENDBRANCH  10  12
ENDBRANCH   5  10
ENDBRANCH   3   5
BRANCH   2  14
HETATM   14  C           1     -26.303  -6.753 -20.281  0.00  0.00     0.185 C 
BRANCH  14  15
HETATM   15  C           1     -24.806  -6.512 -20.132  0.00  0.00     0.039 C 
BRANCH  15  16
HETATM   16 Se           1     -24.232  -7.066 -18.354  0.00  0.00     0.000 Se
HETATM   17  H           1     -22.848  -6.597 -18.528  0.00  0.00     0.000 HD
ENDBRANCH  15  16
ENDBRANCH  14  15
BRANCH  14  18
HETATM   18  C           1     -26.533  -8.012 -21.081  0.00  0.00     0.196 C 
HETATM   19  O           1     -25.613  -8.482 -21.785  0.00  0.00    -0.646 OA
HETATM   20  O           1     -27.643  -8.585 -21.038  0.00  0.00    -0.646 OA
ENDBRANCH  14  18
ENDBRANCH   2  14
TORSDOF 8
ENDMDL
MODEL 6
REMARK VINA RESULT:      -4.6      9.260     11.028
REMARK  8 active torsions:
REMARK  status: ('A' for Active; 'I' for Inactive)
REMARK    1  A    between atoms: Se_2  and  C_14 
REMARK    2  A    between atoms: N_3  and  C_7 
REMARK       I    between atoms: N_3  and  C_5 
REMARK    3  A    between atoms: N_4  and  C_19 
REMARK    4  A    between atoms: C_5  and  C_19 
REMARK    5  A    between atoms: C_7  and  C_14 
REMARK    6  A    between atoms: C_7  and  C_10 
REMARK    7  A    between atoms: O_16  and  C_18 
REMARK    8  A    between atoms: C_18  and  C_19 
ROOT
HETATM    1  H           1     -26.558  -5.530 -18.683  0.00  0.00     0.163 HD
HETATM    2  N           1     -26.776  -6.217 -17.972  0.00  0.00    -0.345 N 
HETATM    3  C           1     -28.058  -6.339 -17.508  0.00  0.00     0.251 C 
HETATM    4  O           1     -28.318  -7.160 -16.661  0.00  0.00    -0.271 OA
ENDROOT
BRANCH   3   5
HETATM    5  C           1     -29.146  -5.448 -18.055  0.00  0.00     0.302 C 
BRANCH   5   6
HETATM    6  N           1     -30.474  -5.896 -17.522  0.00  0.00    -0.064 N 
HETATM    7  H           1     -31.068  -6.239 -18.310  0.00  0.00     0.275 HD
HETATM    8  H           1     -30.330  -6.670 -16.834  0.00  0.00     0.275 HD
HETATM    9  H           1     -30.949  -5.094 -17.050  0.00  0.00     0.275 HD
ENDBRANCH   5   6
BRANCH   5  10
HETATM   10  C           1     -28.888  -4.009 -17.627  0.00  0.00     0.153 C 
HETATM   11  C           1     -30.217  -3.303 -17.395  0.00  0.00     0.042 C 
BRANCH  10  12
HETATM   12  O           1     -28.141  -4.002 -16.440  0.00  0.00    -0.393 OA
HETATM   13  H           1     -27.231  -3.997 -16.689  0.00  0.00     0.210 HD
ENDBRANCH  10  12
ENDBRANCH   5  10
ENDBRANCH   3   5
BRANCH   2  14
HETATM   14  C           1     -25.730  -7.073 -17.447  0.00  0.00     0.185 C 
BRANCH  14  15
HETATM   15  C           1     -24.505  -6.989 -18.349  0.00  0.00     0.039 C 
BRANCH  15  16
HETATM   16 Se           1     -25.069  -7.015 -20.215  0.00  0.00     0.000 Se
HETATM   17  H           1     -25.999  -5.884 -20.071  0.00  0.00     0.000 HD
ENDBRANCH  15  16
ENDBRANCH  14  15
BRANCH  14  18
HETATM   18  C           1     -25.362  -6.621 -16.055  0.00  0.00     0.196 C 
HETATM   19  O           1     -25.395  -7.433 -15.105  0.00  0.00    -0.646 OA
HETATM   20  O           1     -25.025  -5.435 -15.852  0.00  0.00    -0.646 OA
ENDBRANCH  14  18
ENDBRANCH   2  14
TORSDOF 8
ENDMDL
MODEL 7
REMARK VINA RESULT:      -4.4     13.476     15.310
REMARK  8 active torsions:
REMARK  status: ('A' for Active; 'I' for Inactive)
REMARK    1  A    between atoms: Se_2  and  C_14 
REMARK    2  A    between atoms: N_3  and  C_7 
REMARK       I    between atoms: N_3  and  C_5 
REMARK    3  A    between atoms: N_4  and  C_19 
REMARK    4  A    between atoms: C_5  and  C_19 
REMARK    5  A    between atoms: C_7  and  C_14 
REMARK    6  A    between atoms: C_7  and  C_10 
REMARK    7  A    between atoms: O_16  and  C_18 
REMARK    8  A    between atoms: C_18  and  C_19 
ROOT
HETATM    1  H           1     -21.964  -6.157  -8.006  0.00  0.00     0.163 HD
HETATM    2  N           1     -21.617  -5.478  -7.340  0.00  0.00    -0.345 N 
HETATM    3  C           1     -21.602  -4.148  -7.664  0.00  0.00     0.251 C 
HETATM    4  O           1     -21.189  -3.338  -6.869  0.00  0.00    -0.271 OA
ENDROOT
BRANCH   3   5
HETATM    5  C           1     -22.101  -3.694  -9.014  0.00  0.00     0.302 C 
BRANCH   5   6
HETATM    6  N           1     -21.545  -4.592 -10.079  0.00  0.00    -0.064 N 
HETATM    7  H           1     -22.156  -4.548 -10.926  0.00  0.00     0.275 HD
HETATM    8  H           1     -20.581  -4.279 -10.331  0.00  0.00     0.275 HD
HETATM    9  H           1     -21.511  -5.574  -9.724  0.00  0.00     0.275 HD
ENDBRANCH   5   6
BRANCH   5  10
HETATM   10  C           1     -23.622  -3.756  -9.041  0.00  0.00     0.153 C 
HETATM   11  C           1     -24.070  -4.761 -10.095  0.00  0.00     0.042 C 
BRANCH  10  12
HETATM   12  O           1     -24.096  -4.156  -7.783  0.00  0.00    -0.393 OA
HETATM   13  H           1     -23.642  -3.635  -7.142  0.00  0.00     0.210 HD
ENDBRANCH  10  12
ENDBRANCH   5  10
ENDBRANCH   3   5
BRANCH   2  14
HETATM   14  C           1     -21.138  -5.915  -6.043  0.00  0.00     0.185 C 
BRANCH  14  15
HETATM   15  C           1     -22.325  -6.281  -5.162  0.00  0.00     0.039 C 
BRANCH  15  16
HETATM   16 Se           1     -21.765  -6.304  -3.295  0.00  0.00     0.000 Se
HETATM   17  H           1     -20.386  -6.723  -3.593  0.00  0.00     0.000 HD
ENDBRANCH  15  16
ENDBRANCH  14  15
BRANCH  14  18
HETATM   18  C           1     -20.248  -7.121  -6.217  0.00  0.00     0.196 C 
HETATM   19  O           1     -20.598  -8.227  -5.751  0.00  0.00    -0.646 OA
HETATM   20  O           1     -19.163  -7.014  -6.828  0.00  0.00    -0.646 OA
ENDBRANCH  14  18
ENDBRANCH   2  14
TORSDOF 8
ENDMDL
MODEL 8
REMARK VINA RESULT:      -4.4     13.498     15.320
REMARK  8 active torsions:
REMARK  status: ('A' for Active; 'I' for Inactive)
REMARK    1  A    between atoms: Se_2  and  C_14 
REMARK    2  A    between atoms: N_3  and  C_7 
REMARK       I    between atoms: N_3  and  C_5 
REMARK    3  A    between atoms: N_4  and  C_19 
REMARK    4  A    between atoms: C_5  and  C_19 
REMARK    5  A    between atoms: C_7  and  C_14 
REMARK    6  A    between atoms: C_7  and  C_10 
REMARK    7  A    between atoms: O_16  and  C_18 
REMARK    8  A    between atoms: C_18  and  C_19 
ROOT
HETATM    1  H           1     -22.615  -6.351  -7.556  0.00  0.00     0.163 HD
HETATM    2  N           1     -22.183  -5.527  -7.158  0.00  0.00    -0.345 N 
HETATM    3  C           1     -22.295  -4.320  -7.796  0.00  0.00     0.251 C 
HETATM    4  O           1     -21.779  -3.337  -7.321  0.00  0.00    -0.271 OA
ENDROOT
BRANCH   3   5
HETATM    5  C           1     -23.062  -4.220  -9.092  0.00  0.00     0.302 C 
BRANCH   5   6
HETATM    6  N           1     -24.288  -3.383  -8.882  0.00  0.00    -0.064 N 
HETATM    7  H           1     -24.697  -3.125  -9.808  0.00  0.00     0.275 HD
HETATM    8  H           1     -24.991  -3.927  -8.332  0.00  0.00     0.275 HD
HETATM    9  H           1     -24.033  -2.515  -8.359  0.00  0.00     0.275 HD
ENDBRANCH   5   6
BRANCH   5  10
HETATM   10  C           1     -22.183  -3.573 -10.154  0.00  0.00     0.153 C 
HETATM   11  C           1     -20.928  -4.413 -10.355  0.00  0.00     0.042 C 
BRANCH  10  12
HETATM   12  O           1     -22.890  -3.493 -11.362  0.00  0.00    -0.393 OA
HETATM   13  H           1     -23.582  -4.132 -11.316  0.00  0.00     0.210 HD
ENDBRANCH  10  12
ENDBRANCH   5  10
ENDBRANCH   3   5
BRANCH   2  14
HETATM   14  C           1     -21.446  -5.624  -5.913  0.00  0.00     0.185 C 
BRANCH  14  15
HETATM   15  C           1     -22.174  -6.568  -4.966  0.00  0.00     0.039 C 
BRANCH  15  16
HETATM   16 Se           1     -21.519  -6.300  -3.150  0.00  0.00     0.000 Se
HETATM   17  H           1     -21.775  -4.851  -3.147  0.00  0.00     0.000 HD
ENDBRANCH  15  16
ENDBRANCH  14  15
BRANCH  14  18
HETATM   18  C           1     -20.062  -6.157  -6.190  0.00  0.00     0.196 C 
HETATM   19  O           1     -19.809  -7.367  -6.002  0.00  0.00    -0.646 OA
HETATM   20  O           1     -19.169  -5.390  -6.608  0.00  0.00    -0.646 OA
ENDBRANCH  14  18
ENDBRANCH   2  14
TORSDOF 8
ENDMDL
MODEL 9
REMARK VINA RESULT:      -4.3     14.671     16.514
REMARK  8 active torsions:
REMARK  status: ('A' for Active; 'I' for Inactive)
REMARK    1  A    between atoms: Se_2  and  C_14 
REMARK    2  A    between atoms: N_3  and  C_7 
REMARK       I    between atoms: N_3  and  C_5 
REMARK    3  A    between atoms: N_4  and  C_19 
REMARK    4  A    between atoms: C_5  and  C_19 
REMARK    5  A    between atoms: C_7  and  C_14 
REMARK    6  A    between atoms: C_7  and  C_10 
REMARK    7  A    between atoms: O_16  and  C_18 
REMARK    8  A    between atoms: C_18  and  C_19 
ROOT
HETATM    1  H           1     -20.812  -5.001  -4.254  0.00  0.00     0.163 HD
HETATM    2  N           1     -21.002  -5.808  -4.833  0.00  0.00    -0.345 N 
HETATM    3  C           1     -20.935  -5.703  -6.197  0.00  0.00     0.251 C 
HETATM    4  O           1     -21.161  -6.667  -6.888  0.00  0.00    -0.271 OA
ENDROOT
BRANCH   3   5
HETATM    5  C           1     -20.580  -4.383  -6.835  0.00  0.00     0.302 C 
BRANCH   5   6
HETATM    6  N           1     -19.557  -4.607  -7.909  0.00  0.00    -0.064 N 
HETATM    7  H           1     -19.862  -4.127  -8.786  0.00  0.00     0.275 HD
HETATM    8  H           1     -18.638  -4.217  -7.601  0.00  0.00     0.275 HD
HETATM    9  H           1     -19.459  -5.632  -8.088  0.00  0.00     0.275 HD
ENDBRANCH   5   6
BRANCH   5  10
HETATM   10  C           1     -21.828  -3.761  -7.446  0.00  0.00     0.153 C 
HETATM   11  C           1     -21.837  -4.012  -8.948  0.00  0.00     0.042 C 
BRANCH  10  12
HETATM   12  O           1     -22.969  -4.339  -6.869  0.00  0.00    -0.393 OA
HETATM   13  H           1     -22.984  -4.071  -5.966  0.00  0.00     0.210 HD
ENDBRANCH  10  12
ENDBRANCH   5  10
ENDBRANCH   3   5
BRANCH   2  14
HETATM   14  C           1     -21.343  -7.077  -4.219  0.00  0.00     0.185 C 
BRANCH  14  15
HETATM   15  C           1     -20.147  -8.017  -4.299  0.00  0.00     0.039 C 
BRANCH  15  16
HETATM   16 Se           1     -20.735  -9.764  -4.932  0.00  0.00     0.000 Se
HETATM   17  H           1     -21.974  -9.255  -5.541  0.00  0.00     0.000 HD
ENDBRANCH  15  16
ENDBRANCH  14  15
BRANCH  14  18
HETATM   18  C           1     -21.711  -6.851  -2.773  0.00  0.00     0.196 C 
HETATM   19  O           1     -21.280  -7.624  -1.890  0.00  0.00    -0.646 OA
HETATM   20  O           1     -22.446  -5.891  -2.458  0.00  0.00    -0.646 OA
ENDBRANCH  14  18
ENDBRANCH   2  14
TORSDOF 8
ENDMDL
