MODEL 1
REMARK VINA RESULT:      -7.5      0.000      0.000
REMARK  10 active torsions:
REMARK  status: ('A' for Active; 'I' for Inactive)
REMARK    1  A    between atoms: C_3  and  C_13 
REMARK    2  A    between atoms: C_3  and  C_20 
REMARK    3  A    between atoms: C_4  and  C_22 
REMARK    4  A    between atoms: C_4  and  O_5 
REMARK    5  A    between atoms: O_5  and  P_10 
REMARK    6  A    between atoms: N_6  and  C_13 
REMARK    7  A    between atoms: P_10  and  O_11 
REMARK    8  A    between atoms: C_13  and  C_19 
REMARK    9  A    between atoms: C_16  and  C_22 
REMARK   10  A    between atoms: N_18  and  C_22 
REMARK       I    between atoms: N_18  and  C_19 
ROOT
HETATM    1  C           1     -20.998  -6.712  -4.549  0.00  0.00     0.278 C 
ENDROOT
BRANCH   1   2
HETATM    2  C           1     -21.988  -7.760  -4.057  0.00  0.00     0.083 C 
BRANCH   2   3
HETATM    3  C           1     -21.364  -8.560  -2.956  0.00  0.00    -0.028 A 
HETATM    4  C           1     -21.582  -8.382  -1.563  0.00  0.00    -0.002 A 
HETATM    5  C           1     -20.807  -9.335  -0.900  0.00  0.00     0.042 A 
HETATM    6  C           1     -22.368  -7.498  -0.798  0.00  0.00     0.014 A 
HETATM    7  N           1     -20.146 -10.060  -1.866  0.00  0.00    -0.365 N 
HETATM    8  C           1     -20.779  -9.448   0.495  0.00  0.00     0.030 A 
HETATM    9  H           1     -19.485 -10.853  -1.673  0.00  0.00     0.165 HD
HETATM   10  C           1     -20.476  -9.599  -3.113  0.00  0.00     0.096 A 
HETATM   11  C           1     -21.568  -8.559   1.231  0.00  0.00     0.002 A 
HETATM   12  C           1     -22.352  -7.598   0.598  0.00  0.00     0.001 A 
ENDBRANCH   2   3
ENDBRANCH   1   2
BRANCH   1  13
HETATM   13  N           1     -21.207  -5.434  -3.794  0.00  0.00    -0.066 N 
HETATM   14  H           1     -22.006  -5.547  -3.130  0.00  0.00     0.275 HD
HETATM   15  H           1     -20.340  -5.200  -3.259  0.00  0.00     0.275 HD
HETATM   16  H           1     -21.421  -4.663  -4.467  0.00  0.00     0.275 HD
ENDBRANCH   1  13
BRANCH   1  17
HETATM   17  C           1     -21.214  -6.468  -6.023  0.00  0.00     0.249 C 
HETATM   18  O           1     -21.348  -7.402  -6.777  0.00  0.00    -0.271 OA
HETATM   19  N           1     -21.258  -5.187  -6.504  0.00  0.00    -0.343 N 
HETATM   20  H           1     -21.145  -4.405  -5.873  0.00  0.00     0.163 HD
BRANCH  19  21
HETATM   21  C           1     -21.466  -4.952  -7.920  0.00  0.00     0.210 C 
BRANCH  21  22
HETATM   22  C           1     -22.390  -3.755  -8.105  0.00  0.00     0.217 C 
BRANCH  22  23
HETATM   23  O           1     -23.598  -4.181  -8.673  0.00  0.00    -0.287 OA
BRANCH  23  24
HETATM   24  P           1     -23.750  -3.956 -10.265  0.00  0.00     0.406 P 
HETATM   25  O           1     -25.007  -3.227 -10.544  0.00  0.00    -0.624 OA
HETATM   26  O           1     -23.779  -5.270 -10.948  0.00  0.00    -0.624 OA
BRANCH  24  27
HETATM   27  O           1     -22.497  -3.095 -10.810  0.00  0.00    -0.300 OA
HETATM   28  H           1     -22.862  -2.264 -11.061  0.00  0.00     0.223 HD
ENDBRANCH  24  27
ENDBRANCH  23  24
ENDBRANCH  22  23
ENDBRANCH  21  22
BRANCH  21  29
HETATM   29  C           1     -20.140  -4.671  -8.584  0.00  0.00     0.198 C 
HETATM   30  O           1     -20.055  -4.670  -9.831  0.00  0.00    -0.646 OA
HETATM   31  O           1     -19.129  -4.440  -7.888  0.00  0.00    -0.646 OA
ENDBRANCH  21  29
ENDBRANCH  19  21
ENDBRANCH   1  17
TORSDOF 10
ENDMDL
MODEL 2
REMARK VINA RESULT:      -7.3      4.441      8.508
REMARK  10 active torsions:
REMARK  status: ('A' for Active; 'I' for Inactive)
REMARK    1  A    between atoms: C_3  and  C_13 
REMARK    2  A    between atoms: C_3  and  C_20 
REMARK    3  A    between atoms: C_4  and  C_22 
REMARK    4  A    between atoms: C_4  and  O_5 
REMARK    5  A    between atoms: O_5  and  P_10 
REMARK    6  A    between atoms: N_6  and  C_13 
REMARK    7  A    between atoms: P_10  and  O_11 
REMARK    8  A    between atoms: C_13  and  C_19 
REMARK    9  A    between atoms: C_16  and  C_22 
REMARK   10  A    between atoms: N_18  and  C_22 
REMARK       I    between atoms: N_18  and  C_19 
ROOT
HETATM    1  C           1     -21.722  -6.495  -5.334  0.00  0.00     0.278 C 
ENDROOT
BRANCH   1   2
HETATM    2  C           1     -20.962  -5.443  -6.130  0.00  0.00     0.083 C 
BRANCH   2   3
HETATM    3  C           1     -21.857  -4.870  -7.185  0.00  0.00    -0.028 A 
HETATM    4  C           1     -21.487  -4.571  -8.525  0.00  0.00    -0.002 A 
HETATM    5  C           1     -22.620  -4.057  -9.159  0.00  0.00     0.042 A 
HETATM    6  C           1     -20.293  -4.688  -9.263  0.00  0.00     0.014 A 
HETATM    7  N           1     -23.634  -4.049  -8.228  0.00  0.00    -0.365 N 
HETATM    8  C           1     -22.618  -3.654 -10.499  0.00  0.00     0.030 A 
HETATM    9  H           1     -24.613  -3.716  -8.411  0.00  0.00     0.165 HD
HETATM   10  C           1     -23.183  -4.539  -7.031  0.00  0.00     0.096 A 
HETATM   11  C           1     -21.420  -3.780 -11.211  0.00  0.00     0.002 A 
HETATM   12  C           1     -20.274  -4.290 -10.605  0.00  0.00     0.001 A 
ENDBRANCH   2   3
ENDBRANCH   1   2
BRANCH   1  13
HETATM   13  N           1     -21.936  -6.003  -3.934  0.00  0.00    -0.066 N 
HETATM   14  H           1     -22.795  -6.445  -3.535  0.00  0.00     0.275 HD
HETATM   15  H           1     -21.109  -6.257  -3.346  0.00  0.00     0.275 HD
HETATM   16  H           1     -22.051  -4.964  -3.944  0.00  0.00     0.275 HD
ENDBRANCH   1  13
BRANCH   1  17
HETATM   17  C           1     -20.926  -7.776  -5.301  0.00  0.00     0.249 C 
HETATM   18  O           1     -19.889  -7.858  -5.915  0.00  0.00    -0.271 OA
HETATM   19  N           1     -21.379  -8.845  -4.575  0.00  0.00    -0.343 N 
HETATM   20  H           1     -22.248  -8.776  -4.062  0.00  0.00     0.163 HD
BRANCH  19  21
HETATM   21  C           1     -20.613 -10.076  -4.544  0.00  0.00     0.210 C 
BRANCH  21  22
HETATM   22  C           1     -20.595 -10.626  -3.123  0.00  0.00     0.217 C 
BRANCH  22  23
HETATM   23  O           1     -20.298  -9.591  -2.226  0.00  0.00    -0.287 OA
BRANCH  23  24
HETATM   24  P           1     -21.490  -9.157  -1.227  0.00  0.00     0.406 P 
HETATM   25  O           1     -21.955  -7.795  -1.574  0.00  0.00    -0.624 OA
HETATM   26  O           1     -20.993  -9.168   0.168  0.00  0.00    -0.624 OA
BRANCH  24  27
HETATM   27  O           1     -22.718 -10.197  -1.369  0.00  0.00    -0.300 OA
HETATM   28  H           1     -22.382 -11.017  -1.051  0.00  0.00     0.223 HD
ENDBRANCH  24  27
ENDBRANCH  23  24
ENDBRANCH  22  23
ENDBRANCH  21  22
BRANCH  21  29
HETATM   29  C           1     -21.248 -11.088  -5.465  0.00  0.00     0.198 C 
HETATM   30  O           1     -20.847 -11.197  -6.644  0.00  0.00    -0.646 OA
HETATM   31  O           1     -22.175 -11.817  -5.051  0.00  0.00    -0.646 OA
ENDBRANCH  21  29
ENDBRANCH  19  21
ENDBRANCH   1  17
TORSDOF 10
ENDMDL
MODEL 3
REMARK VINA RESULT:      -7.3      1.353      1.909
REMARK  10 active torsions:
REMARK  status: ('A' for Active; 'I' for Inactive)
REMARK    1  A    between atoms: C_3  and  C_13 
REMARK    2  A    between atoms: C_3  and  C_20 
REMARK    3  A    between atoms: C_4  and  C_22 
REMARK    4  A    between atoms: C_4  and  O_5 
REMARK    5  A    between atoms: O_5  and  P_10 
REMARK    6  A    between atoms: N_6  and  C_13 
REMARK    7  A    between atoms: P_10  and  O_11 
REMARK    8  A    between atoms: C_13  and  C_19 
REMARK    9  A    between atoms: C_16  and  C_22 
REMARK   10  A    between atoms: N_18  and  C_22 
REMARK       I    between atoms: N_18  and  C_19 
ROOT
HETATM    1  C           1     -21.035  -6.621  -4.393  0.00  0.00     0.278 C 
ENDROOT
BRANCH   1   2
HETATM    2  C           1     -20.696  -8.080  -4.118  0.00  0.00     0.083 C 
BRANCH   2   3
HETATM    3  C           1     -20.996  -8.403  -2.687  0.00  0.00    -0.028 A 
HETATM    4  C           1     -21.835  -9.452  -2.223  0.00  0.00    -0.002 A 
HETATM    5  C           1     -21.834  -9.394  -0.828  0.00  0.00     0.042 A 
HETATM    6  C           1     -22.600 -10.451  -2.858  0.00  0.00     0.014 A 
HETATM    7  N           1     -21.020  -8.342  -0.470  0.00  0.00    -0.365 N 
HETATM    8  C           1     -22.562 -10.287  -0.034  0.00  0.00     0.030 A 
HETATM    9  H           1     -20.820  -8.049   0.518  0.00  0.00     0.165 HD
HETATM   10  C           1     -20.508  -7.737  -1.587  0.00  0.00     0.096 A 
HETATM   11  C           1     -23.312 -11.269  -0.688  0.00  0.00     0.002 A 
HETATM   12  C           1     -23.333 -11.353  -2.078  0.00  0.00     0.001 A 
ENDBRANCH   2   3
ENDBRANCH   1   2
BRANCH   1  13
HETATM   13  N           1     -22.324  -6.271  -3.710  0.00  0.00    -0.066 N 
HETATM   14  H           1     -22.373  -6.757  -2.786  0.00  0.00     0.275 HD
HETATM   15  H           1     -22.370  -5.237  -3.561  0.00  0.00     0.275 HD
HETATM   16  H           1     -23.127  -6.575  -4.306  0.00  0.00     0.275 HD
ENDBRANCH   1  13
BRANCH   1  17
HETATM   17  C           1     -21.180  -6.408  -5.880  0.00  0.00     0.249 C 
HETATM   18  O           1     -21.199  -7.357  -6.627  0.00  0.00    -0.271 OA
HETATM   19  N           1     -21.288  -5.138  -6.381  0.00  0.00    -0.343 N 
HETATM   20  H           1     -21.271  -4.344  -5.756  0.00  0.00     0.163 HD
BRANCH  19  21
HETATM   21  C           1     -21.427  -4.934  -7.810  0.00  0.00     0.210 C 
BRANCH  21  22
HETATM   22  C           1     -22.312  -3.720  -8.065  0.00  0.00     0.217 C 
BRANCH  22  23
HETATM   23  O           1     -23.579  -4.145  -8.489  0.00  0.00    -0.287 OA
BRANCH  23  24
HETATM   24  P           1     -23.885  -3.994 -10.067  0.00  0.00     0.406 P 
HETATM   25  O           1     -23.934  -5.335 -10.692  0.00  0.00    -0.624 OA
HETATM   26  O           1     -22.815  -3.193 -10.702  0.00  0.00    -0.624 OA
BRANCH  24  27
HETATM   27  O           1     -25.306  -3.254 -10.271  0.00  0.00    -0.300 OA
HETATM   28  H           1     -25.249  -2.469  -9.754  0.00  0.00     0.223 HD
ENDBRANCH  24  27
ENDBRANCH  23  24
ENDBRANCH  22  23
ENDBRANCH  21  22
BRANCH  21  29
HETATM   29  C           1     -20.067  -4.701  -8.421  0.00  0.00     0.198 C 
HETATM   30  O           1     -19.912  -4.806  -9.657  0.00  0.00    -0.646 OA
HETATM   31  O           1     -19.097  -4.404  -7.691  0.00  0.00    -0.646 OA
ENDBRANCH  21  29
ENDBRANCH  19  21
ENDBRANCH   1  17
TORSDOF 10
ENDMDL
MODEL 4
REMARK VINA RESULT:      -7.1      4.262      8.369
REMARK  10 active torsions:
REMARK  status: ('A' for Active; 'I' for Inactive)
REMARK    1  A    between atoms: C_3  and  C_13 
REMARK    2  A    between atoms: C_3  and  C_20 
REMARK    3  A    between atoms: C_4  and  C_22 
REMARK    4  A    between atoms: C_4  and  O_5 
REMARK    5  A    between atoms: O_5  and  P_10 
REMARK    6  A    between atoms: N_6  and  C_13 
REMARK    7  A    between atoms: P_10  and  O_11 
REMARK    8  A    between atoms: C_13  and  C_19 
REMARK    9  A    between atoms: C_16  and  C_22 
REMARK   10  A    between atoms: N_18  and  C_22 
REMARK       I    between atoms: N_18  and  C_19 
ROOT
HETATM    1  C           1     -21.796  -6.641  -5.109  0.00  0.00     0.278 C 
ENDROOT
BRANCH   1   2
HETATM    2  C           1     -20.932  -5.802  -6.041  0.00  0.00     0.083 C 
BRANCH   2   3
HETATM    3  C           1     -21.804  -5.108  -7.041  0.00  0.00    -0.028 A 
HETATM    4  C           1     -21.428  -4.727  -8.358  0.00  0.00    -0.002 A 
HETATM    5  C           1     -22.537  -4.112  -8.941  0.00  0.00     0.042 A 
HETATM    6  C           1     -20.246  -4.848  -9.115  0.00  0.00     0.014 A 
HETATM    7  N           1     -23.544  -4.123  -8.002  0.00  0.00    -0.365 N 
HETATM    8  C           1     -22.523  -3.609 -10.247  0.00  0.00     0.030 A 
HETATM    9  H           1     -24.506  -3.729  -8.149  0.00  0.00     0.165 HD
HETATM   10  C           1     -23.111  -4.724  -6.849  0.00  0.00     0.096 A 
HETATM   11  C           1     -21.338  -3.741 -10.978  0.00  0.00     0.002 A 
HETATM   12  C           1     -20.216  -4.351 -10.423  0.00  0.00     0.001 A 
ENDBRANCH   2   3
ENDBRANCH   1   2
BRANCH   1  13
HETATM   13  N           1     -21.930  -5.943  -3.789  0.00  0.00    -0.066 N 
HETATM   14  H           1     -21.156  -6.245  -3.154  0.00  0.00     0.275 HD
HETATM   15  H           1     -21.876  -4.909  -3.934  0.00  0.00     0.275 HD
HETATM   16  H           1     -22.850  -6.188  -3.357  0.00  0.00     0.275 HD
ENDBRANCH   1  13
BRANCH   1  17
HETATM   17  C           1     -21.152  -7.990  -4.902  0.00  0.00     0.249 C 
HETATM   18  O           1     -21.165  -8.808  -5.790  0.00  0.00    -0.271 OA
HETATM   19  N           1     -20.551  -8.286  -3.708  0.00  0.00    -0.343 N 
HETATM   20  H           1     -20.541  -7.600  -2.964  0.00  0.00     0.163 HD
BRANCH  19  21
HETATM   21  C           1     -19.932  -9.582  -3.509  0.00  0.00     0.210 C 
BRANCH  21  22
HETATM   22  C           1     -18.432  -9.470  -3.754  0.00  0.00     0.217 C 
BRANCH  22  23
HETATM   23  O           1     -17.975 -10.629  -4.394  0.00  0.00    -0.287 OA
BRANCH  23  24
HETATM   24  P           1     -18.012 -10.608  -6.008  0.00  0.00     0.406 P 
HETATM   25  O           1     -16.902 -11.432  -6.539  0.00  0.00    -0.624 OA
HETATM   26  O           1     -17.865  -9.215  -6.487  0.00  0.00    -0.624 OA
BRANCH  24  27
HETATM   27  O           1     -19.420 -11.209  -6.522  0.00  0.00    -0.300 OA
HETATM   28  H           1     -19.755 -11.703  -5.795  0.00  0.00     0.223 HD
ENDBRANCH  24  27
ENDBRANCH  23  24
ENDBRANCH  22  23
ENDBRANCH  21  22
BRANCH  21  29
HETATM   29  C           1     -20.176 -10.046  -2.095  0.00  0.00     0.198 C 
HETATM   30  O           1     -19.325 -10.755  -1.514  0.00  0.00    -0.646 OA
HETATM   31  O           1     -21.229  -9.724  -1.504  0.00  0.00    -0.646 OA
ENDBRANCH  21  29
ENDBRANCH  19  21
ENDBRANCH   1  17
TORSDOF 10
ENDMDL
MODEL 5
REMARK VINA RESULT:      -7.0      4.666      8.922
REMARK  10 active torsions:
REMARK  status: ('A' for Active; 'I' for Inactive)
REMARK    1  A    between atoms: C_3  and  C_13 
REMARK    2  A    between atoms: C_3  and  C_20 
REMARK    3  A    between atoms: C_4  and  C_22 
REMARK    4  A    between atoms: C_4  and  O_5 
REMARK    5  A    between atoms: O_5  and  P_10 
REMARK    6  A    between atoms: N_6  and  C_13 
REMARK    7  A    between atoms: P_10  and  O_11 
REMARK    8  A    between atoms: C_13  and  C_19 
REMARK    9  A    between atoms: C_16  and  C_22 
REMARK   10  A    between atoms: N_18  and  C_22 
REMARK       I    between atoms: N_18  and  C_19 
ROOT
HETATM    1  C           1     -21.303  -6.056  -5.409  0.00  0.00     0.278 C 
ENDROOT
BRANCH   1   2
HETATM    2  C           1     -20.860  -4.813  -6.169  0.00  0.00     0.083 C 
BRANCH   2   3
HETATM    3  C           1     -21.829  -4.531  -7.275  0.00  0.00    -0.028 A 
HETATM    4  C           1     -21.509  -4.382  -8.652  0.00  0.00    -0.002 A 
HETATM    5  C           1     -22.704  -4.130  -9.328  0.00  0.00     0.042 A 
HETATM    6  C           1     -20.312  -4.436  -9.392  0.00  0.00     0.014 A 
HETATM    7  N           1     -23.708  -4.129  -8.384  0.00  0.00    -0.365 N 
HETATM    8  C           1     -22.762  -3.929 -10.711  0.00  0.00     0.030 A 
HETATM    9  H           1     -24.724  -3.966  -8.591  0.00  0.00     0.165 HD
HETATM   10  C           1     -23.189  -4.371  -7.140  0.00  0.00     0.096 A 
HETATM   11  C           1     -21.560  -3.989 -11.424  0.00  0.00     0.002 A 
HETATM   12  C           1     -20.352  -4.238 -10.778  0.00  0.00     0.001 A 
ENDBRANCH   2   3
ENDBRANCH   1   2
BRANCH   1  13
HETATM   13  N           1     -21.339  -5.757  -3.940  0.00  0.00    -0.066 N 
HETATM   14  H           1     -22.024  -6.391  -3.471  0.00  0.00     0.275 HD
HETATM   15  H           1     -20.389  -5.907  -3.531  0.00  0.00     0.275 HD
HETATM   16  H           1     -21.629  -4.763  -3.795  0.00  0.00     0.275 HD
ENDBRANCH   1  13
BRANCH   1  17
HETATM   17  C           1     -20.329  -7.180  -5.670  0.00  0.00     0.249 C 
HETATM   18  O           1     -19.603  -7.138  -6.633  0.00  0.00    -0.271 OA
HETATM   19  N           1     -20.271  -8.247  -4.813  0.00  0.00    -0.343 N 
HETATM   20  H           1     -20.880  -8.282  -4.007  0.00  0.00     0.163 HD
BRANCH  19  21
HETATM   21  C           1     -19.335  -9.326  -5.064  0.00  0.00     0.210 C 
BRANCH  21  22
HETATM   22  C           1     -18.541  -9.613  -3.796  0.00  0.00     0.217 C 
BRANCH  22  23
HETATM   23  O           1     -17.383 -10.332  -4.122  0.00  0.00    -0.287 OA
BRANCH  23  24
HETATM   24  P           1     -16.300 -10.506  -2.937  0.00  0.00     0.406 P 
HETATM   25  O           1     -15.694  -9.192  -2.625  0.00  0.00    -0.624 OA
HETATM   26  O           1     -15.243 -11.447  -3.370  0.00  0.00    -0.624 OA
BRANCH  24  27
HETATM   27  O           1     -17.032 -11.087  -1.620  0.00  0.00    -0.300 OA
HETATM   28  H           1     -17.706 -10.461  -1.419  0.00  0.00     0.223 HD
ENDBRANCH  24  27
ENDBRANCH  23  24
ENDBRANCH  22  23
ENDBRANCH  21  22
BRANCH  21  29
HETATM   29  C           1     -20.093 -10.565  -5.472  0.00  0.00     0.198 C 
HETATM   30  O           1     -21.057 -10.964  -4.783  0.00  0.00    -0.646 OA
HETATM   31  O           1     -19.757 -11.193  -6.499  0.00  0.00    -0.646 OA
ENDBRANCH  21  29
ENDBRANCH  19  21
ENDBRANCH   1  17
TORSDOF 10
ENDMDL
MODEL 6
REMARK VINA RESULT:      -7.0      3.824      8.297
REMARK  10 active torsions:
REMARK  status: ('A' for Active; 'I' for Inactive)
REMARK    1  A    between atoms: C_3  and  C_13 
REMARK    2  A    between atoms: C_3  and  C_20 
REMARK    3  A    between atoms: C_4  and  C_22 
REMARK    4  A    between atoms: C_4  and  O_5 
REMARK    5  A    between atoms: O_5  and  P_10 
REMARK    6  A    between atoms: N_6  and  C_13 
REMARK    7  A    between atoms: P_10  and  O_11 
REMARK    8  A    between atoms: C_13  and  C_19 
REMARK    9  A    between atoms: C_16  and  C_22 
REMARK   10  A    between atoms: N_18  and  C_22 
REMARK       I    between atoms: N_18  and  C_19 
ROOT
HETATM    1  C           1     -20.004  -5.879  -6.115  0.00  0.00     0.278 C 
ENDROOT
BRANCH   1   2
HETATM    2  C           1     -20.577  -4.468  -6.114  0.00  0.00     0.083 C 
BRANCH   2   3
HETATM    3  C           1     -21.638  -4.358  -7.165  0.00  0.00    -0.028 A 
HETATM    4  C           1     -21.424  -4.120  -8.550  0.00  0.00    -0.002 A 
HETATM    5  C           1     -22.678  -4.093  -9.162  0.00  0.00     0.042 A 
HETATM    6  C           1     -20.278  -3.923  -9.346  0.00  0.00     0.014 A 
HETATM    7  N           1     -23.613  -4.308  -8.174  0.00  0.00    -0.365 N 
HETATM    8  C           1     -22.844  -3.878 -10.535  0.00  0.00     0.030 A 
HETATM    9  H           1     -24.651  -4.344  -8.329  0.00  0.00     0.165 HD
HETATM   10  C           1     -22.994  -4.470  -6.963  0.00  0.00     0.096 A 
HETATM   11  C           1     -21.691  -3.686 -11.303  0.00  0.00     0.002 A 
HETATM   12  C           1     -20.427  -3.708 -10.721  0.00  0.00     0.001 A 
ENDBRANCH   2   3
ENDBRANCH   1   2
BRANCH   1  13
HETATM   13  N           1     -20.015  -6.421  -7.513  0.00  0.00    -0.066 N 
HETATM   14  H           1     -19.789  -7.441  -7.495  0.00  0.00     0.275 HD
HETATM   15  H           1     -20.963  -6.282  -7.933  0.00  0.00     0.275 HD
HETATM   16  H           1     -19.302  -5.916  -8.088  0.00  0.00     0.275 HD
ENDBRANCH   1  13
BRANCH   1  17
HETATM   17  C           1     -20.841  -6.765  -5.225  0.00  0.00     0.249 C 
HETATM   18  O           1     -21.681  -7.486  -5.709  0.00  0.00    -0.271 OA
HETATM   19  N           1     -20.649  -6.750  -3.870  0.00  0.00    -0.343 N 
HETATM   20  H           1     -19.946  -6.145  -3.465  0.00  0.00     0.163 HD
BRANCH  19  21
HETATM   21  C           1     -21.453  -7.601  -3.015  0.00  0.00     0.210 C 
BRANCH  21  22
HETATM   22  C           1     -20.585  -8.720  -2.452  0.00  0.00     0.217 C 
BRANCH  22  23
HETATM   23  O           1     -20.774  -9.884  -3.208  0.00  0.00    -0.287 OA
BRANCH  23  24
HETATM   24  P           1     -19.620 -10.224  -4.284  0.00  0.00     0.406 P 
HETATM   25  O           1     -19.075 -11.575  -4.015  0.00  0.00    -0.624 OA
HETATM   26  O           1     -18.534  -9.224  -4.175  0.00  0.00    -0.624 OA
BRANCH  24  27
HETATM   27  O           1     -20.242 -10.184  -5.774  0.00  0.00    -0.300 OA
HETATM   28  H           1     -19.850  -9.432  -6.182  0.00  0.00     0.223 HD
ENDBRANCH  24  27
ENDBRANCH  23  24
ENDBRANCH  22  23
ENDBRANCH  21  22
BRANCH  21  29
HETATM   29  C           1     -22.019  -6.785  -1.879  0.00  0.00     0.198 C 
HETATM   30  O           1     -22.320  -7.340  -0.800  0.00  0.00    -0.646 OA
HETATM   31  O           1     -22.189  -5.555  -2.018  0.00  0.00    -0.646 OA
ENDBRANCH  21  29
ENDBRANCH  19  21
ENDBRANCH   1  17
TORSDOF 10
ENDMDL
MODEL 7
REMARK VINA RESULT:      -6.7      4.916      8.453
REMARK  10 active torsions:
REMARK  status: ('A' for Active; 'I' for Inactive)
REMARK    1  A    between atoms: C_3  and  C_13 
REMARK    2  A    between atoms: C_3  and  C_20 
REMARK    3  A    between atoms: C_4  and  C_22 
REMARK    4  A    between atoms: C_4  and  O_5 
REMARK    5  A    between atoms: O_5  and  P_10 
REMARK    6  A    between atoms: N_6  and  C_13 
REMARK    7  A    between atoms: P_10  and  O_11 
REMARK    8  A    between atoms: C_13  and  C_19 
REMARK    9  A    between atoms: C_16  and  C_22 
REMARK   10  A    between atoms: N_18  and  C_22 
REMARK       I    between atoms: N_18  and  C_19 
ROOT
HETATM    1  C           1     -21.066  -5.591  -5.376  0.00  0.00     0.278 C 
ENDROOT
BRANCH   1   2
HETATM    2  C           1     -20.957  -6.018  -6.834  0.00  0.00     0.083 C 
BRANCH   2   3
HETATM    3  C           1     -21.765  -5.091  -7.688  0.00  0.00    -0.028 A 
HETATM    4  C           1     -21.403  -4.610  -8.976  0.00  0.00    -0.002 A 
HETATM    5  C           1     -22.436  -3.778  -9.410  0.00  0.00     0.042 A 
HETATM    6  C           1     -20.290  -4.803  -9.819  0.00  0.00     0.014 A 
HETATM    7  N           1     -23.386  -3.762  -8.413  0.00  0.00    -0.365 N 
HETATM    8  C           1     -22.413  -3.127 -10.648  0.00  0.00     0.030 A 
HETATM    9  H           1     -24.285  -3.221  -8.450  0.00  0.00     0.165 HD
HETATM   10  C           1     -22.989  -4.553  -7.367  0.00  0.00     0.096 A 
HETATM   11  C           1     -21.298  -3.334 -11.467  0.00  0.00     0.002 A 
HETATM   12  C           1     -20.252  -4.159 -11.061  0.00  0.00     0.001 A 
ENDBRANCH   2   3
ENDBRANCH   1   2
BRANCH   1  13
HETATM   13  N           1     -20.036  -4.540  -5.086  0.00  0.00    -0.066 N 
HETATM   14  H           1     -20.215  -4.126  -4.143  0.00  0.00     0.275 HD
HETATM   15  H           1     -19.084  -4.972  -5.100  0.00  0.00     0.275 HD
HETATM   16  H           1     -20.090  -3.790  -5.812  0.00  0.00     0.275 HD
ENDBRANCH   1  13
BRANCH   1  17
HETATM   17  C           1     -20.833  -6.785  -4.482  0.00  0.00     0.249 C 
HETATM   18  O           1     -21.322  -6.817  -3.378  0.00  0.00    -0.271 OA
HETATM   19  N           1     -20.067  -7.831  -4.923  0.00  0.00    -0.343 N 
HETATM   20  H           1     -19.657  -7.803  -5.848  0.00  0.00     0.163 HD
BRANCH  19  21
HETATM   21  C           1     -19.844  -8.978  -4.065  0.00  0.00     0.210 C 
BRANCH  21  22
HETATM   22  C           1     -20.636 -10.167  -4.591  0.00  0.00     0.217 C 
BRANCH  22  23
HETATM   23  O           1     -21.931 -10.141  -4.056  0.00  0.00    -0.287 OA
BRANCH  23  24
HETATM   24  P           1     -22.056 -10.507  -2.488  0.00  0.00     0.406 P 
HETATM   25  O           1     -20.939 -11.396  -2.097  0.00  0.00    -0.624 OA
HETATM   26  O           1     -23.343 -11.197  -2.245  0.00  0.00    -0.624 OA
BRANCH  24  27
HETATM   27  O           1     -21.997  -9.152  -1.612  0.00  0.00    -0.300 OA
HETATM   28  H           1     -22.587  -8.557  -2.042  0.00  0.00     0.223 HD
ENDBRANCH  24  27
ENDBRANCH  23  24
ENDBRANCH  22  23
ENDBRANCH  21  22
BRANCH  21  29
HETATM   29  C           1     -18.374  -9.319  -4.052  0.00  0.00     0.198 C 
HETATM   30  O           1     -17.799  -9.643  -5.113  0.00  0.00    -0.646 OA
HETATM   31  O           1     -17.733  -9.280  -2.980  0.00  0.00    -0.646 OA
ENDBRANCH  21  29
ENDBRANCH  19  21
ENDBRANCH   1  17
TORSDOF 10
ENDMDL
MODEL 8
REMARK VINA RESULT:      -6.3      5.136      6.378
REMARK  10 active torsions:
REMARK  status: ('A' for Active; 'I' for Inactive)
REMARK    1  A    between atoms: C_3  and  C_13 
REMARK    2  A    between atoms: C_3  and  C_20 
REMARK    3  A    between atoms: C_4  and  C_22 
REMARK    4  A    between atoms: C_4  and  O_5 
REMARK    5  A    between atoms: O_5  and  P_10 
REMARK    6  A    between atoms: N_6  and  C_13 
REMARK    7  A    between atoms: P_10  and  O_11 
REMARK    8  A    between atoms: C_13  and  C_19 
REMARK    9  A    between atoms: C_16  and  C_22 
REMARK   10  A    between atoms: N_18  and  C_22 
REMARK       I    between atoms: N_18  and  C_19 
ROOT
HETATM    1  C           1     -19.810  -8.129  -4.955  0.00  0.00     0.278 C 
ENDROOT
BRANCH   1   2
HETATM    2  C           1     -21.307  -8.259  -4.705  0.00  0.00     0.083 C 
BRANCH   2   3
HETATM    3  C           1     -21.671  -7.522  -3.453  0.00  0.00    -0.028 A 
HETATM    4  C           1     -21.882  -8.100  -2.171  0.00  0.00    -0.002 A 
HETATM    5  C           1     -22.200  -7.059  -1.298  0.00  0.00     0.042 A 
HETATM    6  C           1     -21.833  -9.415  -1.668  0.00  0.00     0.014 A 
HETATM    7  N           1     -22.181  -5.895  -2.034  0.00  0.00    -0.365 N 
HETATM    8  C           1     -22.473  -7.267   0.059  0.00  0.00     0.030 A 
HETATM    9  H           1     -22.381  -4.939  -1.649  0.00  0.00     0.165 HD
HETATM   10  C           1     -21.862  -6.164  -3.338  0.00  0.00     0.096 A 
HETATM   11  C           1     -22.417  -8.582   0.534  0.00  0.00     0.002 A 
HETATM   12  C           1     -22.102  -9.640  -0.313  0.00  0.00     0.001 A 
ENDBRANCH   2   3
ENDBRANCH   1   2
BRANCH   1  13
HETATM   13  N           1     -19.582  -7.463  -6.278  0.00  0.00    -0.066 N 
HETATM   14  H           1     -20.494  -7.351  -6.776  0.00  0.00     0.275 HD
HETATM   15  H           1     -19.152  -6.522  -6.126  0.00  0.00     0.275 HD
HETATM   16  H           1     -18.940  -8.051  -6.857  0.00  0.00     0.275 HD
ENDBRANCH   1  13
BRANCH   1  17
HETATM   17  C           1     -19.179  -9.500  -4.965  0.00  0.00     0.249 C 
HETATM   18  O           1     -19.315 -10.234  -4.016  0.00  0.00    -0.271 OA
HETATM   19  N           1     -18.453  -9.910  -6.051  0.00  0.00    -0.343 N 
HETATM   20  H           1     -18.339  -9.295  -6.845  0.00  0.00     0.163 HD
BRANCH  19  21
HETATM   21  C           1     -17.847 -11.228  -6.061  0.00  0.00     0.210 C 
BRANCH  21  22
HETATM   22  C           1     -18.405 -12.034  -7.228  0.00  0.00     0.217 C 
BRANCH  22  23
HETATM   23  O           1     -19.148 -13.116  -6.736  0.00  0.00    -0.287 OA
BRANCH  23  24
HETATM   24  P           1     -20.693 -12.811  -6.382  0.00  0.00     0.406 P 
HETATM   25  O           1     -21.547 -13.891  -6.927  0.00  0.00    -0.624 OA
HETATM   26  O           1     -21.091 -11.518  -6.983  0.00  0.00    -0.624 OA
BRANCH  24  27
HETATM   27  O           1     -20.875 -12.739  -4.779  0.00  0.00    -0.300 OA
HETATM   28  H           1     -20.039 -12.992  -4.427  0.00  0.00     0.223 HD
ENDBRANCH  24  27
ENDBRANCH  23  24
ENDBRANCH  22  23
ENDBRANCH  21  22
BRANCH  21  29
HETATM   29  C           1     -16.352 -11.094  -6.213  0.00  0.00     0.198 C 
HETATM   30  O           1     -15.685 -12.042  -6.680  0.00  0.00    -0.646 OA
HETATM   31  O           1     -15.781 -10.037  -5.870  0.00  0.00    -0.646 OA
ENDBRANCH  21  29
ENDBRANCH  19  21
ENDBRANCH   1  17
TORSDOF 10
ENDMDL
MODEL 9
REMARK VINA RESULT:      -6.2      4.353      8.577
REMARK  10 active torsions:
REMARK  status: ('A' for Active; 'I' for Inactive)
REMARK    1  A    between atoms: C_3  and  C_13 
REMARK    2  A    between atoms: C_3  and  C_20 
REMARK    3  A    between atoms: C_4  and  C_22 
REMARK    4  A    between atoms: C_4  and  O_5 
REMARK    5  A    between atoms: O_5  and  P_10 
REMARK    6  A    between atoms: N_6  and  C_13 
REMARK    7  A    between atoms: P_10  and  O_11 
REMARK    8  A    between atoms: C_13  and  C_19 
REMARK    9  A    between atoms: C_16  and  C_22 
REMARK   10  A    between atoms: N_18  and  C_22 
REMARK       I    between atoms: N_18  and  C_19 
ROOT
HETATM    1  C           1     -21.863  -6.557  -5.499  0.00  0.00     0.278 C 
ENDROOT
BRANCH   1   2
HETATM    2  C           1     -20.889  -5.387  -5.497  0.00  0.00     0.083 C 
BRANCH   2   3
HETATM    3  C           1     -20.627  -4.951  -6.905  0.00  0.00    -0.028 A 
HETATM    4  C           1     -21.604  -4.521  -7.845  0.00  0.00    -0.002 A 
HETATM    5  C           1     -20.929  -4.211  -9.026  0.00  0.00     0.042 A 
HETATM    6  C           1     -23.003  -4.366  -7.803  0.00  0.00     0.014 A 
HETATM    7  N           1     -19.592  -4.448  -8.801  0.00  0.00    -0.365 N 
HETATM    8  C           1     -21.587  -3.751 -10.173  0.00  0.00     0.030 A 
HETATM    9  H           1     -18.830  -4.304  -9.509  0.00  0.00     0.165 HD
HETATM   10  C           1     -19.399  -4.895  -7.521  0.00  0.00     0.096 A 
HETATM   11  C           1     -22.976  -3.605 -10.107  0.00  0.00     0.002 A 
HETATM   12  C           1     -23.676  -3.907  -8.942  0.00  0.00     0.001 A 
ENDBRANCH   2   3
ENDBRANCH   1   2
BRANCH   1  13
HETATM   13  N           1     -23.063  -6.210  -4.669  0.00  0.00    -0.066 N 
HETATM   14  H           1     -23.118  -5.173  -4.550  0.00  0.00     0.275 HD
HETATM   15  H           1     -23.928  -6.552  -5.147  0.00  0.00     0.275 HD
HETATM   16  H           1     -22.979  -6.664  -3.731  0.00  0.00     0.275 HD
ENDBRANCH   1  13
BRANCH   1  17
HETATM   17  C           1     -21.187  -7.777  -4.922  0.00  0.00     0.249 C 
HETATM   18  O           1     -20.502  -8.478  -5.628  0.00  0.00    -0.271 OA
HETATM   19  N           1     -21.351  -8.088  -3.599  0.00  0.00    -0.343 N 
HETATM   20  H           1     -21.925  -7.501  -3.009  0.00  0.00     0.163 HD
BRANCH  19  21
HETATM   21  C           1     -20.701  -9.260  -3.045  0.00  0.00     0.210 C 
BRANCH  21  22
HETATM   22  C           1     -19.306  -8.884  -2.559  0.00  0.00     0.217 C 
BRANCH  22  23
HETATM   23  O           1     -18.528 -10.042  -2.430  0.00  0.00    -0.287 OA
BRANCH  23  24
HETATM   24  P           1     -17.189 -10.100  -3.330  0.00  0.00     0.406 P 
HETATM   25  O           1     -16.154  -9.227  -2.733  0.00  0.00    -0.624 OA
HETATM   26  O           1     -17.496  -9.635  -4.701  0.00  0.00    -0.624 OA
BRANCH  24  27
HETATM   27  O           1     -16.643 -11.620  -3.386  0.00  0.00    -0.300 OA
HETATM   28  H           1     -17.043 -12.050  -2.651  0.00  0.00     0.223 HD
ENDBRANCH  24  27
ENDBRANCH  23  24
ENDBRANCH  22  23
ENDBRANCH  21  22
BRANCH  21  29
HETATM   29  C           1     -21.511  -9.785  -1.885  0.00  0.00     0.198 C 
HETATM   30  O           1     -21.282  -9.375  -0.727  0.00  0.00    -0.646 OA
HETATM   31  O           1     -22.410 -10.630  -2.083  0.00  0.00    -0.646 OA
ENDBRANCH  21  29
ENDBRANCH  19  21
ENDBRANCH   1  17
TORSDOF 10
ENDMDL
