MODEL 1
REMARK VINA RESULT:      -6.1      0.000      0.000
REMARK  9 active torsions:
REMARK  status: ('A' for Active; 'I' for Inactive)
REMARK    1  A    between atoms: C_2  and  C_8 
REMARK    2  A    between atoms: S_4  and  C_18 
REMARK    3  A    between atoms: N_7  and  C_10 
REMARK       I    between atoms: N_7  and  C_20 
REMARK    4  A    between atoms: C_8  and  C_10 
REMARK    5  A    between atoms: C_10  and  C_15 
REMARK    6  A    between atoms: N_16  and  C_21 
REMARK    7  A    between atoms: C_17  and  C_21 
REMARK    8  A    between atoms: C_17  and  C_18 
REMARK    9  A    between atoms: C_20  and  C_21 
ROOT
HETATM    1  O           1     -24.332  -6.430 -18.633  0.00  0.00    -0.271 OA
HETATM    2  H           1     -27.401  -7.077 -18.580  0.00  0.00     0.163 HD
HETATM    3  N           1     -26.515  -6.712 -18.256  0.00  0.00    -0.345 N 
HETATM    4  C           1     -25.390  -6.866 -19.021  0.00  0.00     0.249 C 
ENDROOT
BRANCH   4   5
HETATM    5  C           1     -25.472  -7.580 -20.347  0.00  0.00     0.275 C 
BRANCH   5   6
HETATM    6  N           1     -26.902  -7.913 -20.648  0.00  0.00    -0.066 N 
HETATM    7  H           1     -27.226  -7.351 -21.469  0.00  0.00     0.275 HD
HETATM    8  H           1     -27.496  -7.687 -19.818  0.00  0.00     0.275 HD
HETATM    9  H           1     -26.984  -8.932 -20.869  0.00  0.00     0.275 HD
ENDBRANCH   5   6
BRANCH   5  10
HETATM   10  C           1     -24.918  -6.681 -21.444  0.00  0.00     0.053 C 
BRANCH  10  11
HETATM   11  C           1     -24.078  -7.511 -22.407  0.00  0.00     0.076 C 
BRANCH  11  12
HETATM   12  S           1     -22.903  -8.525 -21.465  0.00  0.00    -0.173 SA
HETATM   13  C           1     -21.952  -9.108 -22.897  0.00  0.00     0.089 C 
ENDBRANCH  11  12
ENDBRANCH  10  11
ENDBRANCH   5  10
ENDBRANCH   4   5
BRANCH   3  14
HETATM   14  C           1     -26.436  -6.025 -16.981  0.00  0.00     0.185 C 
BRANCH  14  15
HETATM   15  C           1     -27.739  -5.279 -16.726  0.00  0.00     0.040 C 
BRANCH  15  16
HETATM   16  C           1     -28.769  -5.683 -17.773  0.00  0.00    -0.020 C 
HETATM   17  C           1     -29.895  -6.461 -17.103  0.00  0.00     0.009 C 
HETATM   18  C           1     -29.337  -4.434 -18.434  0.00  0.00     0.009 C 
ENDBRANCH  15  16
ENDBRANCH  14  15
BRANCH  14  19
HETATM   19  C           1     -26.207  -7.032 -15.881  0.00  0.00     0.196 C 
HETATM   20  O           1     -27.182  -7.533 -15.280  0.00  0.00    -0.646 OA
HETATM   21  O           1     -25.043  -7.366 -15.572  0.00  0.00    -0.646 OA
ENDBRANCH  14  19
ENDBRANCH   3  14
TORSDOF 9
ENDMDL
MODEL 2
REMARK VINA RESULT:      -6.1      2.181      2.962
REMARK  9 active torsions:
REMARK  status: ('A' for Active; 'I' for Inactive)
REMARK    1  A    between atoms: C_2  and  C_8 
REMARK    2  A    between atoms: S_4  and  C_18 
REMARK    3  A    between atoms: N_7  and  C_10 
REMARK       I    between atoms: N_7  and  C_20 
REMARK    4  A    between atoms: C_8  and  C_10 
REMARK    5  A    between atoms: C_10  and  C_15 
REMARK    6  A    between atoms: N_16  and  C_21 
REMARK    7  A    between atoms: C_17  and  C_21 
REMARK    8  A    between atoms: C_17  and  C_18 
REMARK    9  A    between atoms: C_20  and  C_21 
ROOT
HETATM    1  O           1     -26.327  -5.990 -17.319  0.00  0.00    -0.271 OA
HETATM    2  H           1     -27.637  -7.169 -19.914  0.00  0.00     0.163 HD
HETATM    3  N           1     -27.593  -6.775 -18.984  0.00  0.00    -0.345 N 
HETATM    4  C           1     -26.380  -6.459 -18.431  0.00  0.00     0.249 C 
ENDROOT
BRANCH   4   5
HETATM    5  C           1     -25.111  -6.698 -19.210  0.00  0.00     0.275 C 
BRANCH   5   6
HETATM    6  N           1     -24.186  -7.562 -18.405  0.00  0.00    -0.066 N 
HETATM    7  H           1     -24.001  -8.451 -18.923  0.00  0.00     0.275 HD
HETATM    8  H           1     -24.627  -7.782 -17.484  0.00  0.00     0.275 HD
HETATM    9  H           1     -23.285  -7.055 -18.249  0.00  0.00     0.275 HD
ENDBRANCH   5   6
BRANCH   5  10
HETATM   10  C           1     -25.443  -7.396 -20.523  0.00  0.00     0.053 C 
BRANCH  10  11
HETATM   11  C           1     -24.245  -8.219 -20.978  0.00  0.00     0.076 C 
BRANCH  11  12
HETATM   12  S           1     -23.826  -7.782 -22.690  0.00  0.00    -0.173 SA
HETATM   13  C           1     -22.352  -8.836 -22.808  0.00  0.00     0.089 C 
ENDBRANCH  11  12
ENDBRANCH  10  11
ENDBRANCH   5  10
ENDBRANCH   4   5
BRANCH   3  14
HETATM   14  C           1     -28.812  -6.545 -18.234  0.00  0.00     0.185 C 
BRANCH  14  15
HETATM   15  C           1     -29.368  -5.170 -18.581  0.00  0.00     0.040 C 
BRANCH  15  16
HETATM   16  C           1     -29.682  -4.409 -17.299  0.00  0.00    -0.020 C 
HETATM   17  C           1     -28.678  -3.278 -17.122  0.00  0.00     0.009 C 
HETATM   18  C           1     -31.089  -3.833 -17.384  0.00  0.00     0.009 C 
ENDBRANCH  15  16
ENDBRANCH  14  15
BRANCH  14  19
HETATM   19  C           1     -29.827  -7.603 -18.588  0.00  0.00     0.196 C 
HETATM   20  O           1     -29.498  -8.567 -19.313  0.00  0.00    -0.646 OA
HETATM   21  O           1     -30.996  -7.517 -18.155  0.00  0.00    -0.646 OA
ENDBRANCH  14  19
ENDBRANCH   3  14
TORSDOF 9
ENDMDL
MODEL 3
REMARK VINA RESULT:      -5.6      6.909      9.192
REMARK  9 active torsions:
REMARK  status: ('A' for Active; 'I' for Inactive)
REMARK    1  A    between atoms: C_2  and  C_8 
REMARK    2  A    between atoms: S_4  and  C_18 
REMARK    3  A    between atoms: N_7  and  C_10 
REMARK       I    between atoms: N_7  and  C_20 
REMARK    4  A    between atoms: C_8  and  C_10 
REMARK    5  A    between atoms: C_10  and  C_15 
REMARK    6  A    between atoms: N_16  and  C_21 
REMARK    7  A    between atoms: C_17  and  C_21 
REMARK    8  A    between atoms: C_17  and  C_18 
REMARK    9  A    between atoms: C_20  and  C_21 
ROOT
HETATM    1  O           1     -35.021  -4.917 -15.512  0.00  0.00    -0.271 OA
HETATM    2  H           1     -32.391  -3.583 -14.443  0.00  0.00     0.163 HD
HETATM    3  N           1     -33.327  -3.965 -14.411  0.00  0.00    -0.345 N 
HETATM    4  C           1     -33.903  -4.461 -15.550  0.00  0.00     0.249 C 
ENDROOT
BRANCH   4   5
HETATM    5  C           1     -33.142  -4.437 -16.852  0.00  0.00     0.275 C 
BRANCH   5   6
HETATM    6  N           1     -33.355  -3.117 -17.531  0.00  0.00    -0.066 N 
HETATM    7  H           1     -33.598  -3.277 -18.536  0.00  0.00     0.275 HD
HETATM    8  H           1     -32.481  -2.548 -17.471  0.00  0.00     0.275 HD
HETATM    9  H           1     -34.137  -2.606 -17.061  0.00  0.00     0.275 HD
ENDBRANCH   5   6
BRANCH   5  10
HETATM   10  C           1     -31.657  -4.632 -16.577  0.00  0.00     0.053 C 
BRANCH  10  11
HETATM   11  C           1     -30.847  -3.727 -17.497  0.00  0.00     0.076 C 
BRANCH  11  12
HETATM   12  S           1     -29.410  -4.639 -18.132  0.00  0.00    -0.173 SA
HETATM   13  C           1     -28.225  -4.021 -16.903  0.00  0.00     0.089 C 
ENDBRANCH  11  12
ENDBRANCH  10  11
ENDBRANCH   5  10
ENDBRANCH   4   5
BRANCH   3  14
HETATM   14  C           1     -34.059  -3.989 -13.159  0.00  0.00     0.185 C 
BRANCH  14  15
HETATM   15  C           1     -33.161  -4.536 -12.058  0.00  0.00     0.040 C 
BRANCH  15  16
HETATM   16  C           1     -33.876  -5.670 -11.334  0.00  0.00    -0.020 C 
HETATM   17  C           1     -34.365  -5.177  -9.978  0.00  0.00     0.009 C 
HETATM   18  C           1     -35.064  -6.133 -12.166  0.00  0.00     0.009 C 
ENDBRANCH  15  16
ENDBRANCH  14  15
BRANCH  14  19
HETATM   19  C           1     -34.496  -2.589 -12.806  0.00  0.00     0.196 C 
HETATM   20  O           1     -34.213  -2.111 -11.685  0.00  0.00    -0.646 OA
HETATM   21  O           1     -35.138  -1.907 -13.633  0.00  0.00    -0.646 OA
ENDBRANCH  14  19
ENDBRANCH   3  14
TORSDOF 9
ENDMDL
MODEL 4
REMARK VINA RESULT:      -5.5     12.229     14.103
REMARK  9 active torsions:
REMARK  status: ('A' for Active; 'I' for Inactive)
REMARK    1  A    between atoms: C_2  and  C_8 
REMARK    2  A    between atoms: S_4  and  C_18 
REMARK    3  A    between atoms: N_7  and  C_10 
REMARK       I    between atoms: N_7  and  C_20 
REMARK    4  A    between atoms: C_8  and  C_10 
REMARK    5  A    between atoms: C_10  and  C_15 
REMARK    6  A    between atoms: N_16  and  C_21 
REMARK    7  A    between atoms: C_17  and  C_21 
REMARK    8  A    between atoms: C_17  and  C_18 
REMARK    9  A    between atoms: C_20  and  C_21 
ROOT
HETATM    1  O           1     -36.395  -3.703 -10.868  0.00  0.00    -0.271 OA
HETATM    2  H           1     -34.471  -1.230 -11.042  0.00  0.00     0.163 HD
HETATM    3  N           1     -35.339  -1.735 -10.914  0.00  0.00    -0.345 N 
HETATM    4  C           1     -35.358  -3.100 -11.020  0.00  0.00     0.249 C 
ENDROOT
BRANCH   4   5
HETATM    5  C           1     -34.087  -3.851 -11.327  0.00  0.00     0.275 C 
BRANCH   5   6
HETATM    6  N           1     -32.917  -2.920 -11.215  0.00  0.00    -0.066 N 
HETATM    7  H           1     -32.070  -3.373 -11.629  0.00  0.00     0.275 HD
HETATM    8  H           1     -32.738  -2.703 -10.209  0.00  0.00     0.275 HD
HETATM    9  H           1     -33.126  -2.035 -11.731  0.00  0.00     0.275 HD
ENDBRANCH   5   6
BRANCH   5  10
HETATM   10  C           1     -33.921  -4.996 -10.336  0.00  0.00     0.053 C 
BRANCH  10  11
HETATM   11  C           1     -34.328  -6.306 -11.000  0.00  0.00     0.076 C 
BRANCH  11  12
HETATM   12  S           1     -35.034  -7.421  -9.754  0.00  0.00    -0.173 SA
HETATM   13  C           1     -33.759  -8.706  -9.893  0.00  0.00     0.089 C 
ENDBRANCH  11  12
ENDBRANCH  10  11
ENDBRANCH   5  10
ENDBRANCH   4   5
BRANCH   3  14
HETATM   14  C           1     -36.561  -1.013 -10.619  0.00  0.00     0.185 C 
BRANCH  14  15
HETATM   15  C           1     -36.377  -0.208  -9.340  0.00  0.00     0.040 C 
BRANCH  15  16
HETATM   16  C           1     -37.741   0.144  -8.759  0.00  0.00    -0.020 C 
HETATM   17  C           1     -37.824  -0.355  -7.322  0.00  0.00     0.009 C 
HETATM   18  C           1     -37.929   1.654  -8.785  0.00  0.00     0.009 C 
ENDBRANCH  15  16
ENDBRANCH  14  15
BRANCH  14  19
HETATM   19  C           1     -36.883  -0.081 -11.760  0.00  0.00     0.196 C 
HETATM   20  O           1     -38.075   0.165 -12.049  0.00  0.00    -0.646 OA
HETATM   21  O           1     -35.959   0.446 -12.416  0.00  0.00    -0.646 OA
ENDBRANCH  14  19
ENDBRANCH   3  14
TORSDOF 9
ENDMDL
MODEL 5
REMARK VINA RESULT:      -5.4     10.586     12.319
REMARK  9 active torsions:
REMARK  status: ('A' for Active; 'I' for Inactive)
REMARK    1  A    between atoms: C_2  and  C_8 
REMARK    2  A    between atoms: S_4  and  C_18 
REMARK    3  A    between atoms: N_7  and  C_10 
REMARK       I    between atoms: N_7  and  C_20 
REMARK    4  A    between atoms: C_8  and  C_10 
REMARK    5  A    between atoms: C_10  and  C_15 
REMARK    6  A    between atoms: N_16  and  C_21 
REMARK    7  A    between atoms: C_17  and  C_21 
REMARK    8  A    between atoms: C_17  and  C_18 
REMARK    9  A    between atoms: C_20  and  C_21 
ROOT
HETATM    1  O           1     -34.027  -1.365 -11.558  0.00  0.00    -0.271 OA
HETATM    2  H           1     -35.657  -2.200 -14.105  0.00  0.00     0.163 HD
HETATM    3  N           1     -35.000  -2.293 -13.342  0.00  0.00    -0.345 N 
HETATM    4  C           1     -34.813  -1.254 -12.469  0.00  0.00     0.249 C 
ENDROOT
BRANCH   4   5
HETATM    5  C           1     -35.587   0.029 -12.647  0.00  0.00     0.275 C 
BRANCH   5   6
HETATM    6  N           1     -35.956   0.580 -11.302  0.00  0.00    -0.066 N 
HETATM    7  H           1     -36.086  -0.207 -10.626  0.00  0.00     0.275 HD
HETATM    8  H           1     -36.846   1.122 -11.379  0.00  0.00     0.275 HD
HETATM    9  H           1     -35.192   1.209 -10.963  0.00  0.00     0.275 HD
ENDBRANCH   5   6
BRANCH   5  10
HETATM   10  C           1     -34.729   1.041 -13.393  0.00  0.00     0.053 C 
BRANCH  10  11
HETATM   11  C           1     -35.086   1.018 -14.874  0.00  0.00     0.076 C 
BRANCH  11  12
HETATM   12  S           1     -36.744   0.309 -15.085  0.00  0.00    -0.173 SA
HETATM   13  C           1     -36.307  -0.817 -16.440  0.00  0.00     0.089 C 
ENDBRANCH  11  12
ENDBRANCH  10  11
ENDBRANCH   5  10
ENDBRANCH   4   5
BRANCH   3  14
HETATM   14  C           1     -34.256  -3.526 -13.170  0.00  0.00     0.185 C 
BRANCH  14  15
HETATM   15  C           1     -34.870  -4.334 -12.034  0.00  0.00     0.040 C 
BRANCH  15  16
HETATM   16  C           1     -33.773  -4.783 -11.078  0.00  0.00    -0.020 C 
HETATM   17  C           1     -33.950  -6.262 -10.762  0.00  0.00     0.009 C 
HETATM   18  C           1     -32.413  -4.561 -11.726  0.00  0.00     0.009 C 
ENDBRANCH  15  16
ENDBRANCH  14  15
BRANCH  14  19
HETATM   19  C           1     -34.310  -4.327 -14.446  0.00  0.00     0.196 C 
HETATM   20  O           1     -33.596  -4.001 -15.420  0.00  0.00    -0.646 OA
HETATM   21  O           1     -35.067  -5.318 -14.530  0.00  0.00    -0.646 OA
ENDBRANCH  14  19
ENDBRANCH   3  14
TORSDOF 9
ENDMDL
MODEL 6
REMARK VINA RESULT:      -5.4     11.874     14.170
REMARK  9 active torsions:
REMARK  status: ('A' for Active; 'I' for Inactive)
REMARK    1  A    between atoms: C_2  and  C_8 
REMARK    2  A    between atoms: S_4  and  C_18 
REMARK    3  A    between atoms: N_7  and  C_10 
REMARK       I    between atoms: N_7  and  C_20 
REMARK    4  A    between atoms: C_8  and  C_10 
REMARK    5  A    between atoms: C_10  and  C_15 
REMARK    6  A    between atoms: N_16  and  C_21 
REMARK    7  A    between atoms: C_17  and  C_21 
REMARK    8  A    between atoms: C_17  and  C_18 
REMARK    9  A    between atoms: C_20  and  C_21 
ROOT
HETATM    1  O           1     -19.930  -4.460  -5.278  0.00  0.00    -0.271 OA
HETATM    2  H           1     -21.462  -6.669  -6.897  0.00  0.00     0.163 HD
HETATM    3  N           1     -20.923  -6.266  -6.142  0.00  0.00    -0.345 N 
HETATM    4  C           1     -20.574  -4.942  -6.180  0.00  0.00     0.249 C 
ENDROOT
BRANCH   4   5
HETATM    5  C           1     -20.994  -4.085  -7.349  0.00  0.00     0.275 C 
BRANCH   5   6
HETATM    6  N           1     -19.823  -3.875  -8.261  0.00  0.00    -0.066 N 
HETATM    7  H           1     -19.348  -2.975  -8.018  0.00  0.00     0.275 HD
HETATM    8  H           1     -20.154  -3.836  -9.251  0.00  0.00     0.275 HD
HETATM    9  H           1     -19.148  -4.666  -8.149  0.00  0.00     0.275 HD
ENDBRANCH   5   6
BRANCH   5  10
HETATM   10  C           1     -22.114  -4.779  -8.112  0.00  0.00     0.053 C 
BRANCH  10  11
HETATM   11  C           1     -22.830  -3.766  -8.997  0.00  0.00     0.076 C 
BRANCH  11  12
HETATM   12  S           1     -23.357  -4.572 -10.536  0.00  0.00    -0.173 SA
HETATM   13  C           1     -21.783  -4.366 -11.416  0.00  0.00     0.089 C 
ENDBRANCH  11  12
ENDBRANCH  10  11
ENDBRANCH   5  10
ENDBRANCH   4   5
BRANCH   3  14
HETATM   14  C           1     -20.518  -7.088  -5.019  0.00  0.00     0.185 C 
BRANCH  14  15
HETATM   15  C           1     -21.661  -7.171  -4.015  0.00  0.00     0.040 C 
BRANCH  15  16
HETATM   16  C           1     -21.145  -6.817  -2.626  0.00  0.00    -0.020 C 
HETATM   17  C           1     -22.274  -6.206  -1.806  0.00  0.00     0.009 C 
HETATM   18  C           1     -20.639  -8.077  -1.937  0.00  0.00     0.009 C 
ENDBRANCH  15  16
ENDBRANCH  14  15
BRANCH  14  19
HETATM   19  C           1     -20.176  -8.474  -5.507  0.00  0.00     0.196 C 
HETATM   20  O           1     -18.983  -8.786  -5.714  0.00  0.00    -0.646 OA
HETATM   21  O           1     -21.084  -9.309  -5.704  0.00  0.00    -0.646 OA
ENDBRANCH  14  19
ENDBRANCH   3  14
TORSDOF 9
ENDMDL
MODEL 7
REMARK VINA RESULT:      -5.4     11.171     13.530
REMARK  9 active torsions:
REMARK  status: ('A' for Active; 'I' for Inactive)
REMARK    1  A    between atoms: C_2  and  C_8 
REMARK    2  A    between atoms: S_4  and  C_18 
REMARK    3  A    between atoms: N_7  and  C_10 
REMARK       I    between atoms: N_7  and  C_20 
REMARK    4  A    between atoms: C_8  and  C_10 
REMARK    5  A    between atoms: C_10  and  C_15 
REMARK    6  A    between atoms: N_16  and  C_21 
REMARK    7  A    between atoms: C_17  and  C_21 
REMARK    8  A    between atoms: C_17  and  C_18 
REMARK    9  A    between atoms: C_20  and  C_21 
ROOT
HETATM    1  O           1     -33.995  -1.357 -11.093  0.00  0.00    -0.271 OA
HETATM    2  H           1     -35.740  -2.075 -13.599  0.00  0.00     0.163 HD
HETATM    3  N           1     -35.062  -2.209 -12.860  0.00  0.00    -0.345 N 
HETATM    4  C           1     -34.805  -1.197 -11.975  0.00  0.00     0.249 C 
ENDROOT
BRANCH   4   5
HETATM    5  C           1     -35.532   0.119 -12.101  0.00  0.00     0.275 C 
BRANCH   5   6
HETATM    6  N           1     -35.054   0.838 -13.327  0.00  0.00    -0.066 N 
HETATM    7  H           1     -34.014   0.754 -13.397  0.00  0.00     0.275 HD
HETATM    8  H           1     -35.318   1.847 -13.265  0.00  0.00     0.275 HD
HETATM    9  H           1     -35.497   0.413 -14.174  0.00  0.00     0.275 HD
ENDBRANCH   5   6
BRANCH   5  10
HETATM   10  C           1     -37.029  -0.137 -12.214  0.00  0.00     0.053 C 
BRANCH  10  11
HETATM   11  C           1     -37.588  -0.497 -10.843  0.00  0.00     0.076 C 
BRANCH  11  12
HETATM   12  S           1     -37.088   0.763  -9.636  0.00  0.00    -0.173 SA
HETATM   13  C           1     -37.551  -0.184  -8.158  0.00  0.00     0.089 C 
ENDBRANCH  11  12
ENDBRANCH  10  11
ENDBRANCH   5  10
ENDBRANCH   4   5
BRANCH   3  14
HETATM   14  C           1     -34.362  -3.473 -12.738  0.00  0.00     0.185 C 
BRANCH  14  15
HETATM   15  C           1     -35.016  -4.310 -11.646  0.00  0.00     0.040 C 
BRANCH  15  16
HETATM   16  C           1     -33.939  -4.938 -10.771  0.00  0.00    -0.020 C 
HETATM   17  C           1     -34.303  -6.388 -10.482  0.00  0.00     0.009 C 
HETATM   18  C           1     -32.602  -4.884 -11.497  0.00  0.00     0.009 C 
ENDBRANCH  15  16
ENDBRANCH  14  15
BRANCH  14  19
HETATM   19  C           1     -34.429  -4.215 -14.050  0.00  0.00     0.196 C 
HETATM   20  O           1     -33.808  -3.781 -15.045  0.00  0.00    -0.646 OA
HETATM   21  O           1     -35.104  -5.262 -14.142  0.00  0.00    -0.646 OA
ENDBRANCH  14  19
ENDBRANCH   3  14
TORSDOF 9
ENDMDL
MODEL 8
REMARK VINA RESULT:      -5.2     11.331     12.708
REMARK  9 active torsions:
REMARK  status: ('A' for Active; 'I' for Inactive)
REMARK    1  A    between atoms: C_2  and  C_8 
REMARK    2  A    between atoms: S_4  and  C_18 
REMARK    3  A    between atoms: N_7  and  C_10 
REMARK       I    between atoms: N_7  and  C_20 
REMARK    4  A    between atoms: C_8  and  C_10 
REMARK    5  A    between atoms: C_10  and  C_15 
REMARK    6  A    between atoms: N_16  and  C_21 
REMARK    7  A    between atoms: C_17  and  C_21 
REMARK    8  A    between atoms: C_17  and  C_18 
REMARK    9  A    between atoms: C_20  and  C_21 
ROOT
HETATM    1  O           1     -36.651  -1.145 -13.269  0.00  0.00    -0.271 OA
HETATM    2  H           1     -33.928  -0.220 -12.016  0.00  0.00     0.163 HD
HETATM    3  N           1     -34.744  -0.801 -12.159  0.00  0.00    -0.345 N 
HETATM    4  C           1     -35.676  -0.452 -13.099  0.00  0.00     0.249 C 
ENDROOT
BRANCH   4   5
HETATM    5  C           1     -35.486   0.798 -13.922  0.00  0.00     0.275 C 
BRANCH   5   6
HETATM    6  N           1     -34.052   0.904 -14.347  0.00  0.00    -0.066 N 
HETATM    7  H           1     -33.842   0.163 -15.054  0.00  0.00     0.275 HD
HETATM    8  H           1     -33.431   0.776 -13.516  0.00  0.00     0.275 HD
HETATM    9  H           1     -33.882   1.846 -14.767  0.00  0.00     0.275 HD
ENDBRANCH   5   6
BRANCH   5  10
HETATM   10  C           1     -36.378   0.735 -15.155  0.00  0.00     0.053 C 
BRANCH  10  11
HETATM   11  C           1     -35.572   0.214 -16.338  0.00  0.00     0.076 C 
BRANCH  11  12
HETATM   12  S           1     -36.269  -1.368 -16.895  0.00  0.00    -0.173 SA
HETATM   13  C           1     -34.736  -2.327 -16.733  0.00  0.00     0.089 C 
ENDBRANCH  11  12
ENDBRANCH  10  11
ENDBRANCH   5  10
ENDBRANCH   4   5
BRANCH   3  14
HETATM   14  C           1     -34.927  -2.003 -11.368  0.00  0.00     0.185 C 
BRANCH  14  15
HETATM   15  C           1     -33.607  -2.381 -10.710  0.00  0.00     0.040 C 
BRANCH  15  16
HETATM   16  C           1     -33.200  -3.781 -11.152  0.00  0.00    -0.020 C 
HETATM   17  C           1     -34.094  -4.808 -10.470  0.00  0.00     0.009 C 
HETATM   18  C           1     -33.351  -3.898 -12.663  0.00  0.00     0.009 C 
ENDBRANCH  15  16
ENDBRANCH  14  15
BRANCH  14  19
HETATM   19  C           1     -35.967  -1.751 -10.305  0.00  0.00     0.196 C 
HETATM   20  O           1     -35.836  -0.789  -9.518  0.00  0.00    -0.646 OA
HETATM   21  O           1     -36.960  -2.505 -10.212  0.00  0.00    -0.646 OA
ENDBRANCH  14  19
ENDBRANCH   3  14
TORSDOF 9
ENDMDL
MODEL 9
REMARK VINA RESULT:      -5.1     11.628     13.105
REMARK  9 active torsions:
REMARK  status: ('A' for Active; 'I' for Inactive)
REMARK    1  A    between atoms: C_2  and  C_8 
REMARK    2  A    between atoms: S_4  and  C_18 
REMARK    3  A    between atoms: N_7  and  C_10 
REMARK       I    between atoms: N_7  and  C_20 
REMARK    4  A    between atoms: C_8  and  C_10 
REMARK    5  A    between atoms: C_10  and  C_15 
REMARK    6  A    between atoms: N_16  and  C_21 
REMARK    7  A    between atoms: C_17  and  C_21 
REMARK    8  A    between atoms: C_17  and  C_18 
REMARK    9  A    between atoms: C_20  and  C_21 
ROOT
HETATM    1  O           1     -36.109  -3.184 -11.153  0.00  0.00    -0.271 OA
HETATM    2  H           1     -34.306  -2.113 -13.486  0.00  0.00     0.163 HD
HETATM    3  N           1     -35.040  -2.104 -12.790  0.00  0.00    -0.345 N 
HETATM    4  C           1     -35.232  -3.195 -11.985  0.00  0.00     0.249 C 
ENDROOT
BRANCH   4   5
HETATM    5  C           1     -34.351  -4.409 -12.136  0.00  0.00     0.275 C 
BRANCH   5   6
HETATM    6  N           1     -33.195  -4.079 -13.032  0.00  0.00    -0.066 N 
HETATM    7  H           1     -32.301  -4.341 -12.558  0.00  0.00     0.275 HD
HETATM    8  H           1     -33.192  -3.054 -13.235  0.00  0.00     0.275 HD
HETATM    9  H           1     -33.285  -4.612 -13.927  0.00  0.00     0.275 HD
ENDBRANCH   5   6
BRANCH   5  10
HETATM   10  C           1     -33.830  -4.833 -10.770  0.00  0.00     0.053 C 
BRANCH  10  11
HETATM   11  C           1     -33.512  -6.323 -10.787  0.00  0.00     0.076 C 
BRANCH  11  12
HETATM   12  S           1     -34.842  -7.235  -9.953  0.00  0.00    -0.173 SA
HETATM   13  C           1     -33.949  -8.811  -9.823  0.00  0.00     0.089 C 
ENDBRANCH  11  12
ENDBRANCH  10  11
ENDBRANCH   5  10
ENDBRANCH   4   5
BRANCH   3  14
HETATM   14  C           1     -35.887  -0.936 -12.644  0.00  0.00     0.185 C 
BRANCH  14  15
HETATM   15  C           1     -35.461  -0.153 -11.408  0.00  0.00     0.040 C 
BRANCH  15  16
HETATM   16  C           1     -36.696   0.264 -10.620  0.00  0.00    -0.020 C 
HETATM   17  C           1     -37.945  -0.245 -11.326  0.00  0.00     0.009 C 
HETATM   18  C           1     -36.626  -0.327  -9.218  0.00  0.00     0.009 C 
ENDBRANCH  15  16
ENDBRANCH  14  15
BRANCH  14  19
HETATM   19  C           1     -35.755  -0.062 -13.866  0.00  0.00     0.196 C 
HETATM   20  O           1     -34.625   0.324 -14.238  0.00  0.00    -0.646 OA
HETATM   21  O           1     -36.774   0.275 -14.506  0.00  0.00    -0.646 OA
ENDBRANCH  14  19
ENDBRANCH   3  14
TORSDOF 9
ENDMDL
