MODEL 1
REMARK VINA RESULT:      -5.8      0.000      0.000
REMARK  11 active torsions:
REMARK  status: ('A' for Active; 'I' for Inactive)
REMARK    1  A    between atoms: C_4  and  C_23 
REMARK    2  A    between atoms: C_5  and  C_6 
REMARK    3  A    between atoms: C_5  and  S_10 
REMARK    4  A    between atoms: C_6  and  C_16 
REMARK    5  A    between atoms: C_6  and  N_11 
REMARK       I    between atoms: C_16  and  N_17 
REMARK    6  A    between atoms: N_17  and  C_23 
REMARK    7  A    between atoms: C_19  and  C_20 
REMARK    8  A    between atoms: C_19  and  C_24 
REMARK    9  A    between atoms: C_20  and  C_21 
REMARK   10  A    between atoms: C_21  and  N_22 
REMARK   11  A    between atoms: C_23  and  C_24 
ROOT
HETATM    1  H           1     -27.398  -6.999 -18.663  0.00  0.00     0.163 HD
HETATM    2  O           1     -24.310  -6.461 -18.555  0.00  0.00    -0.271 OA
HETATM    3  C           1     -25.359  -6.867 -18.994  0.00  0.00     0.249 C 
HETATM    4  N           1     -26.519  -6.660 -18.295  0.00  0.00    -0.345 N 
ENDROOT
BRANCH   4   5
HETATM    5  C           1     -26.487  -5.955 -17.028  0.00  0.00     0.185 C 
BRANCH   5   6
HETATM    6  C           1     -26.435  -6.954 -15.899  0.00  0.00     0.196 C 
HETATM    7  O           1     -25.333  -7.364 -15.477  0.00  0.00    -0.646 OA
HETATM    8  O           1     -27.495  -7.371 -15.386  0.00  0.00    -0.646 OA
ENDBRANCH   5   6
BRANCH   5   9
HETATM    9  C           1     -27.738  -5.098 -16.894  0.00  0.00     0.036 C 
BRANCH   9  10
HETATM   10  C           1     -28.679  -5.387 -18.057  0.00  0.00     0.004 C 
BRANCH  10  11
HETATM   11  C           1     -30.009  -5.898 -17.519  0.00  0.00     0.027 C 
BRANCH  11  12
HETATM   12  C           1     -30.302  -7.271 -18.110  0.00  0.00     0.229 C 
BRANCH  12  13
HETATM   13  N           1     -29.441  -8.299 -17.438  0.00  0.00    -0.079 N 
HETATM   14  H           1     -28.985  -8.899 -18.162  0.00  0.00     0.274 HD
HETATM   15  H           1     -28.706  -7.819 -16.871  0.00  0.00     0.274 HD
HETATM   16  H           1     -30.032  -8.893 -16.814  0.00  0.00     0.274 HD
ENDBRANCH  12  13
ENDBRANCH  11  12
ENDBRANCH  10  11
ENDBRANCH   9  10
ENDBRANCH   5   9
ENDBRANCH   4   5
BRANCH   3  17
HETATM   17  C           1     -25.393  -7.600 -20.312  0.00  0.00     0.283 C 
BRANCH  17  18
HETATM   18  C           1     -24.776  -6.727 -21.396  0.00  0.00     0.113 C 
BRANCH  18  19
HETATM   19  S           1     -23.854  -7.768 -22.562  0.00  0.00    -0.180 SA
HETATM   20  H           1     -24.839  -8.664 -22.760  0.00  0.00     0.101 HD
ENDBRANCH  18  19
ENDBRANCH  17  18
BRANCH  17  21
HETATM   21  N           1     -26.816  -7.913 -20.673  0.00  0.00    -0.066 N 
HETATM   22  H           1     -26.846  -8.356 -21.619  0.00  0.00     0.275 HD
HETATM   23  H           1     -27.217  -8.571 -19.968  0.00  0.00     0.275 HD
HETATM   24  H           1     -27.374  -7.030 -20.685  0.00  0.00     0.275 HD
ENDBRANCH  17  21
ENDBRANCH   3  17
TORSDOF 11
ENDMDL
MODEL 2
REMARK VINA RESULT:      -5.7      1.528      1.681
REMARK  11 active torsions:
REMARK  status: ('A' for Active; 'I' for Inactive)
REMARK    1  A    between atoms: C_4  and  C_23 
REMARK    2  A    between atoms: C_5  and  C_6 
REMARK    3  A    between atoms: C_5  and  S_10 
REMARK    4  A    between atoms: C_6  and  C_16 
REMARK    5  A    between atoms: C_6  and  N_11 
REMARK       I    between atoms: C_16  and  N_17 
REMARK    6  A    between atoms: N_17  and  C_23 
REMARK    7  A    between atoms: C_19  and  C_20 
REMARK    8  A    between atoms: C_19  and  C_24 
REMARK    9  A    between atoms: C_20  and  C_21 
REMARK   10  A    between atoms: C_21  and  N_22 
REMARK   11  A    between atoms: C_23  and  C_24 
ROOT
HETATM    1  H           1     -27.420  -6.960 -18.606  0.00  0.00     0.163 HD
HETATM    2  O           1     -24.322  -6.473 -18.533  0.00  0.00    -0.271 OA
HETATM    3  C           1     -25.384  -6.855 -18.963  0.00  0.00     0.249 C 
HETATM    4  N           1     -26.531  -6.641 -18.245  0.00  0.00    -0.345 N 
ENDROOT
BRANCH   4   5
HETATM    5  C           1     -26.470  -5.955 -16.969  0.00  0.00     0.185 C 
BRANCH   5   6
HETATM    6  C           1     -26.409  -6.972 -15.855  0.00  0.00     0.196 C 
HETATM    7  O           1     -25.303  -7.374 -15.436  0.00  0.00    -0.646 OA
HETATM    8  O           1     -27.465  -7.411 -15.353  0.00  0.00    -0.646 OA
ENDBRANCH   5   6
BRANCH   5   9
HETATM    9  C           1     -27.710  -5.089 -16.800  0.00  0.00     0.036 C 
BRANCH   9  10
HETATM   10  C           1     -28.672  -5.348 -17.952  0.00  0.00     0.004 C 
BRANCH  10  11
HETATM   11  C           1     -29.582  -4.141 -18.137  0.00  0.00     0.027 C 
BRANCH  11  12
HETATM   12  C           1     -30.810  -4.290 -17.249  0.00  0.00     0.229 C 
BRANCH  12  13
HETATM   13  N           1     -31.781  -3.185 -17.548  0.00  0.00    -0.079 N 
HETATM   14  H           1     -31.255  -2.313 -17.783  0.00  0.00     0.274 HD
HETATM   15  H           1     -32.380  -3.459 -18.359  0.00  0.00     0.274 HD
HETATM   16  H           1     -32.382  -3.015 -16.710  0.00  0.00     0.274 HD
ENDBRANCH  12  13
ENDBRANCH  11  12
ENDBRANCH  10  11
ENDBRANCH   9  10
ENDBRANCH   5   9
ENDBRANCH   4   5
BRANCH   3  17
HETATM   17  C           1     -25.448  -7.568 -20.291  0.00  0.00     0.283 C 
BRANCH  17  18
HETATM   18  C           1     -24.819  -6.694 -21.367  0.00  0.00     0.113 C 
BRANCH  18  19
HETATM   19  S           1     -23.900  -7.737 -22.534  0.00  0.00    -0.180 SA
HETATM   20  H           1     -22.872  -6.886 -22.705  0.00  0.00     0.101 HD
ENDBRANCH  18  19
ENDBRANCH  17  18
BRANCH  17  21
HETATM   21  N           1     -26.881  -7.841 -20.643  0.00  0.00    -0.066 N 
HETATM   22  H           1     -26.938  -8.710 -21.220  0.00  0.00     0.275 HD
HETATM   23  H           1     -27.437  -7.967 -19.768  0.00  0.00     0.275 HD
HETATM   24  H           1     -27.264  -7.036 -21.188  0.00  0.00     0.275 HD
ENDBRANCH  17  21
ENDBRANCH   3  17
TORSDOF 11
ENDMDL
MODEL 3
REMARK VINA RESULT:      -5.6     10.539     11.576
REMARK  11 active torsions:
REMARK  status: ('A' for Active; 'I' for Inactive)
REMARK    1  A    between atoms: C_4  and  C_23 
REMARK    2  A    between atoms: C_5  and  C_6 
REMARK    3  A    between atoms: C_5  and  S_10 
REMARK    4  A    between atoms: C_6  and  C_16 
REMARK    5  A    between atoms: C_6  and  N_11 
REMARK       I    between atoms: C_16  and  N_17 
REMARK    6  A    between atoms: N_17  and  C_23 
REMARK    7  A    between atoms: C_19  and  C_20 
REMARK    8  A    between atoms: C_19  and  C_24 
REMARK    9  A    between atoms: C_20  and  C_21 
REMARK   10  A    between atoms: C_21  and  N_22 
REMARK   11  A    between atoms: C_23  and  C_24 
ROOT
HETATM    1  H           1     -33.971  -1.226 -13.600  0.00  0.00     0.163 HD
HETATM    2  O           1     -37.007  -0.930 -12.867  0.00  0.00    -0.271 OA
HETATM    3  C           1     -35.966  -0.699 -13.435  0.00  0.00     0.249 C 
HETATM    4  N           1     -34.843  -1.419 -13.124  0.00  0.00    -0.345 N 
ENDROOT
BRANCH   4   5
HETATM    5  C           1     -34.903  -2.458 -12.114  0.00  0.00     0.185 C 
BRANCH   5   6
HETATM    6  C           1     -34.407  -1.910 -10.800  0.00  0.00     0.196 C 
HETATM    7  O           1     -33.185  -1.931 -10.535  0.00  0.00    -0.646 OA
HETATM    8  O           1     -35.216  -1.433  -9.975  0.00  0.00    -0.646 OA
ENDBRANCH   5   6
BRANCH   5   9
HETATM    9  C           1     -34.029  -3.629 -12.540  0.00  0.00     0.036 C 
BRANCH   9  10
HETATM   10  C           1     -34.672  -4.934 -12.088  0.00  0.00     0.004 C 
BRANCH  10  11
HETATM   11  C           1     -33.762  -5.626 -11.081  0.00  0.00     0.027 C 
BRANCH  11  12
HETATM   12  C           1     -34.587  -6.576 -10.221  0.00  0.00     0.229 C 
BRANCH  12  13
HETATM   13  N           1     -34.776  -7.873 -10.950  0.00  0.00    -0.079 N 
HETATM   14  H           1     -34.019  -8.540 -10.678  0.00  0.00     0.274 HD
HETATM   15  H           1     -35.705  -8.281 -10.698  0.00  0.00     0.274 HD
HETATM   16  H           1     -34.737  -7.703 -11.980  0.00  0.00     0.274 HD
ENDBRANCH  12  13
ENDBRANCH  11  12
ENDBRANCH  10  11
ENDBRANCH   9  10
ENDBRANCH   5   9
ENDBRANCH   4   5
BRANCH   3  17
HETATM   17  C           1     -35.903   0.382 -14.485  0.00  0.00     0.283 C 
BRANCH  17  18
HETATM   18  C           1     -36.746  -0.027 -15.685  0.00  0.00     0.113 C 
BRANCH  18  19
HETATM   19  S           1     -35.798  -1.165 -16.733  0.00  0.00    -0.180 SA
HETATM   20  H           1     -34.648  -0.468 -16.694  0.00  0.00     0.101 HD
ENDBRANCH  18  19
ENDBRANCH  17  18
BRANCH  17  21
HETATM   21  N           1     -34.479   0.575 -14.918  0.00  0.00    -0.066 N 
HETATM   22  H           1     -33.861   0.604 -14.076  0.00  0.00     0.275 HD
HETATM   23  H           1     -34.191  -0.217 -15.534  0.00  0.00     0.275 HD
HETATM   24  H           1     -34.394   1.475 -15.442  0.00  0.00     0.275 HD
ENDBRANCH  17  21
ENDBRANCH   3  17
TORSDOF 11
ENDMDL
MODEL 4
REMARK VINA RESULT:      -5.4      7.388      9.212
REMARK  11 active torsions:
REMARK  status: ('A' for Active; 'I' for Inactive)
REMARK    1  A    between atoms: C_4  and  C_23 
REMARK    2  A    between atoms: C_5  and  C_6 
REMARK    3  A    between atoms: C_5  and  S_10 
REMARK    4  A    between atoms: C_6  and  C_16 
REMARK    5  A    between atoms: C_6  and  N_11 
REMARK       I    between atoms: C_16  and  N_17 
REMARK    6  A    between atoms: N_17  and  C_23 
REMARK    7  A    between atoms: C_19  and  C_20 
REMARK    8  A    between atoms: C_19  and  C_24 
REMARK    9  A    between atoms: C_20  and  C_21 
REMARK   10  A    between atoms: C_21  and  N_22 
REMARK   11  A    between atoms: C_23  and  C_24 
ROOT
HETATM    1  H           1     -32.372  -3.650 -14.274  0.00  0.00     0.163 HD
HETATM    2  O           1     -34.998  -4.968 -15.372  0.00  0.00    -0.271 OA
HETATM    3  C           1     -33.879  -4.512 -15.399  0.00  0.00     0.249 C 
HETATM    4  N           1     -33.309  -4.030 -14.251  0.00  0.00    -0.345 N 
ENDROOT
BRANCH   4   5
HETATM    5  C           1     -34.047  -4.067 -13.004  0.00  0.00     0.185 C 
BRANCH   5   6
HETATM    6  C           1     -34.712  -2.732 -12.775  0.00  0.00     0.196 C 
HETATM    7  O           1     -34.929  -1.968 -13.741  0.00  0.00    -0.646 OA
HETATM    8  O           1     -35.047  -2.390 -11.621  0.00  0.00    -0.646 OA
ENDBRANCH   5   6
BRANCH   5   9
HETATM    9  C           1     -33.090  -4.361 -11.857  0.00  0.00     0.036 C 
BRANCH   9  10
HETATM   10  C           1     -33.389  -5.742 -11.287  0.00  0.00     0.004 C 
BRANCH  10  11
HETATM   11  C           1     -34.493  -5.632 -10.244  0.00  0.00     0.027 C 
BRANCH  11  12
HETATM   12  C           1     -34.915  -7.028  -9.802  0.00  0.00     0.229 C 
BRANCH  12  13
HETATM   13  N           1     -34.767  -7.982 -10.951  0.00  0.00    -0.079 N 
HETATM   14  H           1     -34.945  -8.957 -10.620  0.00  0.00     0.274 HD
HETATM   15  H           1     -35.456  -7.737 -11.698  0.00  0.00     0.274 HD
HETATM   16  H           1     -33.797  -7.916 -11.335  0.00  0.00     0.274 HD
ENDBRANCH  12  13
ENDBRANCH  11  12
ENDBRANCH  10  11
ENDBRANCH   9  10
ENDBRANCH   5   9
ENDBRANCH   4   5
BRANCH   3  17
HETATM   17  C           1     -33.111  -4.475 -16.697  0.00  0.00     0.283 C 
BRANCH  17  18
HETATM   18  C           1     -31.633  -4.711 -16.420  0.00  0.00     0.113 C 
BRANCH  18  19
HETATM   19  S           1     -30.635  -3.749 -17.591  0.00  0.00    -0.180 SA
HETATM   20  H           1     -29.925  -4.792 -18.061  0.00  0.00     0.101 HD
ENDBRANCH  18  19
ENDBRANCH  17  18
BRANCH  17  21
HETATM   21  N           1     -33.290  -3.133 -17.344  0.00  0.00    -0.066 N 
HETATM   22  H           1     -32.888  -3.155 -18.309  0.00  0.00     0.275 HD
HETATM   23  H           1     -34.308  -2.904 -17.396  0.00  0.00     0.275 HD
HETATM   24  H           1     -32.796  -2.406 -16.779  0.00  0.00     0.275 HD
ENDBRANCH  17  21
ENDBRANCH   3  17
TORSDOF 11
ENDMDL
MODEL 5
REMARK VINA RESULT:      -5.4      2.338      2.973
REMARK  11 active torsions:
REMARK  status: ('A' for Active; 'I' for Inactive)
REMARK    1  A    between atoms: C_4  and  C_23 
REMARK    2  A    between atoms: C_5  and  C_6 
REMARK    3  A    between atoms: C_5  and  S_10 
REMARK    4  A    between atoms: C_6  and  C_16 
REMARK    5  A    between atoms: C_6  and  N_11 
REMARK       I    between atoms: C_16  and  N_17 
REMARK    6  A    between atoms: N_17  and  C_23 
REMARK    7  A    between atoms: C_19  and  C_20 
REMARK    8  A    between atoms: C_19  and  C_24 
REMARK    9  A    between atoms: C_20  and  C_21 
REMARK   10  A    between atoms: C_21  and  N_22 
REMARK   11  A    between atoms: C_23  and  C_24 
ROOT
HETATM    1  H           1     -27.798  -7.218 -20.056  0.00  0.00     0.163 HD
HETATM    2  O           1     -26.217  -6.140 -17.570  0.00  0.00    -0.271 OA
HETATM    3  C           1     -26.388  -6.569 -18.686  0.00  0.00     0.249 C 
HETATM    4  N           1     -27.654  -6.859 -19.121  0.00  0.00    -0.345 N 
ENDROOT
BRANCH   4   5
HETATM    5  C           1     -28.789  -6.650 -18.243  0.00  0.00     0.185 C 
BRANCH   5   6
HETATM    6  C           1     -29.815  -7.729 -18.483  0.00  0.00     0.196 C 
HETATM    7  O           1     -29.621  -8.591 -19.367  0.00  0.00    -0.646 OA
HETATM    8  O           1     -30.859  -7.762 -17.797  0.00  0.00    -0.646 OA
ENDBRANCH   5   6
BRANCH   5   9
HETATM    9  C           1     -29.406  -5.288 -18.529  0.00  0.00     0.036 C 
BRANCH   9  10
HETATM   10  C           1     -29.364  -4.435 -17.268  0.00  0.00     0.004 C 
BRANCH  10  11
HETATM   11  C           1     -30.471  -4.877 -16.319  0.00  0.00     0.027 C 
BRANCH  11  12
HETATM   12  C           1     -31.819  -4.428 -16.868  0.00  0.00     0.229 C 
BRANCH  12  13
HETATM   13  N           1     -32.773  -5.586 -16.860  0.00  0.00    -0.079 N 
HETATM   14  H           1     -33.594  -5.358 -16.254  0.00  0.00     0.274 HD
HETATM   15  H           1     -33.101  -5.774 -17.834  0.00  0.00     0.274 HD
HETATM   16  H           1     -32.289  -6.433 -16.485  0.00  0.00     0.274 HD
ENDBRANCH  12  13
ENDBRANCH  11  12
ENDBRANCH  10  11
ENDBRANCH   9  10
ENDBRANCH   5   9
ENDBRANCH   4   5
BRANCH   3  17
HETATM   17  C           1     -25.208  -6.787 -19.600  0.00  0.00     0.283 C 
BRANCH  17  18
HETATM   18  C           1     -25.645  -7.602 -20.809  0.00  0.00     0.113 C 
BRANCH  18  19
HETATM   19  S           1     -24.224  -7.869 -21.906  0.00  0.00    -0.180 SA
HETATM   20  H           1     -23.323  -8.063 -20.926  0.00  0.00     0.101 HD
ENDBRANCH  18  19
ENDBRANCH  17  18
BRANCH  17  21
HETATM   21  N           1     -24.133  -7.528 -18.860  0.00  0.00    -0.066 N 
HETATM   22  H           1     -23.260  -6.955 -18.848  0.00  0.00     0.275 HD
HETATM   23  H           1     -24.446  -7.707 -17.879  0.00  0.00     0.275 HD
HETATM   24  H           1     -23.946  -8.438 -19.338  0.00  0.00     0.275 HD
ENDBRANCH  17  21
ENDBRANCH   3  17
TORSDOF 11
ENDMDL
MODEL 6
REMARK VINA RESULT:      -5.4     10.140     12.083
REMARK  11 active torsions:
REMARK  status: ('A' for Active; 'I' for Inactive)
REMARK    1  A    between atoms: C_4  and  C_23 
REMARK    2  A    between atoms: C_5  and  C_6 
REMARK    3  A    between atoms: C_5  and  S_10 
REMARK    4  A    between atoms: C_6  and  C_16 
REMARK    5  A    between atoms: C_6  and  N_11 
REMARK       I    between atoms: C_16  and  N_17 
REMARK    6  A    between atoms: N_17  and  C_23 
REMARK    7  A    between atoms: C_19  and  C_20 
REMARK    8  A    between atoms: C_19  and  C_24 
REMARK    9  A    between atoms: C_20  and  C_21 
REMARK   10  A    between atoms: C_21  and  N_22 
REMARK   11  A    between atoms: C_23  and  C_24 
ROOT
HETATM    1  H           1     -35.809  -2.486 -13.037  0.00  0.00     0.163 HD
HETATM    2  O           1     -33.280  -2.318 -11.190  0.00  0.00    -0.271 OA
HETATM    3  C           1     -34.048  -2.790 -11.994  0.00  0.00     0.249 C 
HETATM    4  N           1     -35.166  -2.091 -12.363  0.00  0.00    -0.345 N 
ENDROOT
BRANCH   4   5
HETATM    5  C           1     -35.428  -0.785 -11.790  0.00  0.00     0.185 C 
BRANCH   5   6
HETATM    6  C           1     -36.470  -0.913 -10.706  0.00  0.00     0.196 C 
HETATM    7  O           1     -37.627  -1.292 -10.992  0.00  0.00    -0.646 OA
HETATM    8  O           1     -36.178  -0.639  -9.523  0.00  0.00    -0.646 OA
ENDBRANCH   5   6
BRANCH   5   9
HETATM    9  C           1     -35.936   0.152 -12.877  0.00  0.00     0.036 C 
BRANCH   9  10
HETATM   10  C           1     -34.765   0.929 -13.465  0.00  0.00     0.004 C 
BRANCH  10  11
HETATM   11  C           1     -34.761   0.772 -14.980  0.00  0.00     0.027 C 
BRANCH  11  12
HETATM   12  C           1     -36.184   0.896 -15.508  0.00  0.00     0.229 C 
BRANCH  12  13
HETATM   13  N           1     -36.350   2.220 -16.192  0.00  0.00    -0.079 N 
HETATM   14  H           1     -35.474   2.458 -16.710  0.00  0.00     0.274 HD
HETATM   15  H           1     -37.148   2.167 -16.865  0.00  0.00     0.274 HD
HETATM   16  H           1     -36.544   2.958 -15.478  0.00  0.00     0.274 HD
ENDBRANCH  12  13
ENDBRANCH  11  12
ENDBRANCH  10  11
ENDBRANCH   9  10
ENDBRANCH   5   9
ENDBRANCH   4   5
BRANCH   3  17
HETATM   17  C           1     -33.775  -4.148 -12.590  0.00  0.00     0.283 C 
BRANCH  17  18
HETATM   18  C           1     -34.836  -5.133 -12.119  0.00  0.00     0.113 C 
BRANCH  18  19
HETATM   19  S           1     -34.255  -5.981 -10.624  0.00  0.00    -0.180 SA
HETATM   20  H           1     -33.616  -4.919 -10.098  0.00  0.00     0.101 HD
ENDBRANCH  18  19
ENDBRANCH  17  18
BRANCH  17  21
HETATM   21  N           1     -32.421  -4.624 -12.151  0.00  0.00    -0.066 N 
HETATM   22  H           1     -32.264  -4.354 -11.153  0.00  0.00     0.275 HD
HETATM   23  H           1     -32.371  -5.663 -12.242  0.00  0.00     0.275 HD
HETATM   24  H           1     -31.687  -4.184 -12.749  0.00  0.00     0.275 HD
ENDBRANCH  17  21
ENDBRANCH   3  17
TORSDOF 11
ENDMDL
MODEL 7
REMARK VINA RESULT:      -5.3     10.884     12.574
REMARK  11 active torsions:
REMARK  status: ('A' for Active; 'I' for Inactive)
REMARK    1  A    between atoms: C_4  and  C_23 
REMARK    2  A    between atoms: C_5  and  C_6 
REMARK    3  A    between atoms: C_5  and  S_10 
REMARK    4  A    between atoms: C_6  and  C_16 
REMARK    5  A    between atoms: C_6  and  N_11 
REMARK       I    between atoms: C_16  and  N_17 
REMARK    6  A    between atoms: N_17  and  C_23 
REMARK    7  A    between atoms: C_19  and  C_20 
REMARK    8  A    between atoms: C_19  and  C_24 
REMARK    9  A    between atoms: C_20  and  C_21 
REMARK   10  A    between atoms: C_21  and  N_22 
REMARK   11  A    between atoms: C_23  and  C_24 
ROOT
HETATM    1  H           1     -34.966  -0.015 -12.242  0.00  0.00     0.163 HD
HETATM    2  O           1     -37.772  -0.704 -13.464  0.00  0.00    -0.271 OA
HETATM    3  C           1     -36.653  -0.252 -13.418  0.00  0.00     0.249 C 
HETATM    4  N           1     -35.904  -0.393 -12.280  0.00  0.00    -0.345 N 
ENDROOT
BRANCH   4   5
HETATM    5  C           1     -36.454  -1.085 -11.130  0.00  0.00     0.185 C 
BRANCH   5   6
HETATM    6  C           1     -36.784  -0.083 -10.052  0.00  0.00     0.196 C 
HETATM    7  O           1     -36.167  -0.110  -8.964  0.00  0.00    -0.646 OA
HETATM    8  O           1     -37.672   0.774 -10.245  0.00  0.00    -0.646 OA
ENDBRANCH   5   6
BRANCH   5   9
HETATM    9  C           1     -35.432  -2.083 -10.604  0.00  0.00     0.036 C 
BRANCH   9  10
HETATM   10  C           1     -34.104  -1.876 -11.320  0.00  0.00     0.004 C 
BRANCH  10  11
HETATM   11  C           1     -33.426  -3.223 -11.533  0.00  0.00     0.027 C 
BRANCH  11  12
HETATM   12  C           1     -33.925  -3.845 -12.830  0.00  0.00     0.229 C 
BRANCH  12  13
HETATM   13  N           1     -34.594  -5.154 -12.533  0.00  0.00    -0.079 N 
HETATM   14  H           1     -33.952  -5.752 -11.965  0.00  0.00     0.274 HD
HETATM   15  H           1     -35.474  -4.982 -11.997  0.00  0.00     0.274 HD
HETATM   16  H           1     -34.820  -5.640 -13.430  0.00  0.00     0.274 HD
ENDBRANCH  12  13
ENDBRANCH  11  12
ENDBRANCH  10  11
ENDBRANCH   9  10
ENDBRANCH   5   9
ENDBRANCH   4   5
BRANCH   3  17
HETATM   17  C           1     -36.080   0.468 -14.614  0.00  0.00     0.283 C 
BRANCH  17  18
HETATM   18  C           1     -36.681  -0.107 -15.889  0.00  0.00     0.113 C 
BRANCH  18  19
HETATM   19  S           1     -35.536  -1.318 -16.606  0.00  0.00    -0.180 SA
HETATM   20  H           1     -35.239  -0.599 -17.704  0.00  0.00     0.101 HD
ENDBRANCH  18  19
ENDBRANCH  17  18
BRANCH  17  21
HETATM   21  N           1     -34.590   0.289 -14.638  0.00  0.00    -0.066 N 
HETATM   22  H           1     -34.206   0.436 -13.677  0.00  0.00     0.275 HD
HETATM   23  H           1     -34.361  -0.678 -14.960  0.00  0.00     0.275 HD
HETATM   24  H           1     -34.167   0.985 -15.292  0.00  0.00     0.275 HD
ENDBRANCH  17  21
ENDBRANCH   3  17
TORSDOF 11
ENDMDL
MODEL 8
REMARK VINA RESULT:      -5.2      2.174      2.536
REMARK  11 active torsions:
REMARK  status: ('A' for Active; 'I' for Inactive)
REMARK    1  A    between atoms: C_4  and  C_23 
REMARK    2  A    between atoms: C_5  and  C_6 
REMARK    3  A    between atoms: C_5  and  S_10 
REMARK    4  A    between atoms: C_6  and  C_16 
REMARK    5  A    between atoms: C_6  and  N_11 
REMARK       I    between atoms: C_16  and  N_17 
REMARK    6  A    between atoms: N_17  and  C_23 
REMARK    7  A    between atoms: C_19  and  C_20 
REMARK    8  A    between atoms: C_19  and  C_24 
REMARK    9  A    between atoms: C_20  and  C_21 
REMARK   10  A    between atoms: C_21  and  N_22 
REMARK   11  A    between atoms: C_23  and  C_24 
ROOT
HETATM    1  H           1     -25.970  -6.689 -17.658  0.00  0.00     0.163 HD
HETATM    2  O           1     -26.998  -5.929 -20.522  0.00  0.00    -0.271 OA
HETATM    3  C           1     -26.253  -6.379 -19.684  0.00  0.00     0.249 C 
HETATM    4  N           1     -26.593  -6.312 -18.359  0.00  0.00    -0.345 N 
ENDROOT
BRANCH   4   5
HETATM    5  C           1     -27.847  -5.702 -17.962  0.00  0.00     0.185 C 
BRANCH   5   6
HETATM    6  C           1     -27.643  -4.914 -16.692  0.00  0.00     0.196 C 
HETATM    7  O           1     -27.173  -5.474 -15.678  0.00  0.00    -0.646 OA
HETATM    8  O           1     -27.943  -3.702 -16.653  0.00  0.00    -0.646 OA
ENDBRANCH   5   6
BRANCH   5   9
HETATM    9  C           1     -28.887  -6.789 -17.725  0.00  0.00     0.036 C 
BRANCH   9  10
HETATM   10  C           1     -30.274  -6.241 -18.030  0.00  0.00     0.004 C 
BRANCH  10  11
HETATM   11  C           1     -30.864  -5.622 -16.769  0.00  0.00     0.027 C 
BRANCH  11  12
HETATM   12  C           1     -31.632  -4.358 -17.135  0.00  0.00     0.229 C 
BRANCH  12  13
HETATM   13  N           1     -30.724  -3.416 -17.868  0.00  0.00    -0.079 N 
HETATM   14  H           1     -29.983  -3.960 -18.364  0.00  0.00     0.274 HD
HETATM   15  H           1     -31.279  -2.869 -18.564  0.00  0.00     0.274 HD
HETATM   16  H           1     -30.278  -2.762 -17.186  0.00  0.00     0.274 HD
ENDBRANCH  12  13
ENDBRANCH  11  12
ENDBRANCH  10  11
ENDBRANCH   9  10
ENDBRANCH   5   9
ENDBRANCH   4   5
BRANCH   3  17
HETATM   17  C           1     -24.948  -7.014 -20.098  0.00  0.00     0.283 C 
BRANCH  17  18
HETATM   18  C           1     -25.211  -8.064 -21.167  0.00  0.00     0.113 C 
BRANCH  18  19
HETATM   19  S           1     -23.924  -7.965 -22.443  0.00  0.00    -0.180 SA
HETATM   20  H           1     -24.043  -6.643 -22.661  0.00  0.00     0.101 HD
ENDBRANCH  18  19
ENDBRANCH  17  18
BRANCH  17  21
HETATM   21  N           1     -24.310  -7.663 -18.905  0.00  0.00    -0.066 N 
HETATM   22  H           1     -24.339  -8.702 -19.017  0.00  0.00     0.275 HD
HETATM   23  H           1     -23.316  -7.349 -18.827  0.00  0.00     0.275 HD
HETATM   24  H           1     -24.831  -7.392 -18.041  0.00  0.00     0.275 HD
ENDBRANCH  17  21
ENDBRANCH   3  17
TORSDOF 11
ENDMDL
MODEL 9
REMARK VINA RESULT:      -5.1     10.707     12.195
REMARK  11 active torsions:
REMARK  status: ('A' for Active; 'I' for Inactive)
REMARK    1  A    between atoms: C_4  and  C_23 
REMARK    2  A    between atoms: C_5  and  C_6 
REMARK    3  A    between atoms: C_5  and  S_10 
REMARK    4  A    between atoms: C_6  and  C_16 
REMARK    5  A    between atoms: C_6  and  N_11 
REMARK       I    between atoms: C_16  and  N_17 
REMARK    6  A    between atoms: N_17  and  C_23 
REMARK    7  A    between atoms: C_19  and  C_20 
REMARK    8  A    between atoms: C_19  and  C_24 
REMARK    9  A    between atoms: C_20  and  C_21 
REMARK   10  A    between atoms: C_21  and  N_22 
REMARK   11  A    between atoms: C_23  and  C_24 
ROOT
HETATM    1  H           1     -35.344  -2.954 -11.068  0.00  0.00     0.163 HD
HETATM    2  O           1     -34.597  -0.712 -13.131  0.00  0.00    -0.271 OA
HETATM    3  C           1     -35.186  -1.241 -12.218  0.00  0.00     0.249 C 
HETATM    4  N           1     -34.852  -2.512 -11.833  0.00  0.00    -0.345 N 
ENDROOT
BRANCH   4   5
HETATM    5  C           1     -33.792  -3.223 -12.521  0.00  0.00     0.185 C 
BRANCH   5   6
HETATM    6  C           1     -34.385  -4.056 -13.631  0.00  0.00     0.196 C 
HETATM    7  O           1     -35.105  -5.040 -13.357  0.00  0.00    -0.646 OA
HETATM    8  O           1     -34.156  -3.763 -14.823  0.00  0.00    -0.646 OA
ENDBRANCH   5   6
BRANCH   5   9
HETATM    9  C           1     -33.068  -4.129 -11.535  0.00  0.00     0.036 C 
BRANCH   9  10
HETATM   10  C           1     -34.081  -4.776 -10.601  0.00  0.00     0.004 C 
BRANCH  10  11
HETATM   11  C           1     -33.901  -6.289 -10.624  0.00  0.00     0.027 C 
BRANCH  11  12
HETATM   12  C           1     -34.973  -6.941  -9.760  0.00  0.00     0.229 C 
BRANCH  12  13
HETATM   13  N           1     -34.579  -8.357  -9.459  0.00  0.00    -0.079 N 
HETATM   14  H           1     -34.833  -8.587  -8.471  0.00  0.00     0.274 HD
HETATM   15  H           1     -35.083  -9.003 -10.107  0.00  0.00     0.274 HD
HETATM   16  H           1     -33.548  -8.466  -9.588  0.00  0.00     0.274 HD
ENDBRANCH  12  13
ENDBRANCH  11  12
ENDBRANCH  10  11
ENDBRANCH   9  10
ENDBRANCH   5   9
ENDBRANCH   4   5
BRANCH   3  17
HETATM   17  C           1     -36.288  -0.500 -11.502  0.00  0.00     0.283 C 
BRANCH  17  18
HETATM   18  C           1     -36.765  -1.324 -10.314  0.00  0.00     0.113 C 
BRANCH  18  19
HETATM   19  S           1     -37.087  -0.227  -8.905  0.00  0.00    -0.180 SA
HETATM   20  H           1     -36.329   0.793  -9.345  0.00  0.00     0.101 HD
ENDBRANCH  18  19
ENDBRANCH  17  18
BRANCH  17  21
HETATM   21  N           1     -37.433  -0.275 -12.446  0.00  0.00    -0.066 N 
HETATM   22  H           1     -38.258   0.083 -11.913  0.00  0.00     0.275 HD
HETATM   23  H           1     -37.155   0.427 -13.169  0.00  0.00     0.275 HD
HETATM   24  H           1     -37.683  -1.176 -12.910  0.00  0.00     0.275 HD
ENDBRANCH  17  21
ENDBRANCH   3  17
TORSDOF 11
ENDMDL
