MODEL 1
REMARK VINA RESULT:      -5.5      0.000      0.000
REMARK  9 active torsions:
REMARK  status: ('A' for Active; 'I' for Inactive)
REMARK    1  A    between atoms: N_2  and  C_6 
REMARK    2  A    between atoms: S_3  and  C_14 
REMARK    3  A    between atoms: C_6  and  C_7 
REMARK    4  A    between atoms: C_6  and  C_13 
REMARK       I    between atoms: C_7  and  N_19 
REMARK    5  A    between atoms: C_13  and  C_20 
REMARK    6  A    between atoms: C_14  and  C_15 
REMARK    7  A    between atoms: C_15  and  C_16 
REMARK    8  A    between atoms: C_16  and  C_17 
REMARK    9  A    between atoms: C_16  and  N_19 
ROOT
HETATM    1  O           1     -20.481  -3.710  -7.063  0.00  0.00    -0.271 OA
HETATM    2  C           1     -21.499  -4.235  -7.446  0.00  0.00     0.249 C 
HETATM    3  H           1     -22.818  -5.802  -7.145  0.00  0.00     0.163 HD
HETATM    4  N           1     -21.965  -5.362  -6.823  0.00  0.00    -0.345 N 
ENDROOT
BRANCH   2   5
HETATM    5  C           1     -22.256  -3.650  -8.612  0.00  0.00     0.284 C 
BRANCH   5   6
HETATM    6  N           1     -21.488  -3.890  -9.878  0.00  0.00    -0.066 N 
HETATM    7  H           1     -21.575  -3.056 -10.503  0.00  0.00     0.275 HD
HETATM    8  H           1     -20.481  -4.049  -9.649  0.00  0.00     0.275 HD
HETATM    9  H           1     -21.873  -4.731 -10.364  0.00  0.00     0.275 HD
ENDBRANCH   5   6
BRANCH   5  10
HETATM   10  C           1     -23.624  -4.313  -8.715  0.00  0.00     0.155 C 
BRANCH  10  11
HETATM   11  C           1     -24.402  -3.688  -9.847  0.00  0.00     0.175 C 
HETATM   12  O           1     -25.268  -2.820  -9.605  0.00  0.00    -0.648 OA
HETATM   13  O           1     -24.180  -4.038 -11.025  0.00  0.00    -0.648 OA
ENDBRANCH  10  11
ENDBRANCH   5  10
ENDBRANCH   2   5
BRANCH   4  14
HETATM   14  C           1     -21.237  -5.925  -5.702  0.00  0.00     0.186 C 
BRANCH  14  15
HETATM   15  C           1     -22.220  -6.349  -4.620  0.00  0.00     0.046 C 
BRANCH  15  16
HETATM   16  C           1     -21.617  -6.077  -3.249  0.00  0.00     0.076 C 
BRANCH  16  17
HETATM   17  S           1     -21.444  -7.640  -2.343  0.00  0.00    -0.173 SA
HETATM   18  C           1     -22.300  -7.093  -0.839  0.00  0.00     0.089 C 
ENDBRANCH  16  17
ENDBRANCH  15  16
ENDBRANCH  14  15
BRANCH  14  19
HETATM   19  C           1     -20.449  -7.126  -6.166  0.00  0.00     0.196 C 
HETATM   20  O           1     -20.828  -8.277  -5.861  0.00  0.00    -0.646 OA
HETATM   21  O           1     -19.420  -6.969  -6.857  0.00  0.00    -0.646 OA
ENDBRANCH  14  19
ENDBRANCH   4  14
TORSDOF 9
ENDMDL
MODEL 2
REMARK VINA RESULT:      -5.2      3.397      6.818
REMARK  9 active torsions:
REMARK  status: ('A' for Active; 'I' for Inactive)
REMARK    1  A    between atoms: N_2  and  C_6 
REMARK    2  A    between atoms: S_3  and  C_14 
REMARK    3  A    between atoms: C_6  and  C_7 
REMARK    4  A    between atoms: C_6  and  C_13 
REMARK       I    between atoms: C_7  and  N_19 
REMARK    5  A    between atoms: C_13  and  C_20 
REMARK    6  A    between atoms: C_14  and  C_15 
REMARK    7  A    between atoms: C_15  and  C_16 
REMARK    8  A    between atoms: C_16  and  C_17 
REMARK    9  A    between atoms: C_16  and  N_19 
ROOT
HETATM    1  O           1     -21.742  -7.451  -4.761  0.00  0.00    -0.271 OA
HETATM    2  C           1     -21.341  -6.437  -4.241  0.00  0.00     0.249 C 
HETATM    3  H           1     -20.691  -4.501  -4.577  0.00  0.00     0.163 HD
HETATM    4  N           1     -21.027  -5.350  -5.012  0.00  0.00    -0.345 N 
ENDROOT
BRANCH   2   5
HETATM    5  C           1     -21.187  -6.368  -2.741  0.00  0.00     0.284 C 
BRANCH   5   6
HETATM    6  N           1     -22.511  -6.040  -2.118  0.00  0.00    -0.066 N 
HETATM    7  H           1     -22.389  -5.908  -1.088  0.00  0.00     0.275 HD
HETATM    8  H           1     -22.887  -5.161  -2.539  0.00  0.00     0.275 HD
HETATM    9  H           1     -23.180  -6.824  -2.291  0.00  0.00     0.275 HD
ENDBRANCH   5   6
BRANCH   5  10
HETATM   10  C           1     -20.698  -7.712  -2.218  0.00  0.00     0.155 C 
BRANCH  10  11
HETATM   11  C           1     -21.635  -8.204  -1.142  0.00  0.00     0.175 C 
HETATM   12  O           1     -22.440  -9.128  -1.389  0.00  0.00    -0.648 OA
HETATM   13  O           1     -21.606  -7.688  -0.005  0.00  0.00    -0.648 OA
ENDBRANCH  10  11
ENDBRANCH   5  10
ENDBRANCH   2   5
BRANCH   4  14
HETATM   14  C           1     -21.175  -5.417  -6.453  0.00  0.00     0.186 C 
BRANCH  14  15
HETATM   15  C           1     -21.735  -4.097  -6.966  0.00  0.00     0.046 C 
BRANCH  15  16
HETATM   16  C           1     -22.884  -4.371  -7.927  0.00  0.00     0.076 C 
BRANCH  16  17
HETATM   17  S           1     -22.300  -4.195  -9.636  0.00  0.00    -0.173 SA
HETATM   18  C           1     -23.831  -4.762 -10.429  0.00  0.00     0.089 C 
ENDBRANCH  16  17
ENDBRANCH  15  16
ENDBRANCH  14  15
BRANCH  14  19
HETATM   19  C           1     -19.830  -5.673  -7.086  0.00  0.00     0.196 C 
HETATM   20  O           1     -19.368  -6.834  -7.126  0.00  0.00    -0.646 OA
HETATM   21  O           1     -19.177  -4.724  -7.571  0.00  0.00    -0.646 OA
ENDBRANCH  14  19
ENDBRANCH   4  14
TORSDOF 9
ENDMDL
MODEL 3
REMARK VINA RESULT:      -5.2      2.151      2.770
REMARK  9 active torsions:
REMARK  status: ('A' for Active; 'I' for Inactive)
REMARK    1  A    between atoms: N_2  and  C_6 
REMARK    2  A    between atoms: S_3  and  C_14 
REMARK    3  A    between atoms: C_6  and  C_7 
REMARK    4  A    between atoms: C_6  and  C_13 
REMARK       I    between atoms: C_7  and  N_19 
REMARK    5  A    between atoms: C_13  and  C_20 
REMARK    6  A    between atoms: C_14  and  C_15 
REMARK    7  A    between atoms: C_15  and  C_16 
REMARK    8  A    between atoms: C_16  and  C_17 
REMARK    9  A    between atoms: C_16  and  N_19 
ROOT
HETATM    1  O           1     -23.800  -4.404  -6.811  0.00  0.00    -0.271 OA
HETATM    2  C           1     -23.072  -4.591  -7.757  0.00  0.00     0.249 C 
HETATM    3  H           1     -21.208  -5.262  -8.357  0.00  0.00     0.163 HD
HETATM    4  N           1     -21.818  -5.106  -7.564  0.00  0.00    -0.345 N 
ENDROOT
BRANCH   2   5
HETATM    5  C           1     -23.545  -4.257  -9.150  0.00  0.00     0.284 C 
BRANCH   5   6
HETATM    6  N           1     -24.572  -3.165  -9.081  0.00  0.00    -0.066 N 
HETATM    7  H           1     -25.016  -3.044 -10.019  0.00  0.00     0.275 HD
HETATM    8  H           1     -25.304  -3.420  -8.380  0.00  0.00     0.275 HD
HETATM    9  H           1     -24.110  -2.272  -8.795  0.00  0.00     0.275 HD
ENDBRANCH   5   6
BRANCH   5  10
HETATM   10  C           1     -22.363  -3.790  -9.990  0.00  0.00     0.155 C 
BRANCH  10  11
HETATM   11  C           1     -22.600  -4.151 -11.436  0.00  0.00     0.175 C 
HETATM   12  O           1     -21.729  -3.895 -12.295  0.00  0.00    -0.648 OA
HETATM   13  O           1     -23.667  -4.706 -11.774  0.00  0.00    -0.648 OA
ENDBRANCH  10  11
ENDBRANCH   5  10
ENDBRANCH   2   5
BRANCH   4  14
HETATM   14  C           1     -21.363  -5.426  -6.225  0.00  0.00     0.186 C 
BRANCH  14  15
HETATM   15  C           1     -21.244  -6.937  -6.079  0.00  0.00     0.046 C 
BRANCH  15  16
HETATM   16  C           1     -21.831  -7.366  -4.741  0.00  0.00     0.076 C 
BRANCH  16  17
HETATM   17  S           1     -21.274  -9.048  -4.346  0.00  0.00    -0.173 SA
HETATM   18  C           1     -19.496  -8.703  -4.473  0.00  0.00     0.089 C 
ENDBRANCH  16  17
ENDBRANCH  15  16
ENDBRANCH  14  15
BRANCH  14  19
HETATM   19  C           1     -20.017  -4.789  -5.985  0.00  0.00     0.196 C 
HETATM   20  O           1     -19.207  -4.665  -6.929  0.00  0.00    -0.646 OA
HETATM   21  O           1     -19.712  -4.385  -4.842  0.00  0.00    -0.646 OA
ENDBRANCH  14  19
ENDBRANCH   4  14
TORSDOF 9
ENDMDL
MODEL 4
REMARK VINA RESULT:      -5.2     14.504     16.653
REMARK  9 active torsions:
REMARK  status: ('A' for Active; 'I' for Inactive)
REMARK    1  A    between atoms: N_2  and  C_6 
REMARK    2  A    between atoms: S_3  and  C_14 
REMARK    3  A    between atoms: C_6  and  C_7 
REMARK    4  A    between atoms: C_6  and  C_13 
REMARK       I    between atoms: C_7  and  N_19 
REMARK    5  A    between atoms: C_13  and  C_20 
REMARK    6  A    between atoms: C_14  and  C_15 
REMARK    7  A    between atoms: C_15  and  C_16 
REMARK    8  A    between atoms: C_16  and  C_17 
REMARK    9  A    between atoms: C_16  and  N_19 
ROOT
HETATM    1  O           1     -37.763  -1.057 -10.901  0.00  0.00    -0.271 OA
HETATM    2  C           1     -36.735  -0.993 -10.270  0.00  0.00     0.249 C 
HETATM    3  H           1     -34.676  -1.194 -10.355  0.00  0.00     0.163 HD
HETATM    4  N           1     -35.537  -1.247 -10.884  0.00  0.00    -0.345 N 
ENDROOT
BRANCH   2   5
HETATM    5  C           1     -36.770  -0.633  -8.805  0.00  0.00     0.284 C 
BRANCH   5   6
HETATM    6  N           1     -35.613   0.265  -8.483  0.00  0.00    -0.066 N 
HETATM    7  H           1     -35.217   0.005  -7.552  0.00  0.00     0.275 HD
HETATM    8  H           1     -34.875   0.159  -9.216  0.00  0.00     0.275 HD
HETATM    9  H           1     -35.940   1.257  -8.458  0.00  0.00     0.275 HD
ENDBRANCH   5   6
BRANCH   5  10
HETATM   10  C           1     -38.075   0.087  -8.489  0.00  0.00     0.155 C 
BRANCH  10  11
HETATM   11  C           1     -37.785   1.308  -7.652  0.00  0.00     0.175 C 
HETATM   12  O           1     -37.746   2.437  -8.187  0.00  0.00    -0.648 OA
HETATM   13  O           1     -37.585   1.191  -6.424  0.00  0.00    -0.648 OA
ENDBRANCH  10  11
ENDBRANCH   5  10
ENDBRANCH   2   5
BRANCH   4  14
HETATM   14  C           1     -35.504  -1.592 -12.292  0.00  0.00     0.186 C 
BRANCH  14  15
HETATM   15  C           1     -35.186  -0.349 -13.111  0.00  0.00     0.046 C 
BRANCH  15  16
HETATM   16  C           1     -36.398   0.029 -13.952  0.00  0.00     0.076 C 
BRANCH  16  17
HETATM   17  S           1     -35.957  -0.029 -15.712  0.00  0.00    -0.173 SA
HETATM   18  C           1     -37.525  -0.737 -16.288  0.00  0.00     0.089 C 
ENDBRANCH  16  17
ENDBRANCH  15  16
ENDBRANCH  14  15
BRANCH  14  19
HETATM   19  C           1     -34.440  -2.636 -12.528  0.00  0.00     0.196 C 
HETATM   20  O           1     -33.573  -2.855 -11.654  0.00  0.00    -0.646 OA
HETATM   21  O           1     -34.425  -3.282 -13.598  0.00  0.00    -0.646 OA
ENDBRANCH  14  19
ENDBRANCH   4  14
TORSDOF 9
ENDMDL
MODEL 5
REMARK VINA RESULT:      -5.1      2.901      4.463
REMARK  9 active torsions:
REMARK  status: ('A' for Active; 'I' for Inactive)
REMARK    1  A    between atoms: N_2  and  C_6 
REMARK    2  A    between atoms: S_3  and  C_14 
REMARK    3  A    between atoms: C_6  and  C_7 
REMARK    4  A    between atoms: C_6  and  C_13 
REMARK       I    between atoms: C_7  and  N_19 
REMARK    5  A    between atoms: C_13  and  C_20 
REMARK    6  A    between atoms: C_14  and  C_15 
REMARK    7  A    between atoms: C_15  and  C_16 
REMARK    8  A    between atoms: C_16  and  C_17 
REMARK    9  A    between atoms: C_16  and  N_19 
ROOT
HETATM    1  O           1     -22.416  -6.892  -5.052  0.00  0.00    -0.271 OA
HETATM    2  C           1     -21.249  -6.770  -4.764  0.00  0.00     0.249 C 
HETATM    3  H           1     -19.823  -7.075  -3.295  0.00  0.00     0.163 HD
HETATM    4  N           1     -20.800  -7.178  -3.536  0.00  0.00    -0.345 N 
ENDROOT
BRANCH   2   5
HETATM    5  C           1     -20.286  -6.167  -5.758  0.00  0.00     0.284 C 
BRANCH   5   6
HETATM    6  N           1     -20.663  -6.601  -7.143  0.00  0.00    -0.066 N 
HETATM    7  H           1     -21.128  -5.808  -7.643  0.00  0.00     0.275 HD
HETATM    8  H           1     -19.804  -6.884  -7.666  0.00  0.00     0.275 HD
HETATM    9  H           1     -21.321  -7.411  -7.087  0.00  0.00     0.275 HD
ENDBRANCH   5   6
BRANCH   5  10
HETATM   10  C           1     -20.346  -4.648  -5.667  0.00  0.00     0.155 C 
BRANCH  10  11
HETATM   11  C           1     -20.784  -4.082  -6.995  0.00  0.00     0.175 C 
HETATM   12  O           1     -21.999  -3.912  -7.231  0.00  0.00    -0.648 OA
HETATM   13  O           1     -19.932  -3.783  -7.858  0.00  0.00    -0.648 OA
ENDBRANCH  10  11
ENDBRANCH   5  10
ENDBRANCH   2   5
BRANCH   4  14
HETATM   14  C           1     -21.726  -7.756  -2.582  0.00  0.00     0.186 C 
BRANCH  14  15
HETATM   15  C           1     -21.022  -8.853  -1.794  0.00  0.00     0.046 C 
BRANCH  15  16
HETATM   16  C           1     -21.881 -10.109  -1.792  0.00  0.00     0.076 C 
BRANCH  16  17
HETATM   17  S           1     -22.147 -10.659  -0.083  0.00  0.00    -0.173 SA
HETATM   18  C           1     -23.937 -10.917  -0.233  0.00  0.00     0.089 C 
ENDBRANCH  16  17
ENDBRANCH  15  16
ENDBRANCH  14  15
BRANCH  14  19
HETATM   19  C           1     -22.207  -6.685  -1.634  0.00  0.00     0.196 C 
HETATM   20  O           1     -22.780  -7.003  -0.570  0.00  0.00    -0.646 OA
HETATM   21  O           1     -22.030  -5.479  -1.913  0.00  0.00    -0.646 OA
ENDBRANCH  14  19
ENDBRANCH   4  14
TORSDOF 9
ENDMDL
MODEL 6
REMARK VINA RESULT:      -5.0      2.790      3.654
REMARK  9 active torsions:
REMARK  status: ('A' for Active; 'I' for Inactive)
REMARK    1  A    between atoms: N_2  and  C_6 
REMARK    2  A    between atoms: S_3  and  C_14 
REMARK    3  A    between atoms: C_6  and  C_7 
REMARK    4  A    between atoms: C_6  and  C_13 
REMARK       I    between atoms: C_7  and  N_19 
REMARK    5  A    between atoms: C_13  and  C_20 
REMARK    6  A    between atoms: C_14  and  C_15 
REMARK    7  A    between atoms: C_15  and  C_16 
REMARK    8  A    between atoms: C_16  and  C_17 
REMARK    9  A    between atoms: C_16  and  N_19 
ROOT
HETATM    1  O           1     -22.576  -5.565  -5.688  0.00  0.00    -0.271 OA
HETATM    2  C           1     -21.388  -5.783  -5.677  0.00  0.00     0.249 C 
HETATM    3  H           1     -19.877  -6.904  -4.815  0.00  0.00     0.163 HD
HETATM    4  N           1     -20.872  -6.722  -4.825  0.00  0.00    -0.345 N 
ENDROOT
BRANCH   2   5
HETATM    5  C           1     -20.473  -5.019  -6.602  0.00  0.00     0.284 C 
BRANCH   5   6
HETATM    6  N           1     -19.910  -5.954  -7.631  0.00  0.00    -0.066 N 
HETATM    7  H           1     -19.464  -6.771  -7.154  0.00  0.00     0.275 HD
HETATM    8  H           1     -20.679  -6.293  -8.252  0.00  0.00     0.275 HD
HETATM    9  H           1     -19.194  -5.452  -8.203  0.00  0.00     0.275 HD
ENDBRANCH   5   6
BRANCH   5  10
HETATM   10  C           1     -21.258  -3.914  -7.296  0.00  0.00     0.155 C 
BRANCH  10  11
HETATM   11  C           1     -21.402  -4.243  -8.761  0.00  0.00     0.175 C 
HETATM   12  O           1     -20.522  -3.884  -9.572  0.00  0.00    -0.648 OA
HETATM   13  O           1     -22.402  -4.876  -9.163  0.00  0.00    -0.648 OA
ENDBRANCH  10  11
ENDBRANCH   5  10
ENDBRANCH   2   5
BRANCH   4  14
HETATM   14  C           1     -21.752  -7.456  -3.935  0.00  0.00     0.186 C 
BRANCH  14  15
HETATM   15  C           1     -21.354  -8.926  -3.927  0.00  0.00     0.046 C 
BRANCH  15  16
HETATM   16  C           1     -20.137  -9.127  -4.820  0.00  0.00     0.076 C 
BRANCH  16  17
HETATM   17  S           1     -19.094 -10.446  -4.134  0.00  0.00    -0.173 SA
HETATM   18  C           1     -18.187  -9.395  -2.965  0.00  0.00     0.089 C 
ENDBRANCH  16  17
ENDBRANCH  15  16
ENDBRANCH  14  15
BRANCH  14  19
HETATM   19  C           1     -21.637  -6.895  -2.539  0.00  0.00     0.196 C 
HETATM   20  O           1     -20.868  -7.431  -1.712  0.00  0.00    -0.646 OA
HETATM   21  O           1     -22.310  -5.894  -2.210  0.00  0.00    -0.646 OA
ENDBRANCH  14  19
ENDBRANCH   4  14
TORSDOF 9
ENDMDL
MODEL 7
REMARK VINA RESULT:      -4.9      1.931      2.288
REMARK  9 active torsions:
REMARK  status: ('A' for Active; 'I' for Inactive)
REMARK    1  A    between atoms: N_2  and  C_6 
REMARK    2  A    between atoms: S_3  and  C_14 
REMARK    3  A    between atoms: C_6  and  C_7 
REMARK    4  A    between atoms: C_6  and  C_13 
REMARK       I    between atoms: C_7  and  N_19 
REMARK    5  A    between atoms: C_13  and  C_20 
REMARK    6  A    between atoms: C_14  and  C_15 
REMARK    7  A    between atoms: C_15  and  C_16 
REMARK    8  A    between atoms: C_16  and  C_17 
REMARK    9  A    between atoms: C_16  and  N_19 
ROOT
HETATM    1  O           1     -19.732  -5.107  -6.728  0.00  0.00    -0.271 OA
HETATM    2  C           1     -20.882  -5.371  -6.988  0.00  0.00     0.249 C 
HETATM    3  H           1     -22.580  -6.369  -6.351  0.00  0.00     0.163 HD
HETATM    4  N           1     -21.617  -6.147  -6.132  0.00  0.00    -0.345 N 
ENDROOT
BRANCH   2   5
HETATM    5  C           1     -21.508  -4.846  -8.257  0.00  0.00     0.284 C 
BRANCH   5   6
HETATM    6  N           1     -22.403  -3.688  -7.930  0.00  0.00    -0.066 N 
HETATM    7  H           1     -22.132  -3.289  -7.002  0.00  0.00     0.275 HD
HETATM    8  H           1     -22.304  -2.953  -8.666  0.00  0.00     0.275 HD
HETATM    9  H           1     -23.394  -4.014  -7.892  0.00  0.00     0.275 HD
ENDBRANCH   5   6
BRANCH   5  10
HETATM   10  C           1     -20.413  -4.388  -9.212  0.00  0.00     0.155 C 
BRANCH  10  11
HETATM   11  C           1     -21.032  -3.974 -10.525  0.00  0.00     0.175 C 
HETATM   12  O           1     -22.108  -4.488 -10.898  0.00  0.00    -0.648 OA
HETATM   13  O           1     -20.468  -3.116 -11.238  0.00  0.00    -0.648 OA
ENDBRANCH  10  11
ENDBRANCH   5  10
ENDBRANCH   2   5
BRANCH   4  14
HETATM   14  C           1     -21.015  -6.652  -4.913  0.00  0.00     0.186 C 
BRANCH  14  15
HETATM   15  C           1     -22.024  -6.563  -3.776  0.00  0.00     0.046 C 
BRANCH  15  16
HETATM   16  C           1     -21.290  -6.344  -2.461  0.00  0.00     0.076 C 
BRANCH  16  17
HETATM   17  S           1     -22.257  -7.057  -1.100  0.00  0.00    -0.173 SA
HETATM   18  C           1     -21.388  -8.650  -1.052  0.00  0.00     0.089 C 
ENDBRANCH  16  17
ENDBRANCH  15  16
ENDBRANCH  14  15
BRANCH  14  19
HETATM   19  C           1     -20.606  -8.090  -5.112  0.00  0.00     0.196 C 
HETATM   20  O           1     -19.499  -8.360  -5.625  0.00  0.00    -0.646 OA
HETATM   21  O           1     -21.375  -9.012  -4.763  0.00  0.00    -0.646 OA
ENDBRANCH  14  19
ENDBRANCH   4  14
TORSDOF 9
ENDMDL
MODEL 8
REMARK VINA RESULT:      -4.8      2.954      4.594
REMARK  9 active torsions:
REMARK  status: ('A' for Active; 'I' for Inactive)
REMARK    1  A    between atoms: N_2  and  C_6 
REMARK    2  A    between atoms: S_3  and  C_14 
REMARK    3  A    between atoms: C_6  and  C_7 
REMARK    4  A    between atoms: C_6  and  C_13 
REMARK       I    between atoms: C_7  and  N_19 
REMARK    5  A    between atoms: C_13  and  C_20 
REMARK    6  A    between atoms: C_14  and  C_15 
REMARK    7  A    between atoms: C_15  and  C_16 
REMARK    8  A    between atoms: C_16  and  C_17 
REMARK    9  A    between atoms: C_16  and  N_19 
ROOT
HETATM    1  O           1     -21.649  -7.889  -5.292  0.00  0.00    -0.271 OA
HETATM    2  C           1     -20.898  -7.042  -4.870  0.00  0.00     0.249 C 
HETATM    3  H           1     -20.117  -6.164  -3.166  0.00  0.00     0.163 HD
HETATM    4  N           1     -20.745  -6.874  -3.520  0.00  0.00    -0.345 N 
ENDROOT
BRANCH   2   5
HETATM    5  C           1     -20.129  -6.169  -5.831  0.00  0.00     0.284 C 
BRANCH   5   6
HETATM    6  N           1     -20.455  -6.569  -7.239  0.00  0.00    -0.066 N 
HETATM    7  H           1     -19.909  -5.977  -7.906  0.00  0.00     0.275 HD
HETATM    8  H           1     -20.206  -7.573  -7.383  0.00  0.00     0.275 HD
HETATM    9  H           1     -21.477  -6.435  -7.410  0.00  0.00     0.275 HD
ENDBRANCH   5   6
BRANCH   5  10
HETATM   10  C           1     -20.514  -4.712  -5.615  0.00  0.00     0.155 C 
BRANCH  10  11
HETATM   11  C           1     -21.134  -4.163  -6.876  0.00  0.00     0.175 C 
HETATM   12  O           1     -20.421  -3.577  -7.719  0.00  0.00    -0.648 OA
HETATM   13  O           1     -22.360  -4.294  -7.078  0.00  0.00    -0.648 OA
ENDBRANCH  10  11
ENDBRANCH   5  10
ENDBRANCH   2   5
BRANCH   4  14
HETATM   14  C           1     -21.485  -7.712  -2.597  0.00  0.00     0.186 C 
BRANCH  14  15
HETATM   15  C           1     -20.526  -8.668  -1.900  0.00  0.00     0.046 C 
BRANCH  15  16
HETATM   16  C           1     -20.842 -10.098  -2.314  0.00  0.00     0.076 C 
BRANCH  16  17
HETATM   17  S           1     -19.346 -10.882  -2.978  0.00  0.00    -0.173 SA
HETATM   18  C           1     -18.276  -9.423  -2.833  0.00  0.00     0.089 C 
ENDBRANCH  16  17
ENDBRANCH  15  16
ENDBRANCH  14  15
BRANCH  14  19
HETATM   19  C           1     -22.169  -6.846  -1.568  0.00  0.00     0.196 C 
HETATM   20  O           1     -22.377  -5.637  -1.807  0.00  0.00    -0.646 OA
HETATM   21  O           1     -22.530  -7.339  -0.477  0.00  0.00    -0.646 OA
ENDBRANCH  14  19
ENDBRANCH   4  14
TORSDOF 9
ENDMDL
MODEL 9
REMARK VINA RESULT:      -4.7      4.213      6.467
REMARK  9 active torsions:
REMARK  status: ('A' for Active; 'I' for Inactive)
REMARK    1  A    between atoms: N_2  and  C_6 
REMARK    2  A    between atoms: S_3  and  C_14 
REMARK    3  A    between atoms: C_6  and  C_7 
REMARK    4  A    between atoms: C_6  and  C_13 
REMARK       I    between atoms: C_7  and  N_19 
REMARK    5  A    between atoms: C_13  and  C_20 
REMARK    6  A    between atoms: C_14  and  C_15 
REMARK    7  A    between atoms: C_15  and  C_16 
REMARK    8  A    between atoms: C_16  and  C_17 
REMARK    9  A    between atoms: C_16  and  N_19 
ROOT
HETATM    1  O           1     -22.270 -10.321  -3.320  0.00  0.00    -0.271 OA
HETATM    2  C           1     -21.439  -9.453  -3.194  0.00  0.00     0.249 C 
HETATM    3  H           1     -20.635  -8.050  -1.902  0.00  0.00     0.163 HD
HETATM    4  N           1     -21.331  -8.777  -2.008  0.00  0.00    -0.345 N 
ENDROOT
BRANCH   2   5
HETATM    5  C           1     -20.521  -9.114  -4.342  0.00  0.00     0.284 C 
BRANCH   5   6
HETATM    6  N           1     -21.098  -9.655  -5.618  0.00  0.00    -0.066 N 
HETATM    7  H           1     -21.154 -10.697  -5.561  0.00  0.00     0.275 HD
HETATM    8  H           1     -22.055  -9.262  -5.761  0.00  0.00     0.275 HD
HETATM    9  H           1     -20.484  -9.382  -6.419  0.00  0.00     0.275 HD
ENDBRANCH   5   6
BRANCH   5  10
HETATM   10  C           1     -20.379  -7.602  -4.450  0.00  0.00     0.155 C 
BRANCH  10  11
HETATM   11  C           1     -21.370  -7.074  -5.458  0.00  0.00     0.175 C 
HETATM   12  O           1     -22.531  -6.782  -5.100  0.00  0.00    -0.648 OA
HETATM   13  O           1     -21.030  -6.929  -6.652  0.00  0.00    -0.648 OA
ENDBRANCH  10  11
ENDBRANCH   5  10
ENDBRANCH   2   5
BRANCH   4  14
HETATM   14  C           1     -22.213  -9.103  -0.904  0.00  0.00     0.186 C 
BRANCH  14  15
HETATM   15  C           1     -21.444  -9.899   0.142  0.00  0.00     0.046 C 
BRANCH  15  16
HETATM   16  C           1     -21.924 -11.343   0.137  0.00  0.00     0.076 C 
BRANCH  16  17
HETATM   17  S           1     -23.717 -11.384  -0.146  0.00  0.00    -0.173 SA
HETATM   18  C           1     -23.729 -12.914  -1.123  0.00  0.00     0.089 C 
ENDBRANCH  16  17
ENDBRANCH  15  16
ENDBRANCH  14  15
BRANCH  14  19
HETATM   19  C           1     -22.735  -7.830  -0.285  0.00  0.00     0.196 C 
HETATM   20  O           1     -23.278  -7.859   0.841  0.00  0.00    -0.646 OA
HETATM   21  O           1     -22.623  -6.746  -0.897  0.00  0.00    -0.646 OA
ENDBRANCH  14  19
ENDBRANCH   4  14
TORSDOF 9
ENDMDL
