MODEL 1
REMARK VINA RESULT:      -6.5      0.000      0.000
REMARK  8 active torsions:
REMARK  status: ('A' for Active; 'I' for Inactive)
REMARK    1  A    between atoms: N_2  and  C_12 
REMARK       I    between atoms: N_2  and  C_3 
REMARK    2  A    between atoms: C_3  and  C_4 
REMARK    3  A    between atoms: C_4  and  C_5 
REMARK    4  A    between atoms: C_4  and  N_15 
REMARK    5  A    between atoms: C_5  and  C_6 
REMARK       I    between atoms: C_6  and  N_7 
REMARK    6  A    between atoms: C_9  and  C_11 
REMARK    7  A    between atoms: C_11  and  C_12 
REMARK    8  A    between atoms: C_12  and  C_13 
ROOT
HETATM    1  N           1     -35.106  -1.163 -12.302  0.00  0.00    -0.344 N 
HETATM    2  C           1     -34.411  -2.339 -12.394  0.00  0.00     0.249 C 
HETATM    3  O           1     -34.482  -3.005 -13.399  0.00  0.00    -0.271 OA
HETATM    4  H           1     -35.047  -0.605 -11.460  0.00  0.00     0.163 HD
ENDROOT
BRANCH   2   5
HETATM    5  C           1     -33.556  -2.803 -11.240  0.00  0.00     0.283 C 
BRANCH   5   6
HETATM    6  C           1     -34.127  -4.094 -10.671  0.00  0.00     0.145 C 
BRANCH   6   7
HETATM    7  C           1     -33.355  -5.270 -11.216  0.00  0.00     0.217 C 
HETATM    8  N           1     -32.314  -5.062 -12.081  0.00  0.00    -0.370 N 
HETATM    9  H           1     -31.795  -5.851 -12.447  0.00  0.00     0.159 HD
HETATM   10  H           1     -32.063  -4.122 -12.354  0.00  0.00     0.159 HD
HETATM   11  O           1     -33.654  -6.393 -10.890  0.00  0.00    -0.274 OA
ENDBRANCH   6   7
ENDBRANCH   5   6
BRANCH   5  12
HETATM   12  N           1     -33.544  -1.749 -10.173  0.00  0.00    -0.066 N 
HETATM   13  H           1     -33.093  -2.131  -9.311  0.00  0.00     0.275 HD
HETATM   14  H           1     -33.004  -0.920 -10.509  0.00  0.00     0.275 HD
HETATM   15  H           1     -34.524  -1.461  -9.956  0.00  0.00     0.275 HD
ENDBRANCH   5  12
ENDBRANCH   2   5
BRANCH   1  16
HETATM   16  C           1     -35.928  -0.718 -13.411  0.00  0.00     0.195 C 
BRANCH  16  17
HETATM   17  C           1     -37.160  -0.002 -12.873  0.00  0.00     0.149 C 
BRANCH  17  18
HETATM   18  C           1     -37.211  -0.146 -11.372  0.00  0.00     0.175 C 
HETATM   19  O           1     -37.940  -1.018 -10.852  0.00  0.00    -0.648 OA
HETATM   20  O           1     -36.525   0.608 -10.648  0.00  0.00    -0.648 OA
ENDBRANCH  17  18
ENDBRANCH  16  17
BRANCH  16  21
HETATM   21  C           1     -35.132   0.229 -14.276  0.00  0.00     0.197 C 
HETATM   22  O           1     -34.797  -0.113 -15.430  0.00  0.00    -0.646 OA
HETATM   23  O           1     -34.808   1.353 -13.838  0.00  0.00    -0.646 OA
ENDBRANCH  16  21
ENDBRANCH   1  16
TORSDOF 8
ENDMDL
MODEL 2
REMARK VINA RESULT:      -6.3      1.858      3.288
REMARK  8 active torsions:
REMARK  status: ('A' for Active; 'I' for Inactive)
REMARK    1  A    between atoms: N_2  and  C_12 
REMARK       I    between atoms: N_2  and  C_3 
REMARK    2  A    between atoms: C_3  and  C_4 
REMARK    3  A    between atoms: C_4  and  C_5 
REMARK    4  A    between atoms: C_4  and  N_15 
REMARK    5  A    between atoms: C_5  and  C_6 
REMARK       I    between atoms: C_6  and  N_7 
REMARK    6  A    between atoms: C_9  and  C_11 
REMARK    7  A    between atoms: C_11  and  C_12 
REMARK    8  A    between atoms: C_12  and  C_13 
ROOT
HETATM    1  N           1     -35.488  -2.293 -11.951  0.00  0.00    -0.344 N 
HETATM    2  C           1     -34.670  -3.224 -11.368  0.00  0.00     0.249 C 
HETATM    3  O           1     -33.841  -2.878 -10.561  0.00  0.00    -0.271 OA
HETATM    4  H           1     -36.182  -2.583 -12.627  0.00  0.00     0.163 HD
ENDROOT
BRANCH   2   5
HETATM    5  C           1     -34.805  -4.682 -11.734  0.00  0.00     0.283 C 
BRANCH   5   6
HETATM    6  C           1     -33.897  -5.516 -10.839  0.00  0.00     0.145 C 
BRANCH   6   7
HETATM    7  C           1     -34.628  -6.762 -10.404  0.00  0.00     0.217 C 
HETATM    8  N           1     -35.051  -7.669 -11.338  0.00  0.00    -0.370 N 
HETATM    9  H           1     -35.541  -8.505 -11.046  0.00  0.00     0.159 HD
HETATM   10  H           1     -34.874  -7.504 -12.320  0.00  0.00     0.159 HD
HETATM   11  O           1     -34.840  -6.960  -9.232  0.00  0.00    -0.274 OA
ENDBRANCH   6   7
ENDBRANCH   5   6
BRANCH   5  12
HETATM   12  N           1     -34.408  -4.876 -13.167  0.00  0.00    -0.066 N 
HETATM   13  H           1     -35.051  -4.330 -13.784  0.00  0.00     0.275 HD
HETATM   14  H           1     -33.427  -4.542 -13.305  0.00  0.00     0.275 HD
HETATM   15  H           1     -34.468  -5.890 -13.411  0.00  0.00     0.275 HD
ENDBRANCH   5  12
ENDBRANCH   2   5
BRANCH   1  16
HETATM   16  C           1     -35.358  -0.892 -11.600  0.00  0.00     0.195 C 
BRANCH  16  17
HETATM   17  C           1     -35.169  -0.067 -12.866  0.00  0.00     0.149 C 
BRANCH  17  18
HETATM   18  C           1     -35.789  -0.791 -14.036  0.00  0.00     0.175 C 
HETATM   19  O           1     -37.002  -0.636 -14.295  0.00  0.00    -0.648 OA
HETATM   20  O           1     -35.089  -1.545 -14.746  0.00  0.00    -0.648 OA
ENDBRANCH  17  18
ENDBRANCH  16  17
BRANCH  16  21
HETATM   21  C           1     -36.606  -0.437 -10.883  0.00  0.00     0.197 C 
HETATM   22  O           1     -36.574   0.581 -10.159  0.00  0.00    -0.646 OA
HETATM   23  O           1     -37.670  -1.079 -11.012  0.00  0.00    -0.646 OA
ENDBRANCH  16  21
ENDBRANCH   1  16
TORSDOF 8
ENDMDL
MODEL 3
REMARK VINA RESULT:      -6.1     11.938     13.809
REMARK  8 active torsions:
REMARK  status: ('A' for Active; 'I' for Inactive)
REMARK    1  A    between atoms: N_2  and  C_12 
REMARK       I    between atoms: N_2  and  C_3 
REMARK    2  A    between atoms: C_3  and  C_4 
REMARK    3  A    between atoms: C_4  and  C_5 
REMARK    4  A    between atoms: C_4  and  N_15 
REMARK    5  A    between atoms: C_5  and  C_6 
REMARK       I    between atoms: C_6  and  N_7 
REMARK    6  A    between atoms: C_9  and  C_11 
REMARK    7  A    between atoms: C_11  and  C_12 
REMARK    8  A    between atoms: C_12  and  C_13 
ROOT
HETATM    1  N           1     -22.212  -4.155  -9.298  0.00  0.00    -0.344 N 
HETATM    2  C           1     -21.386  -4.584  -8.292  0.00  0.00     0.249 C 
HETATM    3  O           1     -20.445  -5.296  -8.547  0.00  0.00    -0.271 OA
HETATM    4  H           1     -23.001  -3.559  -9.085  0.00  0.00     0.163 HD
ENDROOT
BRANCH   2   5
HETATM    5  C           1     -21.653  -4.166  -6.867  0.00  0.00     0.283 C 
BRANCH   5   6
HETATM    6  C           1     -20.690  -4.891  -5.936  0.00  0.00     0.145 C 
BRANCH   6   7
HETATM    7  C           1     -21.338  -6.155  -5.428  0.00  0.00     0.217 C 
HETATM    8  N           1     -21.133  -7.340  -6.084  0.00  0.00    -0.370 N 
HETATM    9  H           1     -21.567  -8.189  -5.743  0.00  0.00     0.159 HD
HETATM   10  H           1     -20.549  -7.367  -6.909  0.00  0.00     0.159 HD
HETATM   11  O           1     -22.036  -6.124  -4.443  0.00  0.00    -0.274 OA
ENDBRANCH   6   7
ENDBRANCH   5   6
BRANCH   5  12
HETATM   12  N           1     -23.064  -4.519  -6.499  0.00  0.00    -0.066 N 
HETATM   13  H           1     -23.699  -3.729  -6.753  0.00  0.00     0.275 HD
HETATM   14  H           1     -23.354  -5.378  -7.017  0.00  0.00     0.275 HD
HETATM   15  H           1     -23.122  -4.696  -5.471  0.00  0.00     0.275 HD
ENDBRANCH   5  12
ENDBRANCH   2   5
BRANCH   1  16
HETATM   16  C           1     -21.956  -4.557 -10.667  0.00  0.00     0.195 C 
BRANCH  16  17
HETATM   17  C           1     -23.278  -4.716 -11.405  0.00  0.00     0.149 C 
BRANCH  17  18
HETATM   18  C           1     -24.396  -4.150 -10.564  0.00  0.00     0.175 C 
HETATM   19  O           1     -24.760  -2.965 -10.724  0.00  0.00    -0.648 OA
HETATM   20  O           1     -24.957  -4.865  -9.707  0.00  0.00    -0.648 OA
ENDBRANCH  17  18
ENDBRANCH  16  17
BRANCH  16  21
HETATM   21  C           1     -21.121  -3.502 -11.351  0.00  0.00     0.197 C 
HETATM   22  O           1     -21.656  -2.447 -11.755  0.00  0.00    -0.646 OA
HETATM   23  O           1     -19.895  -3.683 -11.514  0.00  0.00    -0.646 OA
ENDBRANCH  16  21
ENDBRANCH   1  16
TORSDOF 8
ENDMDL
MODEL 4
REMARK VINA RESULT:      -6.0     12.359     14.454
REMARK  8 active torsions:
REMARK  status: ('A' for Active; 'I' for Inactive)
REMARK    1  A    between atoms: N_2  and  C_12 
REMARK       I    between atoms: N_2  and  C_3 
REMARK    2  A    between atoms: C_3  and  C_4 
REMARK    3  A    between atoms: C_4  and  C_5 
REMARK    4  A    between atoms: C_4  and  N_15 
REMARK    5  A    between atoms: C_5  and  C_6 
REMARK       I    between atoms: C_6  and  N_7 
REMARK    6  A    between atoms: C_9  and  C_11 
REMARK    7  A    between atoms: C_11  and  C_12 
REMARK    8  A    between atoms: C_12  and  C_13 
ROOT
HETATM    1  N           1     -22.311  -4.915  -8.796  0.00  0.00    -0.344 N 
HETATM    2  C           1     -21.646  -4.644  -7.630  0.00  0.00     0.249 C 
HETATM    3  O           1     -21.443  -3.499  -7.304  0.00  0.00    -0.271 OA
HETATM    4  H           1     -22.482  -5.874  -9.070  0.00  0.00     0.163 HD
ENDROOT
BRANCH   2   5
HETATM    5  C           1     -21.167  -5.775  -6.754  0.00  0.00     0.283 C 
BRANCH   5   6
HETATM    6  C           1     -20.966  -5.267  -5.332  0.00  0.00     0.145 C 
BRANCH   6   7
HETATM    7  C           1     -21.299  -6.365  -4.353  0.00  0.00     0.217 C 
HETATM    8  N           1     -21.894  -6.059  -3.159  0.00  0.00    -0.370 N 
HETATM    9  H           1     -22.118  -6.796  -2.501  0.00  0.00     0.159 HD
HETATM   10  H           1     -22.111  -5.098  -2.933  0.00  0.00     0.159 HD
HETATM   11  O           1     -21.041  -7.514  -4.622  0.00  0.00    -0.274 OA
ENDBRANCH   6   7
ENDBRANCH   5   6
BRANCH   5  12
HETATM   12  N           1     -19.867  -6.302  -7.284  0.00  0.00    -0.066 N 
HETATM   13  H           1     -19.977  -6.553  -8.292  0.00  0.00     0.275 HD
HETATM   14  H           1     -19.129  -5.568  -7.187  0.00  0.00     0.275 HD
HETATM   15  H           1     -19.587  -7.150  -6.741  0.00  0.00     0.275 HD
ENDBRANCH   5  12
ENDBRANCH   2   5
BRANCH   1  16
HETATM   16  C           1     -22.771  -3.828  -9.638  0.00  0.00     0.195 C 
BRANCH  16  17
HETATM   17  C           1     -22.212  -4.005 -11.044  0.00  0.00     0.149 C 
BRANCH  17  18
HETATM   18  C           1     -20.719  -3.787 -11.024  0.00  0.00     0.175 C 
HETATM   19  O           1     -19.955  -4.729 -10.724  0.00  0.00    -0.648 OA
HETATM   20  O           1     -20.248  -2.665 -11.307  0.00  0.00    -0.648 OA
ENDBRANCH  17  18
ENDBRANCH  16  17
BRANCH  16  21
HETATM   21  C           1     -24.280  -3.838  -9.690  0.00  0.00     0.197 C 
HETATM   22  O           1     -24.891  -4.912  -9.880  0.00  0.00    -0.646 OA
HETATM   23  O           1     -24.917  -2.773  -9.545  0.00  0.00    -0.646 OA
ENDBRANCH  16  21
ENDBRANCH   1  16
TORSDOF 8
ENDMDL
MODEL 5
REMARK VINA RESULT:      -5.9      2.687      5.028
REMARK  8 active torsions:
REMARK  status: ('A' for Active; 'I' for Inactive)
REMARK    1  A    between atoms: N_2  and  C_12 
REMARK       I    between atoms: N_2  and  C_3 
REMARK    2  A    between atoms: C_3  and  C_4 
REMARK    3  A    between atoms: C_4  and  C_5 
REMARK    4  A    between atoms: C_4  and  N_15 
REMARK    5  A    between atoms: C_5  and  C_6 
REMARK       I    between atoms: C_6  and  N_7 
REMARK    6  A    between atoms: C_9  and  C_11 
REMARK    7  A    between atoms: C_11  and  C_12 
REMARK    8  A    between atoms: C_12  and  C_13 
ROOT
HETATM    1  N           1     -36.272  -0.236 -12.322  0.00  0.00    -0.344 N 
HETATM    2  C           1     -36.882  -0.234 -13.548  0.00  0.00     0.249 C 
HETATM    3  O           1     -38.021  -0.622 -13.656  0.00  0.00    -0.271 OA
HETATM    4  H           1     -35.318   0.090 -12.232  0.00  0.00     0.163 HD
ENDROOT
BRANCH   2   5
HETATM    5  C           1     -36.133   0.254 -14.764  0.00  0.00     0.283 C 
BRANCH   5   6
HETATM    6  C           1     -35.074  -0.769 -15.153  0.00  0.00     0.145 C 
BRANCH   6   7
HETATM    7  C           1     -35.413  -1.355 -16.501  0.00  0.00     0.217 C 
HETATM    8  N           1     -34.678  -2.399 -16.997  0.00  0.00    -0.370 N 
HETATM    9  H           1     -34.904  -2.792 -17.902  0.00  0.00     0.159 HD
HETATM   10  H           1     -33.908  -2.776 -16.460  0.00  0.00     0.159 HD
HETATM   11  O           1     -36.331  -0.905 -17.143  0.00  0.00    -0.274 OA
ENDBRANCH   6   7
ENDBRANCH   5   6
BRANCH   5  12
HETATM   12  N           1     -35.471   1.563 -14.450  0.00  0.00    -0.066 N 
HETATM   13  H           1     -36.173   2.334 -14.515  0.00  0.00     0.275 HD
HETATM   14  H           1     -35.078   1.531 -13.482  0.00  0.00     0.275 HD
HETATM   15  H           1     -34.699   1.735 -15.133  0.00  0.00     0.275 HD
ENDBRANCH   5  12
ENDBRANCH   2   5
BRANCH   1  16
HETATM   16  C           1     -36.991  -0.704 -11.154  0.00  0.00     0.195 C 
BRANCH  16  17
HETATM   17  C           1     -36.256  -1.892 -10.548  0.00  0.00     0.149 C 
BRANCH  17  18
HETATM   18  C           1     -34.952  -2.103 -11.277  0.00  0.00     0.175 C 
HETATM   19  O           1     -33.936  -1.456 -10.941  0.00  0.00    -0.648 OA
HETATM   20  O           1     -34.887  -2.924 -12.217  0.00  0.00    -0.648 OA
ENDBRANCH  17  18
ENDBRANCH  16  17
BRANCH  16  21
HETATM   21  C           1     -37.076   0.408 -10.138  0.00  0.00     0.197 C 
HETATM   22  O           1     -38.075   1.160 -10.117  0.00  0.00    -0.646 OA
HETATM   23  O           1     -36.149   0.579  -9.318  0.00  0.00    -0.646 OA
ENDBRANCH  16  21
ENDBRANCH   1  16
TORSDOF 8
ENDMDL
MODEL 6
REMARK VINA RESULT:      -5.4      1.978      3.679
REMARK  8 active torsions:
REMARK  status: ('A' for Active; 'I' for Inactive)
REMARK    1  A    between atoms: N_2  and  C_12 
REMARK       I    between atoms: N_2  and  C_3 
REMARK    2  A    between atoms: C_3  and  C_4 
REMARK    3  A    between atoms: C_4  and  C_5 
REMARK    4  A    between atoms: C_4  and  N_15 
REMARK    5  A    between atoms: C_5  and  C_6 
REMARK       I    between atoms: C_6  and  N_7 
REMARK    6  A    between atoms: C_9  and  C_11 
REMARK    7  A    between atoms: C_11  and  C_12 
REMARK    8  A    between atoms: C_12  and  C_13 
ROOT
HETATM    1  N           1     -34.735  -1.935 -12.514  0.00  0.00    -0.344 N 
HETATM    2  C           1     -33.755  -2.767 -12.040  0.00  0.00     0.249 C 
HETATM    3  O           1     -33.157  -2.480 -11.031  0.00  0.00    -0.271 OA
HETATM    4  H           1     -35.236  -2.175 -13.360  0.00  0.00     0.163 HD
ENDROOT
BRANCH   2   5
HETATM    5  C           1     -33.425  -4.041 -12.778  0.00  0.00     0.283 C 
BRANCH   5   6
HETATM    6  C           1     -34.514  -4.333 -13.801  0.00  0.00     0.145 C 
BRANCH   6   7
HETATM    7  C           1     -34.023  -3.963 -15.179  0.00  0.00     0.217 C 
HETATM    8  N           1     -32.807  -4.417 -15.616  0.00  0.00    -0.370 N 
HETATM    9  H           1     -32.477  -4.169 -16.541  0.00  0.00     0.159 HD
HETATM   10  H           1     -32.239  -4.999 -15.016  0.00  0.00     0.159 HD
HETATM   11  O           1     -34.701  -3.267 -15.896  0.00  0.00    -0.274 OA
ENDBRANCH   6   7
ENDBRANCH   5   6
BRANCH   5  12
HETATM   12  N           1     -33.340  -5.176 -11.801  0.00  0.00    -0.066 N 
HETATM   13  H           1     -32.364  -5.550 -11.784  0.00  0.00     0.275 HD
HETATM   14  H           1     -33.599  -4.835 -10.848  0.00  0.00     0.275 HD
HETATM   15  H           1     -33.999  -5.934 -12.090  0.00  0.00     0.275 HD
ENDBRANCH   5  12
ENDBRANCH   2   5
BRANCH   1  16
HETATM   16  C           1     -35.053  -0.711 -11.806  0.00  0.00     0.195 C 
BRANCH  16  17
HETATM   17  C           1     -35.475   0.358 -12.805  0.00  0.00     0.149 C 
BRANCH  17  18
HETATM   18  C           1     -35.555  -0.246 -14.186  0.00  0.00     0.175 C 
HETATM   19  O           1     -36.567  -0.898 -14.524  0.00  0.00    -0.648 OA
HETATM   20  O           1     -34.612  -0.094 -14.990  0.00  0.00    -0.648 OA
ENDBRANCH  17  18
ENDBRANCH  16  17
BRANCH  16  21
HETATM   21  C           1     -36.181  -0.970 -10.838  0.00  0.00     0.197 C 
HETATM   22  O           1     -36.003  -0.804  -9.612  0.00  0.00    -0.646 OA
HETATM   23  O           1     -37.293  -1.352 -11.262  0.00  0.00    -0.646 OA
ENDBRANCH  16  21
ENDBRANCH   1  16
TORSDOF 8
ENDMDL
MODEL 7
REMARK VINA RESULT:      -5.4      2.124      5.916
REMARK  8 active torsions:
REMARK  status: ('A' for Active; 'I' for Inactive)
REMARK    1  A    between atoms: N_2  and  C_12 
REMARK       I    between atoms: N_2  and  C_3 
REMARK    2  A    between atoms: C_3  and  C_4 
REMARK    3  A    between atoms: C_4  and  C_5 
REMARK    4  A    between atoms: C_4  and  N_15 
REMARK    5  A    between atoms: C_5  and  C_6 
REMARK       I    between atoms: C_6  and  N_7 
REMARK    6  A    between atoms: C_9  and  C_11 
REMARK    7  A    between atoms: C_11  and  C_12 
REMARK    8  A    between atoms: C_12  and  C_13 
ROOT
HETATM    1  N           1     -34.888  -1.717 -12.130  0.00  0.00    -0.344 N 
HETATM    2  C           1     -35.054  -1.333 -13.434  0.00  0.00     0.249 C 
HETATM    3  O           1     -35.055  -2.164 -14.312  0.00  0.00    -0.271 OA
HETATM    4  H           1     -34.887  -1.021 -11.395  0.00  0.00     0.163 HD
ENDROOT
BRANCH   2   5
HETATM    5  C           1     -35.236   0.125 -13.775  0.00  0.00     0.283 C 
BRANCH   5   6
HETATM    6  C           1     -36.663   0.362 -14.251  0.00  0.00     0.145 C 
BRANCH   6   7
HETATM    7  C           1     -36.679   0.478 -15.755  0.00  0.00     0.217 C 
HETATM    8  N           1     -36.937  -0.626 -16.523  0.00  0.00    -0.370 N 
HETATM    9  H           1     -36.948  -0.549 -17.533  0.00  0.00     0.159 HD
HETATM   10  H           1     -37.115  -1.519 -16.082  0.00  0.00     0.159 HD
HETATM   11  O           1     -36.466   1.543 -16.282  0.00  0.00    -0.274 OA
ENDBRANCH   6   7
ENDBRANCH   5   6
BRANCH   5  12
HETATM   12  N           1     -34.277   0.507 -14.864  0.00  0.00    -0.066 N 
HETATM   13  H           1     -33.917  -0.356 -15.330  0.00  0.00     0.275 HD
HETATM   14  H           1     -34.769   1.103 -15.567  0.00  0.00     0.275 HD
HETATM   15  H           1     -33.478   1.041 -14.453  0.00  0.00     0.275 HD
ENDBRANCH   5  12
ENDBRANCH   2   5
BRANCH   1  16
HETATM   16  C           1     -34.714  -3.118 -11.802  0.00  0.00     0.195 C 
BRANCH  16  17
HETATM   17  C           1     -33.361  -3.317 -11.130  0.00  0.00     0.149 C 
BRANCH  17  18
HETATM   18  C           1     -32.730  -4.591 -11.636  0.00  0.00     0.175 C 
HETATM   19  O           1     -33.144  -5.698 -11.228  0.00  0.00    -0.648 OA
HETATM   20  O           1     -31.793  -4.539 -12.461  0.00  0.00    -0.648 OA
ENDBRANCH  17  18
ENDBRANCH  16  17
BRANCH  16  21
HETATM   21  C           1     -35.812  -3.554 -10.864  0.00  0.00     0.197 C 
HETATM   22  O           1     -35.891  -4.750 -10.507  0.00  0.00    -0.646 OA
HETATM   23  O           1     -36.644  -2.721 -10.444  0.00  0.00    -0.646 OA
ENDBRANCH  16  21
ENDBRANCH   1  16
TORSDOF 8
ENDMDL
MODEL 8
REMARK VINA RESULT:      -5.3     12.122     14.777
REMARK  8 active torsions:
REMARK  status: ('A' for Active; 'I' for Inactive)
REMARK    1  A    between atoms: N_2  and  C_12 
REMARK       I    between atoms: N_2  and  C_3 
REMARK    2  A    between atoms: C_3  and  C_4 
REMARK    3  A    between atoms: C_4  and  C_5 
REMARK    4  A    between atoms: C_4  and  N_15 
REMARK    5  A    between atoms: C_5  and  C_6 
REMARK       I    between atoms: C_6  and  N_7 
REMARK    6  A    between atoms: C_9  and  C_11 
REMARK    7  A    between atoms: C_11  and  C_12 
REMARK    8  A    between atoms: C_12  and  C_13 
ROOT
HETATM    1  N           1     -22.126  -5.021  -6.918  0.00  0.00    -0.344 N 
HETATM    2  C           1     -22.559  -4.183  -7.910  0.00  0.00     0.249 C 
HETATM    3  O           1     -21.882  -3.237  -8.238  0.00  0.00    -0.271 OA
HETATM    4  H           1     -22.693  -5.814  -6.643  0.00  0.00     0.163 HD
ENDROOT
BRANCH   2   5
HETATM    5  C           1     -23.878  -4.440  -8.595  0.00  0.00     0.283 C 
BRANCH   5   6
HETATM    6  C           1     -23.661  -5.360  -9.789  0.00  0.00     0.145 C 
BRANCH   6   7
HETATM    7  C           1     -23.452  -4.531 -11.032  0.00  0.00     0.217 C 
HETATM    8  N           1     -22.184  -4.200 -11.428  0.00  0.00    -0.370 N 
HETATM    9  H           1     -22.043  -3.643 -12.262  0.00  0.00     0.159 HD
HETATM   10  H           1     -21.387  -4.511 -10.888  0.00  0.00     0.159 HD
HETATM   11  O           1     -24.402  -4.159 -11.677  0.00  0.00    -0.274 OA
ENDBRANCH   6   7
ENDBRANCH   5   6
BRANCH   5  12
HETATM   12  N           1     -24.459  -3.140  -9.066  0.00  0.00    -0.066 N 
HETATM   13  H           1     -23.714  -2.407  -9.071  0.00  0.00     0.275 HD
HETATM   14  H           1     -24.836  -3.258 -10.033  0.00  0.00     0.275 HD
HETATM   15  H           1     -25.230  -2.849  -8.424  0.00  0.00     0.275 HD
ENDBRANCH   5  12
ENDBRANCH   2   5
BRANCH   1  16
HETATM   16  C           1     -20.858  -4.774  -6.260  0.00  0.00     0.195 C 
BRANCH  16  17
HETATM   17  C           1     -20.826  -5.512  -4.928  0.00  0.00     0.149 C 
BRANCH  17  18
HETATM   18  C           1     -21.929  -6.541  -4.895  0.00  0.00     0.175 C 
HETATM   19  O           1     -21.689  -7.724  -5.220  0.00  0.00    -0.648 OA
HETATM   20  O           1     -23.081  -6.211  -4.542  0.00  0.00    -0.648 OA
ENDBRANCH  17  18
ENDBRANCH  16  17
BRANCH  16  21
HETATM   21  C           1     -19.734  -5.268  -7.137  0.00  0.00     0.197 C 
HETATM   22  O           1     -19.694  -6.467  -7.486  0.00  0.00    -0.646 OA
HETATM   23  O           1     -18.842  -4.477  -7.514  0.00  0.00    -0.646 OA
ENDBRANCH  16  21
ENDBRANCH   1  16
TORSDOF 8
ENDMDL
MODEL 9
REMARK VINA RESULT:      -5.3     13.539     16.750
REMARK  8 active torsions:
REMARK  status: ('A' for Active; 'I' for Inactive)
REMARK    1  A    between atoms: N_2  and  C_12 
REMARK       I    between atoms: N_2  and  C_3 
REMARK    2  A    between atoms: C_3  and  C_4 
REMARK    3  A    between atoms: C_4  and  C_5 
REMARK    4  A    between atoms: C_4  and  N_15 
REMARK    5  A    between atoms: C_5  and  C_6 
REMARK       I    between atoms: C_6  and  N_7 
REMARK    6  A    between atoms: C_9  and  C_11 
REMARK    7  A    between atoms: C_11  and  C_12 
REMARK    8  A    between atoms: C_12  and  C_13 
ROOT
HETATM    1  N           1     -20.994  -6.575  -4.739  0.00  0.00    -0.344 N 
HETATM    2  C           1     -21.810  -5.810  -5.530  0.00  0.00     0.249 C 
HETATM    3  O           1     -23.009  -5.933  -5.458  0.00  0.00    -0.271 OA
HETATM    4  H           1     -19.989  -6.471  -4.800  0.00  0.00     0.163 HD
ENDROOT
BRANCH   2   5
HETATM    5  C           1     -21.210  -4.813  -6.492  0.00  0.00     0.283 C 
BRANCH   5   6
HETATM    6  C           1     -21.537  -5.226  -7.921  0.00  0.00     0.145 C 
BRANCH   6   7
HETATM    7  C           1     -22.531  -4.255  -8.509  0.00  0.00     0.217 C 
HETATM    8  N           1     -23.740  -4.058  -7.897  0.00  0.00    -0.370 N 
HETATM    9  H           1     -24.407  -3.407  -8.291  0.00  0.00     0.159 HD
HETATM   10  H           1     -23.966  -4.563  -7.050  0.00  0.00     0.159 HD
HETATM   11  O           1     -22.262  -3.652  -9.520  0.00  0.00    -0.274 OA
ENDBRANCH   6   7
ENDBRANCH   5   6
BRANCH   5  12
HETATM   12  N           1     -19.721  -4.778  -6.311  0.00  0.00    -0.066 N 
HETATM   13  H           1     -19.465  -3.980  -5.688  0.00  0.00     0.275 HD
HETATM   14  H           1     -19.402  -5.674  -5.878  0.00  0.00     0.275 HD
HETATM   15  H           1     -19.260  -4.658  -7.241  0.00  0.00     0.275 HD
ENDBRANCH   5  12
ENDBRANCH   2   5
BRANCH   1  16
HETATM   16  C           1     -21.570  -7.532  -3.816  0.00  0.00     0.195 C 
BRANCH  16  17
HETATM   17  C           1     -20.739  -8.809  -3.826  0.00  0.00     0.149 C 
BRANCH  17  18
HETATM   18  C           1     -20.352  -9.147  -5.244  0.00  0.00     0.175 C 
HETATM   19  O           1     -19.187  -8.932  -5.642  0.00  0.00    -0.648 OA
HETATM   20  O           1     -21.196  -9.643  -6.021  0.00  0.00    -0.648 OA
ENDBRANCH  17  18
ENDBRANCH  16  17
BRANCH  16  21
HETATM   21  C           1     -21.576  -6.946  -2.425  0.00  0.00     0.197 C 
HETATM   22  O           1     -22.325  -5.981  -2.158  0.00  0.00    -0.646 OA
HETATM   23  O           1     -20.833  -7.424  -1.541  0.00  0.00    -0.646 OA
ENDBRANCH  16  21
ENDBRANCH   1  16
TORSDOF 8
ENDMDL
