MODEL 1
REMARK VINA RESULT:      -7.3      0.000      0.000
REMARK  8 active torsions:
REMARK  status: ('A' for Active; 'I' for Inactive)
REMARK    1  A    between atoms: C_5  and  C_10 
REMARK    2  A    between atoms: C_5  and  C_17 
REMARK    3  A    between atoms: C_5  and  N_19 
REMARK    4  A    between atoms: C_6  and  C_23 
REMARK       I    between atoms: C_10  and  N_13 
REMARK    5  A    between atoms: C_11  and  O_24 
REMARK    6  A    between atoms: N_13  and  C_23 
REMARK    7  A    between atoms: C_17  and  C_21 
REMARK    8  A    between atoms: C_22  and  C_23 
ROOT
HETATM    1  C           1     -32.887  -4.525 -16.615  0.00  0.00     0.278 C 
ENDROOT
BRANCH   1   2
HETATM    2  C           1     -33.813  -4.455 -15.427  0.00  0.00     0.249 C 
HETATM    3  N           1     -33.345  -4.012 -14.218  0.00  0.00    -0.344 N 
HETATM    4  H           1     -32.377  -3.731 -14.123  0.00  0.00     0.163 HD
HETATM    5  O           1     -34.969  -4.790 -15.540  0.00  0.00    -0.271 OA
BRANCH   3   6
HETATM    6  C           1     -34.235  -3.945 -13.076  0.00  0.00     0.189 C 
BRANCH   6   7
HETATM    7  C           1     -33.503  -4.434 -11.832  0.00  0.00     0.010 C 
HETATM    8  C           1     -32.042  -4.697 -12.171  0.00  0.00     0.012 C 
HETATM    9  C           1     -34.149  -5.723 -11.340  0.00  0.00     0.012 C 
ENDBRANCH   6   7
BRANCH   6  10
HETATM   10  C           1     -34.681  -2.519 -12.869  0.00  0.00     0.197 C 
HETATM   11  O           1     -35.059  -1.834 -13.844  0.00  0.00    -0.646 OA
HETATM   12  O           1     -34.673  -2.022 -11.722  0.00  0.00    -0.646 OA
ENDBRANCH   6  10
ENDBRANCH   3   6
ENDBRANCH   1   2
BRANCH   1  13
HETATM   13  C           1     -31.442  -4.538 -16.134  0.00  0.00     0.081 C 
BRANCH  13  14
HETATM   14  C           1     -30.620  -5.396 -17.045  0.00  0.00    -0.056 A 
HETATM   15  C           1     -31.034  -6.696 -17.338  0.00  0.00     0.010 A 
HETATM   16  C           1     -30.268  -7.496 -18.186  0.00  0.00     0.037 A 
HETATM   17  C           1     -29.090  -6.997 -18.741  0.00  0.00     0.065 A 
HETATM   18  C           1     -28.677  -5.698 -18.447  0.00  0.00     0.037 A 
HETATM   19  C           1     -29.442  -4.897 -17.599  0.00  0.00     0.010 A 
BRANCH  17  20
HETATM   20  O           1     -28.347  -7.774 -19.565  0.00  0.00    -0.361 OA
HETATM   21  H           1     -28.283  -7.326 -20.424  0.00  0.00     0.217 HD
ENDBRANCH  17  20
ENDBRANCH  13  14
ENDBRANCH   1  13
BRANCH   1  22
HETATM   22  N           1     -33.110  -3.330 -17.494  0.00  0.00    -0.066 N 
HETATM   23  H           1     -34.069  -3.375 -17.905  0.00  0.00     0.275 HD
HETATM   24  H           1     -32.402  -3.327 -18.262  0.00  0.00     0.275 HD
HETATM   25  H           1     -33.014  -2.457 -16.928  0.00  0.00     0.275 HD
ENDBRANCH   1  22
TORSDOF 8
ENDMDL
MODEL 2
REMARK VINA RESULT:      -7.3     13.258     14.680
REMARK  8 active torsions:
REMARK  status: ('A' for Active; 'I' for Inactive)
REMARK    1  A    between atoms: C_5  and  C_10 
REMARK    2  A    between atoms: C_5  and  C_17 
REMARK    3  A    between atoms: C_5  and  N_19 
REMARK    4  A    between atoms: C_6  and  C_23 
REMARK       I    between atoms: C_10  and  N_13 
REMARK    5  A    between atoms: C_11  and  O_24 
REMARK    6  A    between atoms: N_13  and  C_23 
REMARK    7  A    between atoms: C_17  and  C_21 
REMARK    8  A    between atoms: C_22  and  C_23 
ROOT
HETATM    1  C           1     -22.191  -5.420  -6.754  0.00  0.00     0.278 C 
ENDROOT
BRANCH   1   2
HETATM    2  C           1     -21.304  -6.150  -5.775  0.00  0.00     0.249 C 
HETATM    3  N           1     -21.862  -6.899  -4.772  0.00  0.00    -0.344 N 
HETATM    4  H           1     -22.868  -6.962  -4.689  0.00  0.00     0.163 HD
HETATM    5  O           1     -20.102  -6.074  -5.874  0.00  0.00    -0.271 OA
BRANCH   3   6
HETATM    6  C           1     -21.010  -7.599  -3.832  0.00  0.00     0.189 C 
BRANCH   6   7
HETATM    7  C           1     -21.625  -7.528  -2.439  0.00  0.00     0.010 C 
HETATM    8  C           1     -22.079  -6.102  -2.155  0.00  0.00     0.012 C 
HETATM    9  C           1     -20.586  -7.944  -1.406  0.00  0.00     0.012 C 
ENDBRANCH   6   7
BRANCH   6  10
HETATM   10  C           1     -20.880  -9.042  -4.250  0.00  0.00     0.197 C 
HETATM   11  O           1     -21.830  -9.835  -4.066  0.00  0.00    -0.646 OA
HETATM   12  O           1     -19.823  -9.447  -4.782  0.00  0.00    -0.646 OA
ENDBRANCH   6  10
ENDBRANCH   3   6
ENDBRANCH   1   2
BRANCH   1  13
HETATM   13  C           1     -21.513  -4.127  -7.188  0.00  0.00     0.081 C 
BRANCH  13  14
HETATM   14  C           1     -21.541  -4.025  -8.681  0.00  0.00    -0.056 A 
HETATM   15  C           1     -22.729  -3.694  -9.334  0.00  0.00     0.010 A 
HETATM   16  C           1     -22.757  -3.599 -10.725  0.00  0.00     0.037 A 
HETATM   17  C           1     -21.597  -3.833 -11.463  0.00  0.00     0.065 A 
HETATM   18  C           1     -20.410  -4.163 -10.810  0.00  0.00     0.037 A 
HETATM   19  C           1     -20.381  -4.259  -9.418  0.00  0.00     0.010 A 
BRANCH  17  20
HETATM   20  O           1     -21.624  -3.740 -12.814  0.00  0.00    -0.361 OA
HETATM   21  H           1     -22.273  -4.382 -13.147  0.00  0.00     0.217 HD
ENDBRANCH  17  20
ENDBRANCH  13  14
ENDBRANCH   1  13
BRANCH   1  22
HETATM   22  N           1     -23.502  -5.101  -6.099  0.00  0.00    -0.066 N 
HETATM   23  H           1     -23.665  -5.762  -5.307  0.00  0.00     0.275 HD
HETATM   24  H           1     -24.272  -5.198  -6.799  0.00  0.00     0.275 HD
HETATM   25  H           1     -23.482  -4.121  -5.737  0.00  0.00     0.275 HD
ENDBRANCH   1  22
TORSDOF 8
ENDMDL
MODEL 3
REMARK VINA RESULT:      -7.2     12.574     14.587
REMARK  8 active torsions:
REMARK  status: ('A' for Active; 'I' for Inactive)
REMARK    1  A    between atoms: C_5  and  C_10 
REMARK    2  A    between atoms: C_5  and  C_17 
REMARK    3  A    between atoms: C_5  and  N_19 
REMARK    4  A    between atoms: C_6  and  C_23 
REMARK       I    between atoms: C_10  and  N_13 
REMARK    5  A    between atoms: C_11  and  O_24 
REMARK    6  A    between atoms: N_13  and  C_23 
REMARK    7  A    between atoms: C_17  and  C_21 
REMARK    8  A    between atoms: C_22  and  C_23 
ROOT
HETATM    1  C           1     -21.206  -5.679  -6.946  0.00  0.00     0.278 C 
ENDROOT
BRANCH   1   2
HETATM    2  C           1     -21.756  -4.530  -7.754  0.00  0.00     0.249 C 
HETATM    3  N           1     -22.271  -4.755  -9.003  0.00  0.00    -0.344 N 
HETATM    4  H           1     -22.283  -5.693  -9.383  0.00  0.00     0.163 HD
HETATM    5  O           1     -21.742  -3.410  -7.300  0.00  0.00    -0.271 OA
BRANCH   3   6
HETATM    6  C           1     -22.799  -3.652  -9.780  0.00  0.00     0.189 C 
BRANCH   6   7
HETATM    7  C           1     -22.011  -3.520 -11.077  0.00  0.00     0.010 C 
HETATM    8  C           1     -22.289  -4.726 -11.966  0.00  0.00     0.012 C 
HETATM    9  C           1     -20.523  -3.456 -10.761  0.00  0.00     0.012 C 
ENDBRANCH   6   7
BRANCH   6  10
HETATM   10  C           1     -24.251  -3.909 -10.098  0.00  0.00     0.197 C 
HETATM   11  O           1     -24.916  -3.053 -10.721  0.00  0.00    -0.646 OA
HETATM   12  O           1     -24.790  -4.979  -9.739  0.00  0.00    -0.646 OA
ENDBRANCH   6  10
ENDBRANCH   3   6
ENDBRANCH   1   2
BRANCH   1  13
HETATM   13  C           1     -20.961  -5.222  -5.513  0.00  0.00     0.081 C 
BRANCH  13  14
HETATM   14  C           1     -21.200  -6.365  -4.577  0.00  0.00    -0.056 A 
HETATM   15  C           1     -21.355  -7.657  -5.080  0.00  0.00     0.010 A 
HETATM   16  C           1     -21.577  -8.722  -4.208  0.00  0.00     0.037 A 
HETATM   17  C           1     -21.643  -8.496  -2.833  0.00  0.00     0.065 A 
HETATM   18  C           1     -21.487  -7.205  -2.331  0.00  0.00     0.037 A 
HETATM   19  C           1     -21.265  -6.138  -3.203  0.00  0.00     0.010 A 
BRANCH  17  20
HETATM   20  O           1     -21.859  -9.531  -1.986  0.00  0.00    -0.361 OA
HETATM   21  H           1     -22.714  -9.388  -1.548  0.00  0.00     0.217 HD
ENDBRANCH  17  20
ENDBRANCH  13  14
ENDBRANCH   1  13
BRANCH   1  22
HETATM   22  N           1     -19.914  -6.142  -7.550  0.00  0.00    -0.066 N 
HETATM   23  H           1     -19.887  -7.187  -7.554  0.00  0.00     0.275 HD
HETATM   24  H           1     -19.115  -5.775  -6.986  0.00  0.00     0.275 HD
HETATM   25  H           1     -19.840  -5.788  -8.530  0.00  0.00     0.275 HD
ENDBRANCH   1  22
TORSDOF 8
ENDMDL
MODEL 4
REMARK VINA RESULT:      -6.8     13.334     14.698
REMARK  8 active torsions:
REMARK  status: ('A' for Active; 'I' for Inactive)
REMARK    1  A    between atoms: C_5  and  C_10 
REMARK    2  A    between atoms: C_5  and  C_17 
REMARK    3  A    between atoms: C_5  and  N_19 
REMARK    4  A    between atoms: C_6  and  C_23 
REMARK       I    between atoms: C_10  and  N_13 
REMARK    5  A    between atoms: C_11  and  O_24 
REMARK    6  A    between atoms: N_13  and  C_23 
REMARK    7  A    between atoms: C_17  and  C_21 
REMARK    8  A    between atoms: C_22  and  C_23 
ROOT
HETATM    1  C           1     -20.427  -5.147  -6.451  0.00  0.00     0.278 C 
ENDROOT
BRANCH   1   2
HETATM    2  C           1     -21.297  -5.949  -5.514  0.00  0.00     0.249 C 
HETATM    3  N           1     -20.726  -6.822  -4.626  0.00  0.00    -0.344 N 
HETATM    4  H           1     -19.720  -6.929  -4.599  0.00  0.00     0.163 HD
HETATM    5  O           1     -22.498  -5.821  -5.546  0.00  0.00    -0.271 OA
BRANCH   3   6
HETATM    6  C           1     -21.561  -7.592  -3.727  0.00  0.00     0.189 C 
BRANCH   6   7
HETATM    7  C           1     -20.977  -8.989  -3.560  0.00  0.00     0.010 C 
HETATM    8  C           1     -19.733  -9.127  -4.427  0.00  0.00     0.012 C 
HETATM    9  C           1     -22.010 -10.024  -3.986  0.00  0.00     0.012 C 
ENDBRANCH   6   7
BRANCH   6  10
HETATM   10  C           1     -21.618  -6.907  -2.384  0.00  0.00     0.197 C 
HETATM   11  O           1     -20.973  -7.371  -1.418  0.00  0.00    -0.646 OA
HETATM   12  O           1     -22.310  -5.876  -2.236  0.00  0.00    -0.646 OA
ENDBRANCH   6  10
ENDBRANCH   3   6
ENDBRANCH   1   2
BRANCH   1  13
HETATM   13  C           1     -21.195  -3.927  -6.939  0.00  0.00     0.081 C 
BRANCH  13  14
HETATM   14  C           1     -21.463  -4.060  -8.406  0.00  0.00    -0.056 A 
HETATM   15  C           1     -22.741  -4.396  -8.853  0.00  0.00     0.010 A 
HETATM   16  C           1     -22.991  -4.520 -10.219  0.00  0.00     0.037 A 
HETATM   17  C           1     -21.965  -4.307 -11.139  0.00  0.00     0.065 A 
HETATM   18  C           1     -20.688  -3.971 -10.692  0.00  0.00     0.037 A 
HETATM   19  C           1     -20.436  -3.846  -9.325  0.00  0.00     0.010 A 
BRANCH  17  20
HETATM   20  O           1     -22.208  -4.428 -12.466  0.00  0.00    -0.361 OA
HETATM   21  H           1     -21.411  -4.148 -12.945  0.00  0.00     0.217 HD
ENDBRANCH  17  20
ENDBRANCH  13  14
ENDBRANCH   1  13
BRANCH   1  22
HETATM   22  N           1     -20.041  -5.998  -7.625  0.00  0.00    -0.066 N 
HETATM   23  H           1     -20.375  -6.976  -7.470  0.00  0.00     0.275 HD
HETATM   24  H           1     -19.001  -5.997  -7.728  0.00  0.00     0.275 HD
HETATM   25  H           1     -20.478  -5.613  -8.492  0.00  0.00     0.275 HD
ENDBRANCH   1  22
TORSDOF 8
ENDMDL
MODEL 5
REMARK VINA RESULT:      -6.6     14.251     15.963
REMARK  8 active torsions:
REMARK  status: ('A' for Active; 'I' for Inactive)
REMARK    1  A    between atoms: C_5  and  C_10 
REMARK    2  A    between atoms: C_5  and  C_17 
REMARK    3  A    between atoms: C_5  and  N_19 
REMARK    4  A    between atoms: C_6  and  C_23 
REMARK       I    between atoms: C_10  and  N_13 
REMARK    5  A    between atoms: C_11  and  O_24 
REMARK    6  A    between atoms: N_13  and  C_23 
REMARK    7  A    between atoms: C_17  and  C_21 
REMARK    8  A    between atoms: C_22  and  C_23 
ROOT
HETATM    1  C           1     -21.149  -6.042  -5.542  0.00  0.00     0.278 C 
ENDROOT
BRANCH   1   2
HETATM    2  C           1     -20.216  -7.227  -5.595  0.00  0.00     0.249 C 
HETATM    3  N           1     -20.247  -8.169  -4.601  0.00  0.00    -0.344 N 
HETATM    4  H           1     -20.896  -8.070  -3.831  0.00  0.00     0.163 HD
HETATM    5  O           1     -19.440  -7.344  -6.514  0.00  0.00    -0.271 OA
BRANCH   3   6
HETATM    6  C           1     -19.350  -9.306  -4.652  0.00  0.00     0.189 C 
BRANCH   6   7
HETATM    7  C           1     -18.920  -9.679  -3.239  0.00  0.00     0.010 C 
HETATM    8  C           1     -19.660  -8.805  -2.235  0.00  0.00     0.012 C 
HETATM    9  C           1     -17.420  -9.461  -3.092  0.00  0.00     0.012 C 
ENDBRANCH   6   7
BRANCH   6  10
HETATM   10  C           1     -20.058 -10.477  -5.288  0.00  0.00     0.197 C 
HETATM   11  O           1     -19.669 -10.918  -6.391  0.00  0.00    -0.646 OA
HETATM   12  O           1     -21.033 -11.006  -4.711  0.00  0.00    -0.646 OA
ENDBRANCH   6  10
ENDBRANCH   3   6
ENDBRANCH   1   2
BRANCH   1  13
HETATM   13  C           1     -20.426  -4.801  -6.049  0.00  0.00     0.081 C 
BRANCH  13  14
HETATM   14  C           1     -20.936  -4.448  -7.411  0.00  0.00    -0.056 A 
HETATM   15  C           1     -22.293  -4.186  -7.600  0.00  0.00     0.010 A 
HETATM   16  C           1     -22.769  -3.857  -8.869  0.00  0.00     0.037 A 
HETATM   17  C           1     -21.889  -3.788  -9.949  0.00  0.00     0.065 A 
HETATM   18  C           1     -20.532  -4.051  -9.759  0.00  0.00     0.037 A 
HETATM   19  C           1     -20.055  -4.380  -8.490  0.00  0.00     0.010 A 
BRANCH  17  20
HETATM   20  O           1     -22.351  -3.469 -11.181  0.00  0.00    -0.361 OA
HETATM   21  H           1     -22.188  -2.522 -11.327  0.00  0.00     0.217 HD
ENDBRANCH  17  20
ENDBRANCH  13  14
ENDBRANCH   1  13
BRANCH   1  22
HETATM   22  N           1     -21.592  -5.818  -4.126  0.00  0.00    -0.066 N 
HETATM   23  H           1     -22.233  -4.994  -4.089  0.00  0.00     0.275 HD
HETATM   24  H           1     -20.757  -5.637  -3.525  0.00  0.00     0.275 HD
HETATM   25  H           1     -22.094  -6.666  -3.779  0.00  0.00     0.275 HD
ENDBRANCH   1  22
TORSDOF 8
ENDMDL
MODEL 6
REMARK VINA RESULT:      -6.5     15.016     16.569
REMARK  8 active torsions:
REMARK  status: ('A' for Active; 'I' for Inactive)
REMARK    1  A    between atoms: C_5  and  C_10 
REMARK    2  A    between atoms: C_5  and  C_17 
REMARK    3  A    between atoms: C_5  and  N_19 
REMARK    4  A    between atoms: C_6  and  C_23 
REMARK       I    between atoms: C_10  and  N_13 
REMARK    5  A    between atoms: C_11  and  O_24 
REMARK    6  A    between atoms: N_13  and  C_23 
REMARK    7  A    between atoms: C_17  and  C_21 
REMARK    8  A    between atoms: C_22  and  C_23 
ROOT
HETATM    1  C           1     -20.373  -7.715  -4.803  0.00  0.00     0.278 C 
ENDROOT
BRANCH   1   2
HETATM    2  C           1     -20.359  -8.375  -3.446  0.00  0.00     0.249 C 
HETATM    3  N           1     -21.515  -8.465  -2.717  0.00  0.00    -0.344 N 
HETATM    4  H           1     -22.378  -8.090  -3.088  0.00  0.00     0.163 HD
HETATM    5  O           1     -19.328  -8.823  -3.002  0.00  0.00    -0.271 OA
BRANCH   3   6
HETATM    6  C           1     -21.501  -9.098  -1.413  0.00  0.00     0.189 C 
BRANCH   6   7
HETATM    7  C           1     -22.301  -8.254  -0.429  0.00  0.00     0.010 C 
HETATM    8  C           1     -22.360  -6.815  -0.924  0.00  0.00     0.012 C 
HETATM    9  C           1     -21.627  -8.292   0.936  0.00  0.00     0.012 C 
ENDBRANCH   6   7
BRANCH   6  10
HETATM   10  C           1     -22.118 -10.471  -1.514  0.00  0.00     0.197 C 
HETATM   11  O           1     -23.343 -10.622  -1.313  0.00  0.00    -0.646 OA
HETATM   12  O           1     -21.405 -11.458  -1.799  0.00  0.00    -0.646 OA
ENDBRANCH   6  10
ENDBRANCH   3   6
ENDBRANCH   1   2
BRANCH   1  13
HETATM   13  C           1     -21.035  -6.347  -4.698  0.00  0.00     0.081 C 
BRANCH  13  14
HETATM   14  C           1     -20.933  -5.640  -6.013  0.00  0.00    -0.056 A 
HETATM   15  C           1     -22.088  -5.186  -6.650  0.00  0.00     0.010 A 
HETATM   16  C           1     -21.994  -4.527  -7.876  0.00  0.00     0.037 A 
HETATM   17  C           1     -20.746  -4.322  -8.464  0.00  0.00     0.065 A 
HETATM   18  C           1     -19.592  -4.777  -7.826  0.00  0.00     0.037 A 
HETATM   19  C           1     -19.685  -5.436  -6.600  0.00  0.00     0.010 A 
BRANCH  17  20
HETATM   20  O           1     -20.655  -3.682  -9.654  0.00  0.00    -0.361 OA
HETATM   21  H           1     -21.175  -2.864  -9.597  0.00  0.00     0.217 HD
ENDBRANCH  17  20
ENDBRANCH  13  14
ENDBRANCH   1  13
BRANCH   1  22
HETATM   22  N           1     -21.143  -8.569  -5.767  0.00  0.00    -0.066 N 
HETATM   23  H           1     -20.490  -9.233  -6.241  0.00  0.00     0.275 HD
HETATM   24  H           1     -21.601  -7.960  -6.481  0.00  0.00     0.275 HD
HETATM   25  H           1     -21.872  -9.109  -5.249  0.00  0.00     0.275 HD
ENDBRANCH   1  22
TORSDOF 8
ENDMDL
MODEL 7
REMARK VINA RESULT:      -6.1     13.885     15.639
REMARK  8 active torsions:
REMARK  status: ('A' for Active; 'I' for Inactive)
REMARK    1  A    between atoms: C_5  and  C_10 
REMARK    2  A    between atoms: C_5  and  C_17 
REMARK    3  A    between atoms: C_5  and  N_19 
REMARK    4  A    between atoms: C_6  and  C_23 
REMARK       I    between atoms: C_10  and  N_13 
REMARK    5  A    between atoms: C_11  and  O_24 
REMARK    6  A    between atoms: N_13  and  C_23 
REMARK    7  A    between atoms: C_17  and  C_21 
REMARK    8  A    between atoms: C_22  and  C_23 
ROOT
HETATM    1  C           1     -21.688  -6.595  -5.805  0.00  0.00     0.278 C 
ENDROOT
BRANCH   1   2
HETATM    2  C           1     -20.930  -7.661  -5.054  0.00  0.00     0.249 C 
HETATM    3  N           1     -20.639  -8.853  -5.663  0.00  0.00    -0.344 N 
HETATM    4  H           1     -20.933  -9.018  -6.617  0.00  0.00     0.163 HD
HETATM    5  O           1     -20.578  -7.465  -3.915  0.00  0.00    -0.271 OA
BRANCH   3   6
HETATM    6  C           1     -19.911  -9.878  -4.942  0.00  0.00     0.189 C 
BRANCH   6   7
HETATM    7  C           1     -20.695 -11.184  -4.983  0.00  0.00     0.010 C 
HETATM    8  C           1     -21.252 -11.399  -6.384  0.00  0.00     0.012 C 
HETATM    9  C           1     -21.844 -11.115  -3.986  0.00  0.00     0.012 C 
ENDBRANCH   6   7
BRANCH   6  10
HETATM   10  C           1     -18.561 -10.082  -5.584  0.00  0.00     0.197 C 
HETATM   11  O           1     -18.151  -9.275  -6.447  0.00  0.00    -0.646 OA
HETATM   12  O           1     -17.852 -11.057  -5.253  0.00  0.00    -0.646 OA
ENDBRANCH   6  10
ENDBRANCH   3   6
ENDBRANCH   1   2
BRANCH   1  13
HETATM   13  C           1     -20.759  -5.427  -6.107  0.00  0.00     0.081 C 
BRANCH  13  14
HETATM   14  C           1     -21.086  -4.863  -7.455  0.00  0.00    -0.056 A 
HETATM   15  C           1     -22.313  -4.233  -7.666  0.00  0.00     0.010 A 
HETATM   16  C           1     -22.618  -3.708  -8.922  0.00  0.00     0.037 A 
HETATM   17  C           1     -21.699  -3.812  -9.965  0.00  0.00     0.065 A 
HETATM   18  C           1     -20.473  -4.443  -9.753  0.00  0.00     0.037 A 
HETATM   19  C           1     -20.166  -4.969  -8.497  0.00  0.00     0.010 A 
BRANCH  17  20
HETATM   20  O           1     -21.996  -3.302 -11.184  0.00  0.00    -0.361 OA
HETATM   21  H           1     -21.578  -2.428 -11.255  0.00  0.00     0.217 HD
ENDBRANCH  17  20
ENDBRANCH  13  14
ENDBRANCH   1  13
BRANCH   1  22
HETATM   22  N           1     -22.837  -6.116  -4.968  0.00  0.00    -0.066 N 
HETATM   23  H           1     -23.122  -5.161  -5.283  0.00  0.00     0.275 HD
HETATM   24  H           1     -22.545  -6.079  -3.966  0.00  0.00     0.275 HD
HETATM   25  H           1     -23.643  -6.772  -5.073  0.00  0.00     0.275 HD
ENDBRANCH   1  22
TORSDOF 8
ENDMDL
MODEL 8
REMARK VINA RESULT:      -5.8      2.160      6.879
REMARK  8 active torsions:
REMARK  status: ('A' for Active; 'I' for Inactive)
REMARK    1  A    between atoms: C_5  and  C_10 
REMARK    2  A    between atoms: C_5  and  C_17 
REMARK    3  A    between atoms: C_5  and  N_19 
REMARK    4  A    between atoms: C_6  and  C_23 
REMARK       I    between atoms: C_10  and  N_13 
REMARK    5  A    between atoms: C_11  and  O_24 
REMARK    6  A    between atoms: N_13  and  C_23 
REMARK    7  A    between atoms: C_17  and  C_21 
REMARK    8  A    between atoms: C_22  and  C_23 
ROOT
HETATM    1  C           1     -33.290  -3.732 -15.845  0.00  0.00     0.278 C 
ENDROOT
BRANCH   1   2
HETATM    2  C           1     -32.239  -4.694 -16.341  0.00  0.00     0.249 C 
HETATM    3  N           1     -30.930  -4.527 -15.975  0.00  0.00    -0.344 N 
HETATM    4  H           1     -30.668  -3.758 -15.372  0.00  0.00     0.163 HD
HETATM    5  O           1     -32.552  -5.611 -17.063  0.00  0.00    -0.271 OA
BRANCH   3   6
HETATM    6  C           1     -29.920  -5.450 -16.453  0.00  0.00     0.189 C 
BRANCH   6   7
HETATM    7  C           1     -28.926  -4.705 -17.334  0.00  0.00     0.010 C 
HETATM    8  C           1     -29.166  -3.206 -17.218  0.00  0.00     0.012 C 
HETATM    9  C           1     -29.111  -5.137 -18.783  0.00  0.00     0.012 C 
ENDBRANCH   6   7
BRANCH   6  10
HETATM   10  C           1     -29.194  -6.054 -15.276  0.00  0.00     0.197 C 
HETATM   11  O           1     -29.559  -5.782 -14.111  0.00  0.00    -0.646 OA
HETATM   12  O           1     -28.230  -6.826 -15.466  0.00  0.00    -0.646 OA
ENDBRANCH   6  10
ENDBRANCH   3   6
ENDBRANCH   1   2
BRANCH   1  13
HETATM   13  C           1     -34.160  -4.423 -14.803  0.00  0.00     0.081 C 
BRANCH  13  14
HETATM   14  C           1     -34.029  -3.712 -13.492  0.00  0.00    -0.056 A 
HETATM   15  C           1     -34.788  -2.569 -13.241  0.00  0.00     0.010 A 
HETATM   16  C           1     -34.667  -1.906 -12.020  0.00  0.00     0.037 A 
HETATM   17  C           1     -33.787  -2.386 -11.050  0.00  0.00     0.065 A 
HETATM   18  C           1     -33.028  -3.529 -11.302  0.00  0.00     0.037 A 
HETATM   19  C           1     -33.150  -4.192 -12.523  0.00  0.00     0.010 A 
BRANCH  17  20
HETATM   20  O           1     -33.669  -1.742  -9.864  0.00  0.00    -0.361 OA
HETATM   21  H           1     -33.617  -2.411  -9.162  0.00  0.00     0.217 HD
ENDBRANCH  17  20
ENDBRANCH  13  14
ENDBRANCH   1  13
BRANCH   1  22
HETATM   22  N           1     -34.145  -3.288 -16.995  0.00  0.00    -0.066 N 
HETATM   23  H           1     -34.240  -4.071 -17.680  0.00  0.00     0.275 HD
HETATM   24  H           1     -33.700  -2.467 -17.463  0.00  0.00     0.275 HD
HETATM   25  H           1     -35.091  -3.018 -16.642  0.00  0.00     0.275 HD
ENDBRANCH   1  22
TORSDOF 8
ENDMDL
MODEL 9
REMARK VINA RESULT:      -5.8     18.662     20.871
REMARK  8 active torsions:
REMARK  status: ('A' for Active; 'I' for Inactive)
REMARK    1  A    between atoms: C_5  and  C_10 
REMARK    2  A    between atoms: C_5  and  C_17 
REMARK    3  A    between atoms: C_5  and  N_19 
REMARK    4  A    between atoms: C_6  and  C_23 
REMARK       I    between atoms: C_10  and  N_13 
REMARK    5  A    between atoms: C_11  and  O_24 
REMARK    6  A    between atoms: N_13  and  C_23 
REMARK    7  A    between atoms: C_17  and  C_21 
REMARK    8  A    between atoms: C_22  and  C_23 
ROOT
HETATM    1  C           1     -20.447 -11.449  -2.317  0.00  0.00     0.278 C 
ENDROOT
BRANCH   1   2
HETATM    2  C           1     -19.075 -12.046  -2.123  0.00  0.00     0.249 C 
HETATM    3  N           1     -18.075 -11.295  -1.565  0.00  0.00    -0.344 N 
HETATM    4  H           1     -18.256 -10.340  -1.284  0.00  0.00     0.163 HD
HETATM    5  O           1     -18.858 -13.186  -2.459  0.00  0.00    -0.271 OA
BRANCH   3   6
HETATM    6  C           1     -16.756 -11.868  -1.379  0.00  0.00     0.189 C 
BRANCH   6   7
HETATM    7  C           1     -15.721 -11.002  -2.085  0.00  0.00     0.010 C 
HETATM    8  C           1     -16.390  -9.742  -2.619  0.00  0.00     0.012 C 
HETATM    9  C           1     -15.113 -11.783  -3.243  0.00  0.00     0.012 C 
ENDBRANCH   6   7
BRANCH   6  10
HETATM   10  C           1     -16.439 -11.929   0.095  0.00  0.00     0.197 C 
HETATM   11  O           1     -17.298 -12.346   0.902  0.00  0.00    -0.646 OA
HETATM   12  O           1     -15.317 -11.564   0.509  0.00  0.00    -0.646 OA
ENDBRANCH   6  10
ENDBRANCH   3   6
ENDBRANCH   1   2
BRANCH   1  13
HETATM   13  C           1     -20.956 -10.900  -0.991  0.00  0.00     0.081 C 
BRANCH  13  14
HETATM   14  C           1     -21.348  -9.465  -1.162  0.00  0.00    -0.056 A 
HETATM   15  C           1     -22.162  -8.847  -0.213  0.00  0.00     0.010 A 
HETATM   16  C           1     -22.527  -7.511  -0.372  0.00  0.00     0.037 A 
HETATM   17  C           1     -22.077  -6.791  -1.480  0.00  0.00     0.065 A 
HETATM   18  C           1     -21.263  -7.410  -2.428  0.00  0.00     0.037 A 
HETATM   19  C           1     -20.898  -8.747  -2.270  0.00  0.00     0.010 A 
BRANCH  17  20
HETATM   20  O           1     -22.432  -5.493  -1.634  0.00  0.00    -0.361 OA
HETATM   21  H           1     -22.741  -5.162  -0.775  0.00  0.00     0.217 HD
ENDBRANCH  17  20
ENDBRANCH  13  14
ENDBRANCH   1  13
BRANCH   1  22
HETATM   22  N           1     -21.387 -12.508  -2.813  0.00  0.00    -0.066 N 
HETATM   23  H           1     -20.848 -13.375  -3.035  0.00  0.00     0.275 HD
HETATM   24  H           1     -21.872 -12.168  -3.674  0.00  0.00     0.275 HD
HETATM   25  H           1     -22.096 -12.719  -2.074  0.00  0.00     0.275 HD
ENDBRANCH   1  22
TORSDOF 8
ENDMDL
