MODEL 1
REMARK VINA RESULT:      -6.4      0.000      0.000
REMARK  11 active torsions:
REMARK  status: ('A' for Active; 'I' for Inactive)
REMARK    1  A    between atoms: C_1  and  C_21 
REMARK    2  A    between atoms: C_6  and  C_13 
REMARK    3  A    between atoms: C_6  and  C_7 
REMARK    4  A    between atoms: C_9  and  N_14 
REMARK    5  A    between atoms: C_9  and  C_10 
REMARK    6  A    between atoms: C_10  and  C_19 
REMARK    7  A    between atoms: N_12  and  C_13 
REMARK    8  A    between atoms: C_13  and  C_22 
REMARK    9  A    between atoms: C_19  and  C_20 
REMARK   10  A    between atoms: C_20  and  C_21 
REMARK   11  A    between atoms: C_21  and  N_23 
REMARK       I    between atoms: C_22  and  N_23 
ROOT
HETATM    1  H           1     -35.784  -2.552 -12.672  0.00  0.00     0.163 HD
HETATM    2  O           1     -33.488  -1.857 -10.649  0.00  0.00    -0.271 OA
HETATM    3  C           1     -34.143  -2.529 -11.411  0.00  0.00     0.249 C 
HETATM    4  N           1     -35.235  -1.989 -12.035  0.00  0.00    -0.345 N 
ENDROOT
BRANCH   4   5
HETATM    5  C           1     -35.607  -0.610 -11.782  0.00  0.00     0.185 C 
BRANCH   5   6
HETATM    6  C           1     -36.674  -0.565 -10.716  0.00  0.00     0.196 C 
HETATM    7  O           1     -36.404  -0.117  -9.580  0.00  0.00    -0.646 OA
HETATM    8  O           1     -37.827  -0.976 -10.969  0.00  0.00    -0.646 OA
ENDBRANCH   5   6
BRANCH   5   9
HETATM    9  C           1     -36.143   0.014 -13.064  0.00  0.00     0.036 C 
BRANCH   9  10
HETATM   10  C           1     -35.038   0.815 -13.740  0.00  0.00     0.004 C 
BRANCH  10  11
HETATM   11  C           1     -35.396   1.039 -15.204  0.00  0.00     0.027 C 
BRANCH  11  12
HETATM   12  C           1     -36.742   0.393 -15.502  0.00  0.00     0.229 C 
BRANCH  12  13
HETATM   13  N           1     -37.707   1.441 -15.974  0.00  0.00    -0.079 N 
HETATM   14  H           1     -37.629   1.543 -17.011  0.00  0.00     0.274 HD
HETATM   15  H           1     -38.681   1.155 -15.725  0.00  0.00     0.274 HD
HETATM   16  H           1     -37.483   2.352 -15.515  0.00  0.00     0.274 HD
ENDBRANCH  12  13
ENDBRANCH  11  12
ENDBRANCH  10  11
ENDBRANCH   9  10
ENDBRANCH   5   9
ENDBRANCH   4   5
BRANCH   3  17
HETATM   17  C           1     -33.756  -3.964 -11.674  0.00  0.00     0.275 C 
BRANCH  17  18
HETATM   18  C           1     -34.024  -4.799 -10.428  0.00  0.00     0.046 C 
BRANCH  18  19
HETATM   19  C           1     -34.224  -6.255 -10.825  0.00  0.00    -0.020 C 
HETATM   20  C           1     -34.885  -7.009  -9.679  0.00  0.00     0.009 C 
HETATM   21  C           1     -35.116  -6.327 -12.058  0.00  0.00     0.009 C 
ENDBRANCH  18  19
ENDBRANCH  17  18
BRANCH  17  22
HETATM   22  N           1     -32.298  -4.032 -12.016  0.00  0.00    -0.066 N 
HETATM   23  H           1     -32.045  -5.014 -12.270  0.00  0.00     0.275 HD
HETATM   24  H           1     -32.100  -3.402 -12.826  0.00  0.00     0.275 HD
HETATM   25  H           1     -31.732  -3.729 -11.192  0.00  0.00     0.275 HD
ENDBRANCH  17  22
ENDBRANCH   3  17
TORSDOF 11
ENDMDL
MODEL 2
REMARK VINA RESULT:      -6.2      2.403      3.757
REMARK  11 active torsions:
REMARK  status: ('A' for Active; 'I' for Inactive)
REMARK    1  A    between atoms: C_1  and  C_21 
REMARK    2  A    between atoms: C_6  and  C_13 
REMARK    3  A    between atoms: C_6  and  C_7 
REMARK    4  A    between atoms: C_9  and  N_14 
REMARK    5  A    between atoms: C_9  and  C_10 
REMARK    6  A    between atoms: C_10  and  C_19 
REMARK    7  A    between atoms: N_12  and  C_13 
REMARK    8  A    between atoms: C_13  and  C_22 
REMARK    9  A    between atoms: C_19  and  C_20 
REMARK   10  A    between atoms: C_20  and  C_21 
REMARK   11  A    between atoms: C_21  and  N_23 
REMARK       I    between atoms: C_22  and  N_23 
ROOT
HETATM    1  H           1     -35.378  -0.703 -11.283  0.00  0.00     0.163 HD
HETATM    2  O           1     -34.693  -2.716 -13.591  0.00  0.00    -0.271 OA
HETATM    3  C           1     -34.643  -2.213 -12.493  0.00  0.00     0.249 C 
HETATM    4  N           1     -35.420  -1.124 -12.203  0.00  0.00    -0.345 N 
ENDROOT
BRANCH   4   5
HETATM    5  C           1     -36.302  -0.573 -13.213  0.00  0.00     0.185 C 
BRANCH   5   6
HETATM    6  C           1     -35.590   0.534 -13.951  0.00  0.00     0.196 C 
HETATM    7  O           1     -34.659   1.157 -13.396  0.00  0.00    -0.646 OA
HETATM    8  O           1     -35.931   0.827 -15.118  0.00  0.00    -0.646 OA
ENDBRANCH   5   6
BRANCH   5   9
HETATM    9  C           1     -37.552  -0.016 -12.545  0.00  0.00     0.036 C 
BRANCH   9  10
HETATM   10  C           1     -37.687  -0.604 -11.146  0.00  0.00     0.004 C 
BRANCH  10  11
HETATM   11  C           1     -37.694   0.521 -10.120  0.00  0.00     0.027 C 
BRANCH  11  12
HETATM   12  C           1     -36.850   0.119  -8.919  0.00  0.00     0.229 C 
BRANCH  12  13
HETATM   13  N           1     -36.272   1.346  -8.279  0.00  0.00    -0.079 N 
HETATM   14  H           1     -35.330   1.541  -8.687  0.00  0.00     0.274 HD
HETATM   15  H           1     -36.902   2.161  -8.454  0.00  0.00     0.274 HD
HETATM   16  H           1     -36.182   1.192  -7.249  0.00  0.00     0.274 HD
ENDBRANCH  12  13
ENDBRANCH  11  12
ENDBRANCH  10  11
ENDBRANCH   9  10
ENDBRANCH   5   9
ENDBRANCH   4   5
BRANCH   3  17
HETATM   17  C           1     -33.725  -2.787 -11.442  0.00  0.00     0.275 C 
BRANCH  17  18
HETATM   18  C           1     -34.446  -3.898 -10.689  0.00  0.00     0.046 C 
BRANCH  18  19
HETATM   19  C           1     -34.093  -5.244 -11.308  0.00  0.00    -0.020 C 
HETATM   20  C           1     -32.605  -5.283 -11.627  0.00  0.00     0.009 C 
HETATM   21  C           1     -34.430  -6.358 -10.325  0.00  0.00     0.009 C 
ENDBRANCH  18  19
ENDBRANCH  17  18
BRANCH  17  22
HETATM   22  N           1     -33.331  -1.706 -10.479  0.00  0.00    -0.066 N 
HETATM   23  H           1     -32.387  -1.338 -10.736  0.00  0.00     0.275 HD
HETATM   24  H           1     -34.030  -0.931 -10.522  0.00  0.00     0.275 HD
HETATM   25  H           1     -33.301  -2.097  -9.511  0.00  0.00     0.275 HD
ENDBRANCH  17  22
ENDBRANCH   3  17
TORSDOF 11
ENDMDL
MODEL 3
REMARK VINA RESULT:      -6.0     10.623     12.096
REMARK  11 active torsions:
REMARK  status: ('A' for Active; 'I' for Inactive)
REMARK    1  A    between atoms: C_1  and  C_21 
REMARK    2  A    between atoms: C_6  and  C_13 
REMARK    3  A    between atoms: C_6  and  C_7 
REMARK    4  A    between atoms: C_9  and  N_14 
REMARK    5  A    between atoms: C_9  and  C_10 
REMARK    6  A    between atoms: C_10  and  C_19 
REMARK    7  A    between atoms: N_12  and  C_13 
REMARK    8  A    between atoms: C_13  and  C_22 
REMARK    9  A    between atoms: C_19  and  C_20 
REMARK   10  A    between atoms: C_20  and  C_21 
REMARK   11  A    between atoms: C_21  and  N_23 
REMARK       I    between atoms: C_22  and  N_23 
ROOT
HETATM    1  H           1     -27.401  -7.061 -20.163  0.00  0.00     0.163 HD
HETATM    2  O           1     -25.828  -6.239 -17.575  0.00  0.00    -0.271 OA
HETATM    3  C           1     -25.994  -6.604 -18.715  0.00  0.00     0.249 C 
HETATM    4  N           1     -27.262  -6.755 -19.208  0.00  0.00    -0.345 N 
ENDROOT
BRANCH   4   5
HETATM    5  C           1     -28.407  -6.477 -18.362  0.00  0.00     0.185 C 
BRANCH   5   6
HETATM    6  C           1     -29.406  -7.601 -18.485  0.00  0.00     0.196 C 
HETATM    7  O           1     -30.263  -7.776 -17.591  0.00  0.00    -0.646 OA
HETATM    8  O           1     -29.378  -8.356 -19.481  0.00  0.00    -0.646 OA
ENDBRANCH   5   6
BRANCH   5   9
HETATM    9  C           1     -29.055  -5.171 -18.799  0.00  0.00     0.036 C 
BRANCH   9  10
HETATM   10  C           1     -29.241  -4.265 -17.589  0.00  0.00     0.004 C 
BRANCH  10  11
HETATM   11  C           1     -30.645  -3.674 -17.608  0.00  0.00     0.027 C 
BRANCH  11  12
HETATM   12  C           1     -31.590  -4.585 -16.837  0.00  0.00     0.229 C 
BRANCH  12  13
HETATM   13  N           1     -30.815  -5.362 -15.815  0.00  0.00    -0.079 N 
HETATM   14  H           1     -31.376  -6.189 -15.507  0.00  0.00     0.274 HD
HETATM   15  H           1     -29.915  -5.689 -16.233  0.00  0.00     0.274 HD
HETATM   16  H           1     -30.614  -4.751 -14.992  0.00  0.00     0.274 HD
ENDBRANCH  12  13
ENDBRANCH  11  12
ENDBRANCH  10  11
ENDBRANCH   9  10
ENDBRANCH   5   9
ENDBRANCH   4   5
BRANCH   3  17
HETATM   17  C           1     -24.803  -6.893 -19.595  0.00  0.00     0.275 C 
BRANCH  17  18
HETATM   18  C           1     -25.131  -8.049 -20.532  0.00  0.00     0.046 C 
BRANCH  18  19
HETATM   19  C           1     -24.602  -7.740 -21.926  0.00  0.00    -0.020 C 
HETATM   20  C           1     -24.536  -6.232 -22.123  0.00  0.00     0.009 C 
HETATM   21  C           1     -23.208  -8.333 -22.082  0.00  0.00     0.009 C 
ENDBRANCH  18  19
ENDBRANCH  17  18
BRANCH  17  22
HETATM   22  N           1     -23.628  -7.263 -18.739  0.00  0.00    -0.066 N 
HETATM   23  H           1     -23.924  -7.965 -18.025  0.00  0.00     0.275 HD
HETATM   24  H           1     -22.876  -7.671 -19.338  0.00  0.00     0.275 HD
HETATM   25  H           1     -23.266  -6.409 -18.258  0.00  0.00     0.275 HD
ENDBRANCH  17  22
ENDBRANCH   3  17
TORSDOF 11
ENDMDL
MODEL 4
REMARK VINA RESULT:      -5.9     13.789     16.914
REMARK  11 active torsions:
REMARK  status: ('A' for Active; 'I' for Inactive)
REMARK    1  A    between atoms: C_1  and  C_21 
REMARK    2  A    between atoms: C_6  and  C_13 
REMARK    3  A    between atoms: C_6  and  C_7 
REMARK    4  A    between atoms: C_9  and  N_14 
REMARK    5  A    between atoms: C_9  and  C_10 
REMARK    6  A    between atoms: C_10  and  C_19 
REMARK    7  A    between atoms: N_12  and  C_13 
REMARK    8  A    between atoms: C_13  and  C_22 
REMARK    9  A    between atoms: C_19  and  C_20 
REMARK   10  A    between atoms: C_20  and  C_21 
REMARK   11  A    between atoms: C_21  and  N_23 
REMARK       I    between atoms: C_22  and  N_23 
ROOT
HETATM    1  H           1     -22.668  -6.749  -6.232  0.00  0.00     0.163 HD
HETATM    2  O           1     -20.746  -4.274  -6.404  0.00  0.00    -0.271 OA
HETATM    3  C           1     -21.645  -5.017  -6.721  0.00  0.00     0.249 C 
HETATM    4  N           1     -21.915  -6.126  -5.966  0.00  0.00    -0.345 N 
ENDROOT
BRANCH   4   5
HETATM    5  C           1     -21.121  -6.412  -4.786  0.00  0.00     0.185 C 
BRANCH   5   6
HETATM    6  C           1     -20.156  -7.531  -5.089  0.00  0.00     0.196 C 
HETATM    7  O           1     -19.889  -8.380  -4.211  0.00  0.00    -0.646 OA
HETATM    8  O           1     -19.624  -7.610  -6.218  0.00  0.00    -0.646 OA
ENDBRANCH   5   6
BRANCH   5   9
HETATM    9  C           1     -22.041  -6.828  -3.646  0.00  0.00     0.036 C 
BRANCH   9  10
HETATM   10  C           1     -21.730  -5.992  -2.411  0.00  0.00     0.004 C 
BRANCH  10  11
HETATM   11  C           1     -22.261  -6.700  -1.171  0.00  0.00     0.027 C 
BRANCH  11  12
HETATM   12  C           1     -21.592  -8.061  -1.038  0.00  0.00     0.229 C 
BRANCH  12  13
HETATM   13  N           1     -22.606  -9.077  -0.603  0.00  0.00    -0.079 N 
HETATM   14  H           1     -23.215  -9.331  -1.414  0.00  0.00     0.274 HD
HETATM   15  H           1     -22.116  -9.933  -0.256  0.00  0.00     0.274 HD
HETATM   16  H           1     -23.193  -8.678   0.163  0.00  0.00     0.274 HD
ENDBRANCH  12  13
ENDBRANCH  11  12
ENDBRANCH  10  11
ENDBRANCH   9  10
ENDBRANCH   5   9
ENDBRANCH   4   5
BRANCH   3  17
HETATM   17  C           1     -22.471  -4.720  -7.949  0.00  0.00     0.275 C 
BRANCH  17  18
HETATM   18  C           1     -21.723  -3.735  -8.838  0.00  0.00     0.046 C 
BRANCH  18  19
HETATM   19  C           1     -21.456  -4.375 -10.194  0.00  0.00    -0.020 C 
HETATM   20  C           1     -22.767  -4.521 -10.955  0.00  0.00     0.009 C 
HETATM   21  C           1     -20.503  -3.494 -10.992  0.00  0.00     0.009 C 
ENDBRANCH  18  19
ENDBRANCH  17  18
BRANCH  17  22
HETATM   22  N           1     -23.783  -4.123  -7.535  0.00  0.00    -0.066 N 
HETATM   23  H           1     -24.070  -4.518  -6.612  0.00  0.00     0.275 HD
HETATM   24  H           1     -23.683  -3.086  -7.454  0.00  0.00     0.275 HD
HETATM   25  H           1     -24.509  -4.348  -8.252  0.00  0.00     0.275 HD
ENDBRANCH  17  22
ENDBRANCH   3  17
TORSDOF 11
ENDMDL
MODEL 5
REMARK VINA RESULT:      -5.6     15.149     17.679
REMARK  11 active torsions:
REMARK  status: ('A' for Active; 'I' for Inactive)
REMARK    1  A    between atoms: C_1  and  C_21 
REMARK    2  A    between atoms: C_6  and  C_13 
REMARK    3  A    between atoms: C_6  and  C_7 
REMARK    4  A    between atoms: C_9  and  N_14 
REMARK    5  A    between atoms: C_9  and  C_10 
REMARK    6  A    between atoms: C_10  and  C_19 
REMARK    7  A    between atoms: N_12  and  C_13 
REMARK    8  A    between atoms: C_13  and  C_22 
REMARK    9  A    between atoms: C_19  and  C_20 
REMARK   10  A    between atoms: C_20  and  C_21 
REMARK   11  A    between atoms: C_21  and  N_23 
REMARK       I    between atoms: C_22  and  N_23 
ROOT
HETATM    1  H           1     -21.057  -7.703  -6.718  0.00  0.00     0.163 HD
HETATM    2  O           1     -21.329  -5.473  -4.527  0.00  0.00    -0.271 OA
HETATM    3  C           1     -21.382  -5.976  -5.625  0.00  0.00     0.249 C 
HETATM    4  N           1     -21.012  -7.282  -5.799  0.00  0.00    -0.345 N 
ENDROOT
BRANCH   4   5
HETATM    5  C           1     -20.555  -8.063  -4.666  0.00  0.00     0.185 C 
BRANCH   5   6
HETATM    6  C           1     -19.541  -9.078  -5.133  0.00  0.00     0.196 C 
HETATM    7  O           1     -18.384  -9.070  -4.657  0.00  0.00    -0.646 OA
HETATM    8  O           1     -19.857  -9.927  -5.994  0.00  0.00    -0.646 OA
ENDBRANCH   5   6
BRANCH   5   9
HETATM    9  C           1     -21.740  -8.782  -4.035  0.00  0.00     0.036 C 
BRANCH   9  10
HETATM   10  C           1     -21.428  -9.095  -2.577  0.00  0.00     0.004 C 
BRANCH  10  11
HETATM   11  C           1     -20.903  -7.842  -1.889  0.00  0.00     0.027 C 
BRANCH  11  12
HETATM   12  C           1     -22.053  -7.120  -1.201  0.00  0.00     0.229 C 
BRANCH  12  13
HETATM   13  N           1     -22.382  -5.867  -1.956  0.00  0.00    -0.079 N 
HETATM   14  H           1     -23.389  -5.883  -2.235  0.00  0.00     0.274 HD
HETATM   15  H           1     -22.203  -5.036  -1.348  0.00  0.00     0.274 HD
HETATM   16  H           1     -21.784  -5.808  -2.810  0.00  0.00     0.274 HD
ENDBRANCH  12  13
ENDBRANCH  11  12
ENDBRANCH  10  11
ENDBRANCH   9  10
ENDBRANCH   5   9
ENDBRANCH   4   5
BRANCH   3  17
HETATM   17  C           1     -21.858  -5.163  -6.804  0.00  0.00     0.275 C 
BRANCH  17  18
HETATM   18  C           1     -21.091  -3.848  -6.857  0.00  0.00     0.046 C 
BRANCH  18  19
HETATM   19  C           1     -20.099  -3.883  -8.011  0.00  0.00    -0.020 C 
HETATM   20  C           1     -18.781  -4.476  -7.531  0.00  0.00     0.009 C 
HETATM   21  C           1     -20.661  -4.743  -9.136  0.00  0.00     0.009 C 
ENDBRANCH  18  19
ENDBRANCH  17  18
BRANCH  17  22
HETATM   22  N           1     -23.324  -4.880  -6.656  0.00  0.00    -0.066 N 
HETATM   23  H           1     -23.718  -4.589  -7.580  0.00  0.00     0.275 HD
HETATM   24  H           1     -23.813  -5.742  -6.326  0.00  0.00     0.275 HD
HETATM   25  H           1     -23.462  -4.112  -5.961  0.00  0.00     0.275 HD
ENDBRANCH  17  22
ENDBRANCH   3  17
TORSDOF 11
ENDMDL
MODEL 6
REMARK VINA RESULT:      -5.5      9.326     10.774
REMARK  11 active torsions:
REMARK  status: ('A' for Active; 'I' for Inactive)
REMARK    1  A    between atoms: C_1  and  C_21 
REMARK    2  A    between atoms: C_6  and  C_13 
REMARK    3  A    between atoms: C_6  and  C_7 
REMARK    4  A    between atoms: C_9  and  N_14 
REMARK    5  A    between atoms: C_9  and  C_10 
REMARK    6  A    between atoms: C_10  and  C_19 
REMARK    7  A    between atoms: N_12  and  C_13 
REMARK    8  A    between atoms: C_13  and  C_22 
REMARK    9  A    between atoms: C_19  and  C_20 
REMARK   10  A    between atoms: C_20  and  C_21 
REMARK   11  A    between atoms: C_21  and  N_23 
REMARK       I    between atoms: C_22  and  N_23 
ROOT
HETATM    1  H           1     -27.590  -6.184 -18.129  0.00  0.00     0.163 HD
HETATM    2  O           1     -27.286  -7.523 -15.307  0.00  0.00    -0.271 OA
HETATM    3  C           1     -26.954  -6.927 -16.305  0.00  0.00     0.249 C 
HETATM    4  N           1     -27.869  -6.683 -17.293  0.00  0.00    -0.345 N 
ENDROOT
BRANCH   4   5
HETATM    5  C           1     -29.237  -7.140 -17.144  0.00  0.00     0.185 C 
BRANCH   5   6
HETATM    6  C           1     -29.703  -7.760 -18.438  0.00  0.00     0.196 C 
HETATM    7  O           1     -28.871  -8.057 -19.323  0.00  0.00    -0.646 OA
HETATM    8  O           1     -30.920  -7.978 -18.624  0.00  0.00    -0.646 OA
ENDBRANCH   5   6
BRANCH   5   9
HETATM    9  C           1     -30.132  -5.957 -16.797  0.00  0.00     0.036 C 
BRANCH   9  10
HETATM   10  C           1     -29.668  -4.726 -17.565  0.00  0.00     0.004 C 
BRANCH  10  11
HETATM   11  C           1     -30.768  -3.673 -17.549  0.00  0.00     0.027 C 
BRANCH  11  12
HETATM   12  C           1     -32.051  -4.287 -17.006  0.00  0.00     0.229 C 
BRANCH  12  13
HETATM   13  N           1     -33.212  -3.394 -17.332  0.00  0.00    -0.079 N 
HETATM   14  H           1     -33.296  -2.652 -16.600  0.00  0.00     0.274 HD
HETATM   15  H           1     -33.057  -2.947 -18.264  0.00  0.00     0.274 HD
HETATM   16  H           1     -34.089  -3.959 -17.359  0.00  0.00     0.274 HD
ENDBRANCH  12  13
ENDBRANCH  11  12
ENDBRANCH  10  11
ENDBRANCH   9  10
ENDBRANCH   5   9
ENDBRANCH   4   5
BRANCH   3  17
HETATM   17  C           1     -25.530  -6.452 -16.460  0.00  0.00     0.275 C 
BRANCH  17  18
HETATM   18  C           1     -24.762  -7.427 -17.343  0.00  0.00     0.046 C 
BRANCH  18  19
HETATM   19  C           1     -24.247  -6.698 -18.577  0.00  0.00    -0.020 C 
HETATM   20  C           1     -22.850  -7.199 -18.918  0.00  0.00     0.009 C 
HETATM   21  C           1     -25.181  -6.964 -19.750  0.00  0.00     0.009 C 
ENDBRANCH  18  19
ENDBRANCH  17  18
BRANCH  17  22
HETATM   22  N           1     -24.878  -6.381 -15.111  0.00  0.00    -0.066 N 
HETATM   23  H           1     -24.232  -5.560 -15.079  0.00  0.00     0.275 HD
HETATM   24  H           1     -25.612  -6.276 -14.375  0.00  0.00     0.275 HD
HETATM   25  H           1     -24.335  -7.257 -14.940  0.00  0.00     0.275 HD
ENDBRANCH  17  22
ENDBRANCH   3  17
TORSDOF 11
ENDMDL
MODEL 7
REMARK VINA RESULT:      -5.3     14.558     17.602
REMARK  11 active torsions:
REMARK  status: ('A' for Active; 'I' for Inactive)
REMARK    1  A    between atoms: C_1  and  C_21 
REMARK    2  A    between atoms: C_6  and  C_13 
REMARK    3  A    between atoms: C_6  and  C_7 
REMARK    4  A    between atoms: C_9  and  N_14 
REMARK    5  A    between atoms: C_9  and  C_10 
REMARK    6  A    between atoms: C_10  and  C_19 
REMARK    7  A    between atoms: N_12  and  C_13 
REMARK    8  A    between atoms: C_13  and  C_22 
REMARK    9  A    between atoms: C_19  and  C_20 
REMARK   10  A    between atoms: C_20  and  C_21 
REMARK   11  A    between atoms: C_21  and  N_23 
REMARK       I    between atoms: C_22  and  N_23 
ROOT
HETATM    1  H           1     -19.905  -6.482  -4.950  0.00  0.00     0.163 HD
HETATM    2  O           1     -22.792  -5.593  -5.801  0.00  0.00    -0.271 OA
HETATM    3  C           1     -21.583  -5.607  -5.788  0.00  0.00     0.249 C 
HETATM    4  N           1     -20.917  -6.471  -4.961  0.00  0.00    -0.345 N 
ENDROOT
BRANCH   4   5
HETATM    5  C           1     -21.661  -7.367  -4.098  0.00  0.00     0.185 C 
BRANCH   5   6
HETATM    6  C           1     -21.638  -6.838  -2.684  0.00  0.00     0.196 C 
HETATM    7  O           1     -20.852  -7.330  -1.846  0.00  0.00    -0.646 OA
HETATM    8  O           1     -22.405  -5.908  -2.353  0.00  0.00    -0.646 OA
ENDBRANCH   5   6
BRANCH   5   9
HETATM    9  C           1     -21.023  -8.750  -4.133  0.00  0.00     0.036 C 
BRANCH   9  10
HETATM   10  C           1     -19.710  -8.685  -4.901  0.00  0.00     0.004 C 
BRANCH  10  11
HETATM   11  C           1     -18.592  -9.269  -4.048  0.00  0.00     0.027 C 
BRANCH  11  12
HETATM   12  C           1     -17.679 -10.121  -4.920  0.00  0.00     0.229 C 
BRANCH  12  13
HETATM   13  N           1     -18.141 -10.052  -6.345  0.00  0.00    -0.079 N 
HETATM   14  H           1     -17.669  -9.253  -6.826  0.00  0.00     0.274 HD
HETATM   15  H           1     -17.898 -10.944  -6.834  0.00  0.00     0.274 HD
HETATM   16  H           1     -19.175  -9.913  -6.370  0.00  0.00     0.274 HD
ENDBRANCH  12  13
ENDBRANCH  11  12
ENDBRANCH  10  11
ENDBRANCH   9  10
ENDBRANCH   5   9
ENDBRANCH   4   5
BRANCH   3  17
HETATM   17  C           1     -20.809  -4.674  -6.686  0.00  0.00     0.275 C 
BRANCH  17  18
HETATM   18  C           1     -20.832  -5.206  -8.113  0.00  0.00     0.046 C 
BRANCH  18  19
HETATM   19  C           1     -21.123  -4.064  -9.078  0.00  0.00    -0.020 C 
HETATM   20  C           1     -20.500  -4.372 -10.433  0.00  0.00     0.009 C 
HETATM   21  C           1     -22.630  -3.907  -9.237  0.00  0.00     0.009 C 
ENDBRANCH  18  19
ENDBRANCH  17  18
BRANCH  17  22
HETATM   22  N           1     -19.389  -4.586  -6.209  0.00  0.00    -0.066 N 
HETATM   23  H           1     -19.355  -4.770  -5.181  0.00  0.00     0.275 HD
HETATM   24  H           1     -18.810  -5.296  -6.710  0.00  0.00     0.275 HD
HETATM   25  H           1     -19.016  -3.630  -6.405  0.00  0.00     0.275 HD
ENDBRANCH  17  22
ENDBRANCH   3  17
TORSDOF 11
ENDMDL
MODEL 8
REMARK VINA RESULT:      -5.3     15.911     17.922
REMARK  11 active torsions:
REMARK  status: ('A' for Active; 'I' for Inactive)
REMARK    1  A    between atoms: C_1  and  C_21 
REMARK    2  A    between atoms: C_6  and  C_13 
REMARK    3  A    between atoms: C_6  and  C_7 
REMARK    4  A    between atoms: C_9  and  N_14 
REMARK    5  A    between atoms: C_9  and  C_10 
REMARK    6  A    between atoms: C_10  and  C_19 
REMARK    7  A    between atoms: N_12  and  C_13 
REMARK    8  A    between atoms: C_13  and  C_22 
REMARK    9  A    between atoms: C_19  and  C_20 
REMARK   10  A    between atoms: C_20  and  C_21 
REMARK   11  A    between atoms: C_21  and  N_23 
REMARK       I    between atoms: C_22  and  N_23 
ROOT
HETATM    1  H           1     -21.010  -7.795  -3.032  0.00  0.00     0.163 HD
HETATM    2  O           1     -21.922 -10.750  -3.564  0.00  0.00    -0.271 OA
HETATM    3  C           1     -21.731  -9.733  -2.940  0.00  0.00     0.249 C 
HETATM    4  N           1     -21.170  -8.647  -3.555  0.00  0.00    -0.345 N 
ENDROOT
BRANCH   4   5
HETATM    5  C           1     -20.803  -8.716  -4.956  0.00  0.00     0.185 C 
BRANCH   5   6
HETATM    6  C           1     -19.303  -8.831  -5.077  0.00  0.00     0.196 C 
HETATM    7  O           1     -18.601  -8.957  -4.050  0.00  0.00    -0.646 OA
HETATM    8  O           1     -18.763  -8.801  -6.204  0.00  0.00    -0.646 OA
ENDBRANCH   5   6
BRANCH   5   9
HETATM    9  C           1     -21.275  -7.455  -5.667  0.00  0.00     0.036 C 
BRANCH   9  10
HETATM   10  C           1     -20.999  -6.242  -4.787  0.00  0.00     0.004 C 
BRANCH  10  11
HETATM   11  C           1     -20.581  -5.066  -5.659  0.00  0.00     0.027 C 
BRANCH  11  12
HETATM   12  C           1     -21.303  -5.144  -6.998  0.00  0.00     0.229 C 
BRANCH  12  13
HETATM   13  N           1     -22.110  -3.897  -7.206  0.00  0.00    -0.079 N 
HETATM   14  H           1     -22.155  -3.677  -8.226  0.00  0.00     0.274 HD
HETATM   15  H           1     -23.078  -4.042  -6.839  0.00  0.00     0.274 HD
HETATM   16  H           1     -21.661  -3.103  -6.696  0.00  0.00     0.274 HD
ENDBRANCH  12  13
ENDBRANCH  11  12
ENDBRANCH  10  11
ENDBRANCH   9  10
ENDBRANCH   5   9
ENDBRANCH   4   5
BRANCH   3  17
HETATM   17  C           1     -22.113  -9.661  -1.481  0.00  0.00     0.275 C 
BRANCH  17  18
HETATM   18  C           1     -21.166  -8.715  -0.754  0.00  0.00     0.046 C 
BRANCH  18  19
HETATM   19  C           1     -21.965  -7.586  -0.117  0.00  0.00    -0.020 C 
HETATM   20  C           1     -22.353  -6.572  -1.185  0.00  0.00     0.009 C 
HETATM   21  C           1     -23.225  -8.155   0.522  0.00  0.00     0.009 C 
ENDBRANCH  18  19
ENDBRANCH  17  18
BRANCH  17  22
HETATM   22  N           1     -22.017 -11.029  -0.872  0.00  0.00    -0.066 N 
HETATM   23  H           1     -21.957 -11.745  -1.631  0.00  0.00     0.275 HD
HETATM   24  H           1     -21.162 -11.084  -0.274  0.00  0.00     0.275 HD
HETATM   25  H           1     -22.865 -11.210  -0.289  0.00  0.00     0.275 HD
ENDBRANCH  17  22
ENDBRANCH   3  17
TORSDOF 11
ENDMDL
MODEL 9
REMARK VINA RESULT:      -5.3     14.302     17.537
REMARK  11 active torsions:
REMARK  status: ('A' for Active; 'I' for Inactive)
REMARK    1  A    between atoms: C_1  and  C_21 
REMARK    2  A    between atoms: C_6  and  C_13 
REMARK    3  A    between atoms: C_6  and  C_7 
REMARK    4  A    between atoms: C_9  and  N_14 
REMARK    5  A    between atoms: C_9  and  C_10 
REMARK    6  A    between atoms: C_10  and  C_19 
REMARK    7  A    between atoms: N_12  and  C_13 
REMARK    8  A    between atoms: C_13  and  C_22 
REMARK    9  A    between atoms: C_19  and  C_20 
REMARK   10  A    between atoms: C_20  and  C_21 
REMARK   11  A    between atoms: C_21  and  N_23 
REMARK       I    between atoms: C_22  and  N_23 
ROOT
HETATM    1  H           1     -19.932  -6.447  -4.766  0.00  0.00     0.163 HD
HETATM    2  O           1     -22.918  -5.864  -5.534  0.00  0.00    -0.271 OA
HETATM    3  C           1     -21.714  -5.763  -5.566  0.00  0.00     0.249 C 
HETATM    4  N           1     -20.940  -6.531  -4.738  0.00  0.00    -0.345 N 
ENDROOT
BRANCH   4   5
HETATM    5  C           1     -21.565  -7.465  -3.821  0.00  0.00     0.185 C 
BRANCH   5   6
HETATM    6  C           1     -21.564  -6.879  -2.431  0.00  0.00     0.196 C 
HETATM    7  O           1     -20.882  -7.411  -1.529  0.00  0.00    -0.646 OA
HETATM    8  O           1     -22.245  -5.860  -2.182  0.00  0.00    -0.646 OA
ENDBRANCH   5   6
BRANCH   5   9
HETATM    9  C           1     -20.786  -8.773  -3.821  0.00  0.00     0.036 C 
BRANCH   9  10
HETATM   10  C           1     -21.732  -9.929  -4.116  0.00  0.00     0.004 C 
BRANCH  10  11
HETATM   11  C           1     -22.207 -10.545  -2.806  0.00  0.00     0.027 C 
BRANCH  11  12
HETATM   12  C           1     -21.002 -10.890  -1.941  0.00  0.00     0.229 C 
BRANCH  12  13
HETATM   13  N           1     -21.156 -10.257  -0.591  0.00  0.00    -0.079 N 
HETATM   14  H           1     -21.654 -10.917   0.049  0.00  0.00     0.274 HD
HETATM   15  H           1     -20.213 -10.038  -0.198  0.00  0.00     0.274 HD
HETATM   16  H           1     -21.708  -9.375  -0.681  0.00  0.00     0.274 HD
ENDBRANCH  12  13
ENDBRANCH  11  12
ENDBRANCH  10  11
ENDBRANCH   9  10
ENDBRANCH   5   9
ENDBRANCH   4   5
BRANCH   3  17
HETATM   17  C           1     -21.064  -4.792  -6.521  0.00  0.00     0.275 C 
BRANCH  17  18
HETATM   18  C           1     -21.221  -5.299  -7.948  0.00  0.00     0.046 C 
BRANCH  18  19
HETATM   19  C           1     -21.386  -4.117  -8.893  0.00  0.00    -0.020 C 
HETATM   20  C           1     -20.482  -4.304 -10.105  0.00  0.00     0.009 C 
HETATM   21  C           1     -22.836  -4.032  -9.352  0.00  0.00     0.009 C 
ENDBRANCH  18  19
ENDBRANCH  17  18
BRANCH  17  22
HETATM   22  N           1     -19.605  -4.670  -6.192  0.00  0.00    -0.066 N 
HETATM   23  H           1     -19.472  -4.750  -5.159  0.00  0.00     0.275 HD
HETATM   24  H           1     -19.076  -5.433  -6.671  0.00  0.00     0.275 HD
HETATM   25  H           1     -19.251  -3.742  -6.518  0.00  0.00     0.275 HD
ENDBRANCH  17  22
ENDBRANCH   3  17
TORSDOF 11
ENDMDL
