MODEL 1
REMARK VINA RESULT:      -6.7      0.000      0.000
REMARK  10 active torsions:
REMARK  status: ('A' for Active; 'I' for Inactive)
REMARK    1  A    between atoms: C_1  and  C_2 
REMARK    2  A    between atoms: C_1  and  C_19 
REMARK    3  A    between atoms: C_1  and  N_13 
REMARK       I    between atoms: C_2  and  N_3 
REMARK    4  A    between atoms: N_3  and  C_12 
REMARK    5  A    between atoms: C_9  and  C_10 
REMARK    6  A    between atoms: C_9  and  C_12 
REMARK    7  A    between atoms: C_10  and  C_14 
REMARK    8  A    between atoms: C_11  and  C_12 
REMARK    9  A    between atoms: C_17  and  C_18 
REMARK   10  A    between atoms: C_18  and  C_19 
ROOT
HETATM    1  C           1     -26.254  -6.234 -17.637  0.00  0.00     0.249 C 
HETATM    2  N           1     -27.419  -6.518 -18.297  0.00  0.00    -0.345 N 
HETATM    3  O           1     -26.288  -5.709 -16.549  0.00  0.00    -0.271 OA
HETATM    4  H           1     -27.390  -6.957 -19.208  0.00  0.00     0.163 HD
ENDROOT
BRANCH   1   5
HETATM    5  C           1     -24.926  -6.574 -18.268  0.00  0.00     0.275 C 
BRANCH   5   6
HETATM    6  C           1     -25.151  -7.063 -19.693  0.00  0.00     0.053 C 
BRANCH   6   7
HETATM    7  C           1     -23.873  -7.706 -20.216  0.00  0.00     0.115 C 
BRANCH   7   8
HETATM    8  C           1     -24.068  -8.113 -21.656  0.00  0.00     0.172 C 
HETATM    9  O           1     -25.219  -8.316 -22.098  0.00  0.00    -0.648 OA
HETATM   10  O           1     -23.077  -8.249 -22.407  0.00  0.00    -0.648 OA
ENDBRANCH   7   8
ENDBRANCH   6   7
ENDBRANCH   5   6
BRANCH   5  11
HETATM   11  N           1     -24.256  -7.653 -17.470  0.00  0.00    -0.066 N 
HETATM   12  H           1     -24.910  -8.462 -17.360  0.00  0.00     0.275 HD
HETATM   13  H           1     -24.001  -7.283 -16.527  0.00  0.00     0.275 HD
HETATM   14  H           1     -23.392  -7.968 -17.966  0.00  0.00     0.275 HD
ENDBRANCH   5  11
ENDBRANCH   1   5
BRANCH   2  15
HETATM   15  C           1     -28.695  -6.190 -17.691  0.00  0.00     0.186 C 
BRANCH  15  16
HETATM   16  C           1     -29.349  -5.056 -18.469  0.00  0.00     0.046 C 
BRANCH  16  17
HETATM   17  C           1     -29.712  -3.927 -17.513  0.00  0.00     0.116 C 
BRANCH  17  18
HETATM   18  C           1     -31.208  -3.893 -17.319  0.00  0.00     0.172 C 
HETATM   19  O           1     -31.772  -4.788 -16.654  0.00  0.00    -0.648 OA
HETATM   20  O           1     -31.883  -2.968 -17.822  0.00  0.00    -0.648 OA
ENDBRANCH  17  18
ENDBRANCH  16  17
ENDBRANCH  15  16
BRANCH  15  21
HETATM   21  C           1     -29.591  -7.404 -17.719  0.00  0.00     0.196 C 
HETATM   22  O           1     -30.506  -7.485 -18.568  0.00  0.00    -0.646 OA
HETATM   23  O           1     -29.420  -8.327 -16.895  0.00  0.00    -0.646 OA
ENDBRANCH  15  21
ENDBRANCH   2  15
TORSDOF 10
ENDMDL
MODEL 2
REMARK VINA RESULT:      -6.6     10.357     12.003
REMARK  10 active torsions:
REMARK  status: ('A' for Active; 'I' for Inactive)
REMARK    1  A    between atoms: C_1  and  C_2 
REMARK    2  A    between atoms: C_1  and  C_19 
REMARK    3  A    between atoms: C_1  and  N_13 
REMARK       I    between atoms: C_2  and  N_3 
REMARK    4  A    between atoms: N_3  and  C_12 
REMARK    5  A    between atoms: C_9  and  C_10 
REMARK    6  A    between atoms: C_9  and  C_12 
REMARK    7  A    between atoms: C_10  and  C_14 
REMARK    8  A    between atoms: C_11  and  C_12 
REMARK    9  A    between atoms: C_17  and  C_18 
REMARK   10  A    between atoms: C_18  and  C_19 
ROOT
HETATM    1  C           1     -34.530  -1.987 -12.395  0.00  0.00     0.249 C 
HETATM    2  N           1     -35.328  -0.889 -12.214  0.00  0.00    -0.345 N 
HETATM    3  O           1     -34.674  -2.686 -13.370  0.00  0.00    -0.271 OA
HETATM    4  H           1     -35.207  -0.304 -11.398  0.00  0.00     0.163 HD
ENDROOT
BRANCH   1   5
HETATM    5  C           1     -33.471  -2.326 -11.374  0.00  0.00     0.275 C 
BRANCH   5   6
HETATM    6  C           1     -33.138  -3.810 -11.459  0.00  0.00     0.053 C 
BRANCH   6   7
HETATM    7  C           1     -34.051  -4.589 -10.521  0.00  0.00     0.115 C 
BRANCH   7   8
HETATM    8  C           1     -34.566  -5.819 -11.227  0.00  0.00     0.172 C 
HETATM    9  O           1     -35.065  -5.722 -12.368  0.00  0.00    -0.648 OA
HETATM   10  O           1     -34.494  -6.936 -10.669  0.00  0.00    -0.648 OA
ENDBRANCH   7   8
ENDBRANCH   6   7
ENDBRANCH   5   6
BRANCH   5  11
HETATM   11  N           1     -33.982  -2.007 -10.000  0.00  0.00    -0.066 N 
HETATM   12  H           1     -35.000  -1.778 -10.052  0.00  0.00     0.275 HD
HETATM   13  H           1     -33.461  -1.186  -9.616  0.00  0.00     0.275 HD
HETATM   14  H           1     -33.840  -2.832  -9.375  0.00  0.00     0.275 HD
ENDBRANCH   5  11
ENDBRANCH   1   5
BRANCH   2  15
HETATM   15  C           1     -36.345  -0.564 -13.196  0.00  0.00     0.186 C 
BRANCH  15  16
HETATM   16  C           1     -37.561   0.021 -12.489  0.00  0.00     0.046 C 
BRANCH  16  17
HETATM   17  C           1     -37.684  -0.589 -11.100  0.00  0.00     0.116 C 
BRANCH  17  18
HETATM   18  C           1     -37.285   0.433 -10.063  0.00  0.00     0.172 C 
HETATM   19  O           1     -36.166   0.360  -9.513  0.00  0.00    -0.648 OA
HETATM   20  O           1     -38.075   1.352  -9.755  0.00  0.00    -0.648 OA
ENDBRANCH  17  18
ENDBRANCH  16  17
ENDBRANCH  15  16
BRANCH  15  21
HETATM   21  C           1     -35.796   0.447 -14.173  0.00  0.00     0.196 C 
HETATM   22  O           1     -34.897   1.237 -13.815  0.00  0.00    -0.646 OA
HETATM   23  O           1     -36.241   0.493 -15.340  0.00  0.00    -0.646 OA
ENDBRANCH  15  21
ENDBRANCH   2  15
TORSDOF 10
ENDMDL
MODEL 3
REMARK VINA RESULT:      -6.6      9.997     11.532
REMARK  10 active torsions:
REMARK  status: ('A' for Active; 'I' for Inactive)
REMARK    1  A    between atoms: C_1  and  C_2 
REMARK    2  A    between atoms: C_1  and  C_19 
REMARK    3  A    between atoms: C_1  and  N_13 
REMARK       I    between atoms: C_2  and  N_3 
REMARK    4  A    between atoms: N_3  and  C_12 
REMARK    5  A    between atoms: C_9  and  C_10 
REMARK    6  A    between atoms: C_9  and  C_12 
REMARK    7  A    between atoms: C_10  and  C_14 
REMARK    8  A    between atoms: C_11  and  C_12 
REMARK    9  A    between atoms: C_17  and  C_18 
REMARK   10  A    between atoms: C_18  and  C_19 
ROOT
HETATM    1  C           1     -34.401  -2.657 -11.826  0.00  0.00     0.249 C 
HETATM    2  N           1     -35.474  -2.018 -12.387  0.00  0.00    -0.345 N 
HETATM    3  O           1     -33.639  -2.048 -11.113  0.00  0.00    -0.271 OA
HETATM    4  H           1     -36.112  -2.528 -12.984  0.00  0.00     0.163 HD
ENDROOT
BRANCH   1   5
HETATM    5  C           1     -34.169  -4.123 -12.099  0.00  0.00     0.275 C 
BRANCH   5   6
HETATM    6  C           1     -34.448  -4.927 -10.836  0.00  0.00     0.053 C 
BRANCH   6   7
HETATM    7  C           1     -33.674  -6.238 -10.888  0.00  0.00     0.115 C 
BRANCH   7   8
HETATM    8  C           1     -34.432  -7.300 -10.132  0.00  0.00     0.172 C 
HETATM    9  O           1     -35.469  -7.000  -9.501  0.00  0.00    -0.648 OA
HETATM   10  O           1     -34.024  -8.482 -10.136  0.00  0.00    -0.648 OA
ENDBRANCH   7   8
ENDBRANCH   6   7
ENDBRANCH   5   6
BRANCH   5  11
HETATM   11  N           1     -32.745  -4.333 -12.520  0.00  0.00    -0.066 N 
HETATM   12  H           1     -32.490  -3.631 -13.251  0.00  0.00     0.275 HD
HETATM   13  H           1     -32.634  -5.296 -12.911  0.00  0.00     0.275 HD
HETATM   14  H           1     -32.117  -4.220 -11.693  0.00  0.00     0.275 HD
ENDBRANCH   5  11
ENDBRANCH   1   5
BRANCH   2  15
HETATM   15  C           1     -35.696  -0.609 -12.123  0.00  0.00     0.186 C 
BRANCH  15  16
HETATM   16  C           1     -36.312   0.045 -13.353  0.00  0.00     0.046 C 
BRANCH  16  17
HETATM   17  C           1     -35.241   0.229 -14.420  0.00  0.00     0.116 C 
BRANCH  17  18
HETATM   18  C           1     -35.563  -0.639 -15.612  0.00  0.00     0.172 C 
HETATM   19  O           1     -36.189  -0.160 -16.582  0.00  0.00    -0.648 OA
HETATM   20  O           1     -35.203  -1.836 -15.630  0.00  0.00    -0.648 OA
ENDBRANCH  17  18
ENDBRANCH  16  17
ENDBRANCH  15  16
BRANCH  15  21
HETATM   21  C           1     -36.635  -0.459 -10.951  0.00  0.00     0.196 C 
HETATM   22  O           1     -36.299   0.235  -9.966  0.00  0.00    -0.646 OA
HETATM   23  O           1     -37.747  -1.027 -10.965  0.00  0.00    -0.646 OA
ENDBRANCH  15  21
ENDBRANCH   2  15
TORSDOF 10
ENDMDL
MODEL 4
REMARK VINA RESULT:      -6.4      9.218     11.270
REMARK  10 active torsions:
REMARK  status: ('A' for Active; 'I' for Inactive)
REMARK    1  A    between atoms: C_1  and  C_2 
REMARK    2  A    between atoms: C_1  and  C_19 
REMARK    3  A    between atoms: C_1  and  N_13 
REMARK       I    between atoms: C_2  and  N_3 
REMARK    4  A    between atoms: N_3  and  C_12 
REMARK    5  A    between atoms: C_9  and  C_10 
REMARK    6  A    between atoms: C_9  and  C_12 
REMARK    7  A    between atoms: C_10  and  C_14 
REMARK    8  A    between atoms: C_11  and  C_12 
REMARK    9  A    between atoms: C_17  and  C_18 
REMARK   10  A    between atoms: C_18  and  C_19 
ROOT
HETATM    1  C           1     -34.853  -0.861 -12.480  0.00  0.00     0.249 C 
HETATM    2  N           1     -35.012  -2.028 -13.179  0.00  0.00    -0.345 N 
HETATM    3  O           1     -34.158  -0.838 -11.493  0.00  0.00    -0.271 OA
HETATM    4  H           1     -35.594  -2.048 -14.006  0.00  0.00     0.163 HD
ENDROOT
BRANCH   1   5
HETATM    5  C           1     -35.549   0.395 -12.944  0.00  0.00     0.275 C 
BRANCH   5   6
HETATM    6  C           1     -36.706   0.027 -13.863  0.00  0.00     0.053 C 
BRANCH   6   7
HETATM    7  C           1     -36.455   0.603 -15.251  0.00  0.00     0.115 C 
BRANCH   7   8
HETATM    8  C           1     -36.090  -0.512 -16.200  0.00  0.00     0.172 C 
HETATM    9  O           1     -36.872  -0.829 -17.122  0.00  0.00    -0.648 OA
HETATM   10  O           1     -35.005  -1.119 -16.063  0.00  0.00    -0.648 OA
ENDBRANCH   7   8
ENDBRANCH   6   7
ENDBRANCH   5   6
BRANCH   5  11
HETATM   11  N           1     -34.575   1.259 -13.689  0.00  0.00    -0.066 N 
HETATM   12  H           1     -35.073   2.092 -14.075  0.00  0.00     0.275 HD
HETATM   13  H           1     -34.153   0.712 -14.474  0.00  0.00     0.275 HD
HETATM   14  H           1     -33.819   1.573 -13.039  0.00  0.00     0.275 HD
ENDBRANCH   5  11
ENDBRANCH   1   5
BRANCH   2  15
HETATM   15  C           1     -34.344  -3.236 -12.733  0.00  0.00     0.186 C 
BRANCH  15  16
HETATM   16  C           1     -35.102  -3.828 -11.552  0.00  0.00     0.046 C 
BRANCH  16  17
HETATM   17  C           1     -34.110  -4.309 -10.502  0.00  0.00     0.116 C 
BRANCH  17  18
HETATM   18  C           1     -34.072  -5.818 -10.498  0.00  0.00     0.172 C 
HETATM   19  O           1     -33.111  -6.420 -11.024  0.00  0.00    -0.648 OA
HETATM   20  O           1     -35.001  -6.466  -9.969  0.00  0.00    -0.648 OA
ENDBRANCH  17  18
ENDBRANCH  16  17
ENDBRANCH  15  16
BRANCH  15  21
HETATM   21  C           1     -34.309  -4.237 -13.862  0.00  0.00     0.196 C 
HETATM   22  O           1     -33.601  -4.019 -14.869  0.00  0.00    -0.646 OA
HETATM   23  O           1     -34.988  -5.283 -13.790  0.00  0.00    -0.646 OA
ENDBRANCH  15  21
ENDBRANCH   2  15
TORSDOF 10
ENDMDL
MODEL 5
REMARK VINA RESULT:      -6.2     12.302     14.434
REMARK  10 active torsions:
REMARK  status: ('A' for Active; 'I' for Inactive)
REMARK    1  A    between atoms: C_1  and  C_2 
REMARK    2  A    between atoms: C_1  and  C_19 
REMARK    3  A    between atoms: C_1  and  N_13 
REMARK       I    between atoms: C_2  and  N_3 
REMARK    4  A    between atoms: N_3  and  C_12 
REMARK    5  A    between atoms: C_9  and  C_10 
REMARK    6  A    between atoms: C_9  and  C_12 
REMARK    7  A    between atoms: C_10  and  C_14 
REMARK    8  A    between atoms: C_11  and  C_12 
REMARK    9  A    between atoms: C_17  and  C_18 
REMARK   10  A    between atoms: C_18  and  C_19 
ROOT
HETATM    1  C           1     -20.748  -4.770  -7.047  0.00  0.00     0.249 C 
HETATM    2  N           1     -21.516  -5.669  -6.358  0.00  0.00    -0.345 N 
HETATM    3  O           1     -19.612  -4.551  -6.696  0.00  0.00    -0.271 OA
HETATM    4  H           1     -22.467  -5.853  -6.652  0.00  0.00     0.163 HD
ENDROOT
BRANCH   1   5
HETATM    5  C           1     -21.320  -4.049  -8.243  0.00  0.00     0.275 C 
BRANCH   5   6
HETATM    6  C           1     -22.580  -4.764  -8.713  0.00  0.00     0.053 C 
BRANCH   6   7
HETATM    7  C           1     -23.702  -3.749  -8.893  0.00  0.00     0.115 C 
BRANCH   7   8
HETATM    8  C           1     -23.930  -3.509 -10.365  0.00  0.00     0.172 C 
HETATM    9  O           1     -22.975  -3.587 -11.167  0.00  0.00    -0.648 OA
HETATM   10  O           1     -25.075  -3.230 -10.783  0.00  0.00    -0.648 OA
ENDBRANCH   7   8
ENDBRANCH   6   7
ENDBRANCH   5   6
BRANCH   5  11
HETATM   11  N           1     -20.308  -4.040  -9.351  0.00  0.00    -0.066 N 
HETATM   12  H           1     -19.464  -3.504  -9.047  0.00  0.00     0.275 HD
HETATM   13  H           1     -20.722  -3.586 -10.197  0.00  0.00     0.275 HD
HETATM   14  H           1     -20.036  -5.021  -9.582  0.00  0.00     0.275 HD
ENDBRANCH   5  11
ENDBRANCH   1   5
BRANCH   2  15
HETATM   15  C           1     -20.966  -6.362  -5.208  0.00  0.00     0.186 C 
BRANCH  15  16
HETATM   16  C           1     -22.036  -6.486  -4.132  0.00  0.00     0.046 C 
BRANCH  16  17
HETATM   17  C           1     -21.439  -6.128  -2.778  0.00  0.00     0.116 C 
BRANCH  17  18
HETATM   18  C           1     -21.912  -7.117  -1.741  0.00  0.00     0.172 C 
HETATM   19  O           1     -22.708  -6.753  -0.848  0.00  0.00    -0.648 OA
HETATM   20  O           1     -21.510  -8.300  -1.775  0.00  0.00    -0.648 OA
ENDBRANCH  17  18
ENDBRANCH  16  17
ENDBRANCH  15  16
BRANCH  15  21
HETATM   21  C           1     -20.506  -7.738  -5.623  0.00  0.00     0.196 C 
HETATM   22  O           1     -19.318  -7.924  -5.966  0.00  0.00    -0.646 OA
HETATM   23  O           1     -21.313  -8.692  -5.624  0.00  0.00    -0.646 OA
ENDBRANCH  15  21
ENDBRANCH   2  15
TORSDOF 10
ENDMDL
MODEL 6
REMARK VINA RESULT:      -6.2      9.737     12.005
REMARK  10 active torsions:
REMARK  status: ('A' for Active; 'I' for Inactive)
REMARK    1  A    between atoms: C_1  and  C_2 
REMARK    2  A    between atoms: C_1  and  C_19 
REMARK    3  A    between atoms: C_1  and  N_13 
REMARK       I    between atoms: C_2  and  N_3 
REMARK    4  A    between atoms: N_3  and  C_12 
REMARK    5  A    between atoms: C_9  and  C_10 
REMARK    6  A    between atoms: C_9  and  C_12 
REMARK    7  A    between atoms: C_10  and  C_14 
REMARK    8  A    between atoms: C_11  and  C_12 
REMARK    9  A    between atoms: C_17  and  C_18 
REMARK   10  A    between atoms: C_18  and  C_19 
ROOT
HETATM    1  C           1     -35.463  -1.727 -10.788  0.00  0.00     0.249 C 
HETATM    2  N           1     -35.573  -2.875 -11.526  0.00  0.00    -0.345 N 
HETATM    3  O           1     -34.471  -1.523 -10.131  0.00  0.00    -0.271 OA
HETATM    4  H           1     -36.404  -3.045 -12.077  0.00  0.00     0.163 HD
ENDROOT
BRANCH   1   5
HETATM    5  C           1     -36.584  -0.716 -10.795  0.00  0.00     0.275 C 
BRANCH   5   6
HETATM    6  C           1     -36.751  -0.151 -12.199  0.00  0.00     0.053 C 
BRANCH   6   7
HETATM    7  C           1     -35.426   0.432 -12.673  0.00  0.00     0.115 C 
BRANCH   7   8
HETATM    8  C           1     -35.078  -0.141 -14.025  0.00  0.00     0.172 C 
HETATM    9  O           1     -35.348  -1.333 -14.287  0.00  0.00    -0.648 OA
HETATM   10  O           1     -34.520   0.576 -14.883  0.00  0.00    -0.648 OA
ENDBRANCH   7   8
ENDBRANCH   6   7
ENDBRANCH   5   6
BRANCH   5  11
HETATM   11  N           1     -36.258   0.397  -9.844  0.00  0.00    -0.066 N 
HETATM   12  H           1     -35.386   0.162  -9.318  0.00  0.00     0.275 HD
HETATM   13  H           1     -37.047   0.523  -9.169  0.00  0.00     0.275 HD
HETATM   14  H           1     -36.115   1.282 -10.380  0.00  0.00     0.275 HD
ENDBRANCH   5  11
ENDBRANCH   1   5
BRANCH   2  15
HETATM   15  C           1     -34.495  -3.846 -11.520  0.00  0.00     0.186 C 
BRANCH  15  16
HETATM   16  C           1     -34.873  -5.016 -10.622  0.00  0.00     0.046 C 
BRANCH  16  17
HETATM   17  C           1     -33.826  -6.114 -10.749  0.00  0.00     0.116 C 
BRANCH  17  18
HETATM   18  C           1     -34.350  -7.385 -10.127  0.00  0.00     0.172 C 
HETATM   19  O           1     -35.442  -7.379  -9.519  0.00  0.00    -0.648 OA
HETATM   20  O           1     -33.692  -8.444 -10.221  0.00  0.00    -0.648 OA
ENDBRANCH  17  18
ENDBRANCH  16  17
ENDBRANCH  15  16
BRANCH  15  21
HETATM   21  C           1     -34.260  -4.345 -12.925  0.00  0.00     0.196 C 
HETATM   22  O           1     -33.234  -3.997 -13.548  0.00  0.00    -0.646 OA
HETATM   23  O           1     -35.092  -5.106 -13.464  0.00  0.00    -0.646 OA
ENDBRANCH  15  21
ENDBRANCH   2  15
TORSDOF 10
ENDMDL
MODEL 7
REMARK VINA RESULT:      -6.1     12.751     15.086
REMARK  10 active torsions:
REMARK  status: ('A' for Active; 'I' for Inactive)
REMARK    1  A    between atoms: C_1  and  C_2 
REMARK    2  A    between atoms: C_1  and  C_19 
REMARK    3  A    between atoms: C_1  and  N_13 
REMARK       I    between atoms: C_2  and  N_3 
REMARK    4  A    between atoms: N_3  and  C_12 
REMARK    5  A    between atoms: C_9  and  C_10 
REMARK    6  A    between atoms: C_9  and  C_12 
REMARK    7  A    between atoms: C_10  and  C_14 
REMARK    8  A    between atoms: C_11  and  C_12 
REMARK    9  A    between atoms: C_17  and  C_18 
REMARK   10  A    between atoms: C_18  and  C_19 
ROOT
HETATM    1  C           1     -21.628  -6.824  -5.620  0.00  0.00     0.249 C 
HETATM    2  N           1     -21.846  -5.529  -6.006  0.00  0.00    -0.345 N 
HETATM    3  O           1     -21.152  -7.615  -6.400  0.00  0.00    -0.271 OA
HETATM    4  H           1     -22.245  -4.866  -5.353  0.00  0.00     0.163 HD
ENDROOT
BRANCH   1   5
HETATM    5  C           1     -21.985  -7.265  -4.222  0.00  0.00     0.275 C 
BRANCH   5   6
HETATM    6  C           1     -21.240  -6.404  -3.211  0.00  0.00     0.053 C 
BRANCH   6   7
HETATM    7  C           1     -22.169  -6.062  -2.053  0.00  0.00     0.115 C 
BRANCH   7   8
HETATM    8  C           1     -22.128  -7.170  -1.031  0.00  0.00     0.172 C 
HETATM    9  O           1     -23.101  -7.355  -0.269  0.00  0.00    -0.648 OA
HETATM   10  O           1     -21.118  -7.903  -0.944  0.00  0.00    -0.648 OA
ENDBRANCH   7   8
ENDBRANCH   6   7
ENDBRANCH   5   6
BRANCH   5  11
HETATM   11  N           1     -21.596  -8.702  -4.037  0.00  0.00    -0.066 N 
HETATM   12  H           1     -21.051  -8.804  -3.152  0.00  0.00     0.275 HD
HETATM   13  H           1     -21.008  -9.011  -4.845  0.00  0.00     0.275 HD
HETATM   14  H           1     -22.456  -9.293  -3.988  0.00  0.00     0.275 HD
ENDBRANCH   5  11
ENDBRANCH   1   5
BRANCH   2  15
HETATM   15  C           1     -21.503  -5.105  -7.350  0.00  0.00     0.186 C 
BRANCH  15  16
HETATM   16  C           1     -22.529  -4.092  -7.839  0.00  0.00     0.046 C 
BRANCH  16  17
HETATM   17  C           1     -23.283  -4.668  -9.030  0.00  0.00     0.116 C 
BRANCH  17  18
HETATM   18  C           1     -23.717  -3.547  -9.943  0.00  0.00     0.172 C 
HETATM   19  O           1     -22.971  -3.176 -10.874  0.00  0.00    -0.648 OA
HETATM   20  O           1     -24.822  -2.989  -9.767  0.00  0.00    -0.648 OA
ENDBRANCH  17  18
ENDBRANCH  16  17
ENDBRANCH  15  16
BRANCH  15  21
HETATM   21  C           1     -20.133  -4.470  -7.343  0.00  0.00     0.196 C 
HETATM   22  O           1     -19.418  -4.539  -6.319  0.00  0.00    -0.646 OA
HETATM   23  O           1     -19.714  -3.877  -8.359  0.00  0.00    -0.646 OA
ENDBRANCH  15  21
ENDBRANCH   2  15
TORSDOF 10
ENDMDL
MODEL 8
REMARK VINA RESULT:      -5.9      1.668      1.953
REMARK  10 active torsions:
REMARK  status: ('A' for Active; 'I' for Inactive)
REMARK    1  A    between atoms: C_1  and  C_2 
REMARK    2  A    between atoms: C_1  and  C_19 
REMARK    3  A    between atoms: C_1  and  N_13 
REMARK       I    between atoms: C_2  and  N_3 
REMARK    4  A    between atoms: N_3  and  C_12 
REMARK    5  A    between atoms: C_9  and  C_10 
REMARK    6  A    between atoms: C_9  and  C_12 
REMARK    7  A    between atoms: C_10  and  C_14 
REMARK    8  A    between atoms: C_11  and  C_12 
REMARK    9  A    between atoms: C_17  and  C_18 
REMARK   10  A    between atoms: C_18  and  C_19 
ROOT
HETATM    1  C           1     -26.473  -6.307 -18.337  0.00  0.00     0.249 C 
HETATM    2  N           1     -27.809  -6.307 -18.633  0.00  0.00    -0.345 N 
HETATM    3  O           1     -26.107  -6.190 -17.192  0.00  0.00    -0.271 OA
HETATM    4  H           1     -28.116  -6.405 -19.592  0.00  0.00     0.163 HD
ENDROOT
BRANCH   1   5
HETATM    5  C           1     -25.456  -6.449 -19.443  0.00  0.00     0.275 C 
BRANCH   5   6
HETATM    6  C           1     -26.172  -6.698 -20.764  0.00  0.00     0.053 C 
BRANCH   6   7
HETATM    7  C           1     -26.103  -8.181 -21.108  0.00  0.00     0.115 C 
BRANCH   7   8
HETATM    8  C           1     -27.497  -8.757 -21.134  0.00  0.00     0.172 C 
HETATM    9  O           1     -27.710  -9.852 -21.696  0.00  0.00    -0.648 OA
HETATM   10  O           1     -28.439  -8.138 -20.593  0.00  0.00    -0.648 OA
ENDBRANCH   7   8
ENDBRANCH   6   7
ENDBRANCH   5   6
BRANCH   5  11
HETATM   11  N           1     -24.549  -7.606 -19.141  0.00  0.00    -0.066 N 
HETATM   12  H           1     -25.115  -8.481 -19.062  0.00  0.00     0.275 HD
HETATM   13  H           1     -24.050  -7.432 -18.239  0.00  0.00     0.275 HD
HETATM   14  H           1     -23.849  -7.710 -19.910  0.00  0.00     0.275 HD
ENDBRANCH   5  11
ENDBRANCH   1   5
BRANCH   2  15
HETATM   15  C           1     -28.787  -6.170 -17.570  0.00  0.00     0.186 C 
BRANCH  15  16
HETATM   16  C           1     -29.610  -4.909 -17.798  0.00  0.00     0.046 C 
BRANCH  16  17
HETATM   17  C           1     -30.541  -4.689 -16.614  0.00  0.00     0.116 C 
BRANCH  17  18
HETATM   18  C           1     -31.760  -3.924 -17.067  0.00  0.00     0.172 C 
HETATM   19  O           1     -32.880  -4.185 -16.575  0.00  0.00    -0.648 OA
HETATM   20  O           1     -31.652  -3.029 -17.933  0.00  0.00    -0.648 OA
ENDBRANCH  17  18
ENDBRANCH  16  17
ENDBRANCH  15  16
BRANCH  15  21
HETATM   21  C           1     -29.699  -7.373 -17.568  0.00  0.00     0.196 C 
HETATM   22  O           1     -30.720  -7.384 -18.289  0.00  0.00    -0.646 OA
HETATM   23  O           1     -29.433  -8.357 -16.845  0.00  0.00    -0.646 OA
ENDBRANCH  15  21
ENDBRANCH   2  15
TORSDOF 10
ENDMDL
MODEL 9
REMARK VINA RESULT:      -5.8     11.685     13.737
REMARK  10 active torsions:
REMARK  status: ('A' for Active; 'I' for Inactive)
REMARK    1  A    between atoms: C_1  and  C_2 
REMARK    2  A    between atoms: C_1  and  C_19 
REMARK    3  A    between atoms: C_1  and  N_13 
REMARK       I    between atoms: C_2  and  N_3 
REMARK    4  A    between atoms: N_3  and  C_12 
REMARK    5  A    between atoms: C_9  and  C_10 
REMARK    6  A    between atoms: C_9  and  C_12 
REMARK    7  A    between atoms: C_10  and  C_14 
REMARK    8  A    between atoms: C_11  and  C_12 
REMARK    9  A    between atoms: C_17  and  C_18 
REMARK   10  A    between atoms: C_18  and  C_19 
ROOT
HETATM    1  C           1     -21.152  -6.166  -6.140  0.00  0.00     0.249 C 
HETATM    2  N           1     -21.397  -4.922  -6.655  0.00  0.00    -0.345 N 
HETATM    3  O           1     -21.068  -7.120  -6.876  0.00  0.00    -0.271 OA
HETATM    4  H           1     -21.468  -4.123  -6.038  0.00  0.00     0.163 HD
ENDROOT
BRANCH   1   5
HETATM    5  C           1     -20.989  -6.347  -4.651  0.00  0.00     0.275 C 
BRANCH   5   6
HETATM    6  C           1     -20.424  -7.732  -4.365  0.00  0.00     0.053 C 
BRANCH   6   7
HETATM    7  C           1     -21.569  -8.717  -4.169  0.00  0.00     0.115 C 
BRANCH   7   8
HETATM    8  C           1     -21.166 -10.070  -4.703  0.00  0.00     0.172 C 
HETATM    9  O           1     -21.081 -10.255  -5.936  0.00  0.00    -0.648 OA
HETATM   10  O           1     -20.919 -11.005  -3.911  0.00  0.00    -0.648 OA
ENDBRANCH   7   8
ENDBRANCH   6   7
ENDBRANCH   5   6
BRANCH   5  11
HETATM   11  N           1     -22.324  -6.205  -3.981  0.00  0.00    -0.066 N 
HETATM   12  H           1     -22.982  -5.703  -4.620  0.00  0.00     0.275 HD
HETATM   13  H           1     -22.215  -5.658  -3.097  0.00  0.00     0.275 HD
HETATM   14  H           1     -22.705  -7.152  -3.759  0.00  0.00     0.275 HD
ENDBRANCH   5  11
ENDBRANCH   1   5
BRANCH   2  15
HETATM   15  C           1     -21.554  -4.748  -8.087  0.00  0.00     0.186 C 
BRANCH  15  16
HETATM   16  C           1     -22.502  -3.587  -8.355  0.00  0.00     0.046 C 
BRANCH  16  17
HETATM   17  C           1     -23.784  -4.114  -8.986  0.00  0.00     0.116 C 
BRANCH  17  18
HETATM   18  C           1     -23.971  -3.486 -10.346  0.00  0.00     0.172 C 
HETATM   19  O           1     -22.977  -3.242 -11.063  0.00  0.00    -0.648 OA
HETATM   20  O           1     -25.120  -3.212 -10.756  0.00  0.00    -0.648 OA
ENDBRANCH  17  18
ENDBRANCH  16  17
ENDBRANCH  15  16
BRANCH  15  21
HETATM   21  C           1     -20.210  -4.455  -8.708  0.00  0.00     0.196 C 
HETATM   22  O           1     -20.014  -4.699  -9.918  0.00  0.00    -0.646 OA
HETATM   23  O           1     -19.294  -3.968  -8.012  0.00  0.00    -0.646 OA
ENDBRANCH  15  21
ENDBRANCH   2  15
TORSDOF 10
ENDMDL
