MODEL 1
REMARK VINA RESULT:      -5.4      0.000      0.000
REMARK  5 active torsions:
REMARK  status: ('A' for Active; 'I' for Inactive)
REMARK       I    between atoms: N_1  and  C_2 
REMARK    1  A    between atoms: C_2  and  C_3 
REMARK    2  A    between atoms: C_3  and  C_4 
REMARK    3  A    between atoms: C_3  and  N_6 
REMARK    4  A    between atoms: C_4  and  Se_5 
REMARK    5  A    between atoms: C_16  and  C_18 
ROOT
HETATM    1  N           1     -21.526  -4.438  -9.334  0.00  0.00    -0.336 N 
HETATM    2  C           1     -21.624  -4.630  -7.982  0.00  0.00     0.251 C 
HETATM    3  O           1     -22.555  -4.162  -7.372  0.00  0.00    -0.271 OA
HETATM    4  C           1     -20.479  -4.926 -10.228  0.00  0.00     0.127 C 
HETATM    5  C           1     -20.234  -3.762 -11.171  0.00  0.00     0.022 C 
HETATM    6  C           1     -21.525  -2.952 -11.147  0.00  0.00     0.038 C 
HETATM    7  C           1     -22.444  -3.700 -10.197  0.00  0.00     0.188 C 
ENDROOT
BRANCH   2   8
HETATM    8  C           1     -20.570  -5.427  -7.255  0.00  0.00     0.275 C 
BRANCH   8   9
HETATM    9  C           1     -21.234  -6.543  -6.460  0.00  0.00     0.045 C 
BRANCH   9  10
HETATM   10 Se           1     -21.219  -6.089  -4.565  0.00  0.00     0.000 Se
HETATM   11  H           1     -22.346  -5.147  -4.663  0.00  0.00     0.000 HD
ENDBRANCH   9  10
ENDBRANCH   8   9
BRANCH   8  12
HETATM   12  N           1     -19.818  -4.527  -6.320  0.00  0.00    -0.067 N 
HETATM   13  H           1     -19.942  -4.862  -5.337  0.00  0.00     0.275 HD
HETATM   14  H           1     -18.803  -4.539  -6.566  0.00  0.00     0.275 HD
HETATM   15  H           1     -20.186  -3.552  -6.404  0.00  0.00     0.275 HD
ENDBRANCH   8  12
ENDBRANCH   2   8
BRANCH   7  16
HETATM   16  C           1     -23.346  -4.644 -10.953  0.00  0.00     0.196 C 
HETATM   17  O           1     -23.405  -4.587 -12.201  0.00  0.00    -0.646 OA
HETATM   18  O           1     -24.033  -5.484 -10.333  0.00  0.00    -0.646 OA
ENDBRANCH   7  16
TORSDOF 5
ENDMDL
MODEL 2
REMARK VINA RESULT:      -5.2     10.274     11.649
REMARK  5 active torsions:
REMARK  status: ('A' for Active; 'I' for Inactive)
REMARK       I    between atoms: N_1  and  C_2 
REMARK    1  A    between atoms: C_2  and  C_3 
REMARK    2  A    between atoms: C_3  and  C_4 
REMARK    3  A    between atoms: C_3  and  N_6 
REMARK    4  A    between atoms: C_4  and  Se_5 
REMARK    5  A    between atoms: C_16  and  C_18 
ROOT
HETATM    1  N           1     -26.687  -6.233 -18.243  0.00  0.00    -0.336 N 
HETATM    2  C           1     -25.539  -6.568 -18.909  0.00  0.00     0.251 C 
HETATM    3  O           1     -24.471  -6.484 -18.352  0.00  0.00    -0.271 OA
HETATM    4  C           1     -28.055  -6.272 -18.754  0.00  0.00     0.127 C 
HETATM    5  C           1     -28.689  -5.012 -18.193  0.00  0.00     0.022 C 
HETATM    6  C           1     -27.867  -4.670 -16.955  0.00  0.00     0.038 C 
HETATM    7  C           1     -26.812  -5.758 -16.868  0.00  0.00     0.188 C 
ENDROOT
BRANCH   2   8
HETATM    8  C           1     -25.608  -7.042 -20.340  0.00  0.00     0.275 C 
BRANCH   8   9
HETATM    9  C           1     -24.501  -8.057 -20.593  0.00  0.00     0.045 C 
BRANCH   9  10
HETATM   10 Se           1     -23.878  -7.895 -22.432  0.00  0.00     0.000 Se
HETATM   11  H           1     -22.897  -8.986 -22.319  0.00  0.00     0.000 HD
ENDBRANCH   9  10
ENDBRANCH   8   9
BRANCH   8  12
HETATM   12  N           1     -25.434  -5.873 -21.263  0.00  0.00    -0.067 N 
HETATM   13  H           1     -26.271  -5.251 -21.201  0.00  0.00     0.275 HD
HETATM   14  H           1     -24.580  -5.337 -20.989  0.00  0.00     0.275 HD
HETATM   15  H           1     -25.328  -6.218 -22.245  0.00  0.00     0.275 HD
ENDBRANCH   8  12
ENDBRANCH   2   8
BRANCH   7  16
HETATM   16  C           1     -27.262  -6.872 -15.954  0.00  0.00     0.196 C 
HETATM   17  O           1     -26.415  -7.592 -15.383  0.00  0.00    -0.646 OA
HETATM   18  O           1     -28.481  -7.073 -15.767  0.00  0.00    -0.646 OA
ENDBRANCH   7  16
TORSDOF 5
ENDMDL
MODEL 3
REMARK VINA RESULT:      -5.2     13.504     15.050
REMARK  5 active torsions:
REMARK  status: ('A' for Active; 'I' for Inactive)
REMARK       I    between atoms: N_1  and  C_2 
REMARK    1  A    between atoms: C_2  and  C_3 
REMARK    2  A    between atoms: C_3  and  C_4 
REMARK    3  A    between atoms: C_3  and  N_6 
REMARK    4  A    between atoms: C_4  and  Se_5 
REMARK    5  A    between atoms: C_16  and  C_18 
ROOT
HETATM    1  N           1     -35.790  -1.052 -13.258  0.00  0.00    -0.336 N 
HETATM    2  C           1     -34.957  -2.087 -12.929  0.00  0.00     0.251 C 
HETATM    3  O           1     -34.512  -2.803 -13.793  0.00  0.00    -0.271 OA
HETATM    4  C           1     -36.416  -0.093 -12.353  0.00  0.00     0.127 C 
HETATM    5  C           1     -37.819   0.072 -12.911  0.00  0.00     0.022 C 
HETATM    6  C           1     -37.710  -0.313 -14.382  0.00  0.00     0.038 C 
HETATM    7  C           1     -36.248  -0.668 -14.591  0.00  0.00     0.188 C 
ENDROOT
BRANCH   2   8
HETATM    8  C           1     -34.592  -2.332 -11.485  0.00  0.00     0.275 C 
BRANCH   8   9
HETATM    9  C           1     -33.274  -3.092 -11.415  0.00  0.00     0.045 C 
BRANCH   9  10
HETATM   10 Se           1     -33.631  -4.985 -11.119  0.00  0.00     0.000 Se
HETATM   11  H           1     -34.871  -4.752 -10.359  0.00  0.00     0.000 HD
ENDBRANCH   9  10
ENDBRANCH   8   9
BRANCH   8  12
HETATM   12  N           1     -35.671  -3.141 -10.828  0.00  0.00    -0.067 N 
HETATM   13  H           1     -36.607  -2.772 -11.111  0.00  0.00     0.275 HD
HETATM   14  H           1     -35.586  -4.140 -11.123  0.00  0.00     0.275 HD
HETATM   15  H           1     -35.571  -3.075  -9.789  0.00  0.00     0.275 HD
ENDBRANCH   8  12
ENDBRANCH   2   8
BRANCH   7  16
HETATM   16  C           1     -35.473   0.521 -15.102  0.00  0.00     0.196 C 
HETATM   17  O           1     -36.037   1.372 -15.823  0.00  0.00    -0.646 OA
HETATM   18  O           1     -34.266   0.655 -14.805  0.00  0.00    -0.646 OA
ENDBRANCH   7  16
TORSDOF 5
ENDMDL
MODEL 4
REMARK VINA RESULT:      -5.0     13.232     14.452
REMARK  5 active torsions:
REMARK  status: ('A' for Active; 'I' for Inactive)
REMARK       I    between atoms: N_1  and  C_2 
REMARK    1  A    between atoms: C_2  and  C_3 
REMARK    2  A    between atoms: C_3  and  C_4 
REMARK    3  A    between atoms: C_3  and  N_6 
REMARK    4  A    between atoms: C_4  and  Se_5 
REMARK    5  A    between atoms: C_16  and  C_18 
ROOT
HETATM    1  N           1     -34.886  -2.744 -11.536  0.00  0.00    -0.336 N 
HETATM    2  C           1     -35.196  -1.416 -11.425  0.00  0.00     0.251 C 
HETATM    3  O           1     -34.559  -0.593 -12.037  0.00  0.00    -0.271 OA
HETATM    4  C           1     -35.542  -3.869 -10.876  0.00  0.00     0.127 C 
HETATM    5  C           1     -34.393  -4.780 -10.481  0.00  0.00     0.022 C 
HETATM    6  C           1     -33.261  -4.431 -11.441  0.00  0.00     0.038 C 
HETATM    7  C           1     -33.825  -3.346 -12.341  0.00  0.00     0.188 C 
ENDROOT
BRANCH   2   8
HETATM    8  C           1     -36.336  -0.979 -10.537  0.00  0.00     0.275 C 
BRANCH   8   9
HETATM    9  C           1     -37.030   0.226 -11.157  0.00  0.00     0.045 C 
BRANCH   9  10
HETATM   10 Se           1     -37.858  -0.296 -12.842  0.00  0.00     0.000 Se
HETATM   11  H           1     -39.122  -0.726 -12.221  0.00  0.00     0.000 HD
ENDBRANCH   9  10
ENDBRANCH   8   9
BRANCH   8  12
HETATM   12  N           1     -35.803  -0.609  -9.185  0.00  0.00    -0.067 N 
HETATM   13  H           1     -36.468  -0.932  -8.446  0.00  0.00     0.275 HD
HETATM   14  H           1     -34.874  -1.065  -9.041  0.00  0.00     0.275 HD
HETATM   15  H           1     -35.695   0.429  -9.126  0.00  0.00     0.275 HD
ENDBRANCH   8  12
ENDBRANCH   2   8
BRANCH   7  16
HETATM   16  C           1     -34.385  -3.936 -13.611  0.00  0.00     0.196 C 
HETATM   17  O           1     -34.873  -5.087 -13.603  0.00  0.00    -0.646 OA
HETATM   18  O           1     -34.361  -3.275 -14.672  0.00  0.00    -0.646 OA
ENDBRANCH   7  16
TORSDOF 5
ENDMDL
MODEL 5
REMARK VINA RESULT:      -5.0      9.344     10.977
REMARK  5 active torsions:
REMARK  status: ('A' for Active; 'I' for Inactive)
REMARK       I    between atoms: N_1  and  C_2 
REMARK    1  A    between atoms: C_2  and  C_3 
REMARK    2  A    between atoms: C_3  and  C_4 
REMARK    3  A    between atoms: C_3  and  N_6 
REMARK    4  A    between atoms: C_4  and  Se_5 
REMARK    5  A    between atoms: C_16  and  C_18 
ROOT
HETATM    1  N           1     -28.439  -6.000 -16.847  0.00  0.00    -0.336 N 
HETATM    2  C           1     -27.333  -6.559 -16.264  0.00  0.00     0.251 C 
HETATM    3  O           1     -27.460  -7.321 -15.336  0.00  0.00    -0.271 OA
HETATM    4  C           1     -28.475  -5.066 -17.969  0.00  0.00     0.127 C 
HETATM    5  C           1     -29.556  -4.073 -17.580  0.00  0.00     0.022 C 
HETATM    6  C           1     -30.449  -4.821 -16.597  0.00  0.00     0.038 C 
HETATM    7  C           1     -29.838  -6.207 -16.483  0.00  0.00     0.188 C 
ENDROOT
BRANCH   2   8
HETATM    8  C           1     -25.956  -6.224 -16.782  0.00  0.00     0.275 C 
BRANCH   8   9
HETATM    9  C           1     -25.820  -6.711 -18.218  0.00  0.00     0.045 C 
BRANCH   9  10
HETATM   10 Se           1     -23.948  -7.095 -18.599  0.00  0.00     0.000 Se
HETATM   11  H           1     -23.868  -8.226 -17.660  0.00  0.00     0.000 HD
ENDBRANCH   9  10
ENDBRANCH   8   9
BRANCH   8  12
HETATM   12  N           1     -24.924  -6.896 -15.927  0.00  0.00    -0.067 N 
HETATM   13  H           1     -24.004  -6.897 -16.424  0.00  0.00     0.275 HD
HETATM   14  H           1     -24.830  -6.379 -15.023  0.00  0.00     0.275 HD
HETATM   15  H           1     -25.217  -7.881 -15.735  0.00  0.00     0.275 HD
ENDBRANCH   8  12
ENDBRANCH   2   8
BRANCH   7  16
HETATM   16  C           1     -30.504  -7.170 -17.434  0.00  0.00     0.196 C 
HETATM   17  O           1     -31.700  -7.004 -17.755  0.00  0.00    -0.646 OA
HETATM   18  O           1     -29.859  -8.133 -17.902  0.00  0.00    -0.646 OA
ENDBRANCH   7  16
TORSDOF 5
ENDMDL
MODEL 6
REMARK VINA RESULT:      -4.8     14.820     16.311
REMARK  5 active torsions:
REMARK  status: ('A' for Active; 'I' for Inactive)
REMARK       I    between atoms: N_1  and  C_2 
REMARK    1  A    between atoms: C_2  and  C_3 
REMARK    2  A    between atoms: C_3  and  C_4 
REMARK    3  A    between atoms: C_3  and  N_6 
REMARK    4  A    between atoms: C_4  and  Se_5 
REMARK    5  A    between atoms: C_16  and  C_18 
ROOT
HETATM    1  N           1     -36.174  -0.152 -13.179  0.00  0.00    -0.336 N 
HETATM    2  C           1     -35.726   0.474 -14.310  0.00  0.00     0.251 C 
HETATM    3  O           1     -34.541   0.637 -14.482  0.00  0.00    -0.271 OA
HETATM    4  C           1     -37.559  -0.433 -12.808  0.00  0.00     0.127 C 
HETATM    5  C           1     -37.601  -0.143 -11.318  0.00  0.00     0.022 C 
HETATM    6  C           1     -36.163  -0.303 -10.840  0.00  0.00     0.038 C 
HETATM    7  C           1     -35.374  -0.685 -12.080  0.00  0.00     0.188 C 
ENDROOT
BRANCH   2   8
HETATM    8  C           1     -36.711   0.961 -15.344  0.00  0.00     0.275 C 
BRANCH   8   9
HETATM    9  C           1     -37.150  -0.206 -16.218  0.00  0.00     0.045 C 
BRANCH   9  10
HETATM   10 Se           1     -35.600  -1.295 -16.675  0.00  0.00     0.000 Se
HETATM   11  H           1     -35.665  -2.108 -15.450  0.00  0.00     0.000 HD
ENDBRANCH   9  10
ENDBRANCH   8   9
BRANCH   8  12
HETATM   12  N           1     -36.061   2.009 -16.200  0.00  0.00    -0.067 N 
HETATM   13  H           1     -35.607   1.554 -17.024  0.00  0.00     0.275 HD
HETATM   14  H           1     -36.785   2.686 -16.530  0.00  0.00     0.275 HD
HETATM   15  H           1     -35.339   2.516 -15.640  0.00  0.00     0.275 HD
ENDBRANCH   8  12
ENDBRANCH   2   8
BRANCH   7  16
HETATM   16  C           1     -35.239  -2.184 -12.192  0.00  0.00     0.196 C 
HETATM   17  O           1     -34.670  -2.688 -13.184  0.00  0.00    -0.646 OA
HETATM   18  O           1     -35.695  -2.921 -11.291  0.00  0.00    -0.646 OA
ENDBRANCH   7  16
TORSDOF 5
ENDMDL
MODEL 7
REMARK VINA RESULT:      -4.4     14.425     15.573
REMARK  5 active torsions:
REMARK  status: ('A' for Active; 'I' for Inactive)
REMARK       I    between atoms: N_1  and  C_2 
REMARK    1  A    between atoms: C_2  and  C_3 
REMARK    2  A    between atoms: C_3  and  C_4 
REMARK    3  A    between atoms: C_3  and  N_6 
REMARK    4  A    between atoms: C_4  and  Se_5 
REMARK    5  A    between atoms: C_16  and  C_18 
ROOT
HETATM    1  N           1     -36.088  -0.802 -13.364  0.00  0.00    -0.336 N 
HETATM    2  C           1     -35.422  -1.692 -12.564  0.00  0.00     0.251 C 
HETATM    3  O           1     -34.362  -2.148 -12.920  0.00  0.00    -0.271 OA
HETATM    4  C           1     -37.369  -0.154 -13.098  0.00  0.00     0.127 C 
HETATM    5  C           1     -38.075  -0.179 -14.442  0.00  0.00     0.022 C 
HETATM    6  C           1     -36.959  -0.279 -15.476  0.00  0.00     0.038 C 
HETATM    7  C           1     -35.672  -0.296 -14.669  0.00  0.00     0.188 C 
ENDROOT
BRANCH   2   8
HETATM    8  C           1     -36.012  -2.102 -11.237  0.00  0.00     0.275 C 
BRANCH   8   9
HETATM    9  C           1     -35.494  -1.177 -10.143  0.00  0.00     0.045 C 
BRANCH   9  10
HETATM   10 Se           1     -37.001  -0.343  -9.231  0.00  0.00     0.000 Se
HETATM   11  H           1     -37.280   0.610 -10.318  0.00  0.00     0.000 HD
ENDBRANCH   9  10
ENDBRANCH   8   9
BRANCH   8  12
HETATM   12  N           1     -35.613  -3.514 -10.927  0.00  0.00    -0.067 N 
HETATM   13  H           1     -35.830  -4.126 -11.747  0.00  0.00     0.275 HD
HETATM   14  H           1     -34.588  -3.550 -10.727  0.00  0.00     0.275 HD
HETATM   15  H           1     -36.143  -3.850 -10.091  0.00  0.00     0.275 HD
ENDBRANCH   8  12
ENDBRANCH   2   8
BRANCH   7  16
HETATM   16  C           1     -35.095   1.093 -14.547  0.00  0.00     0.196 C 
HETATM   17  O           1     -35.409   1.975 -15.375  0.00  0.00    -0.646 OA
HETATM   18  O           1     -34.303   1.361 -13.617  0.00  0.00    -0.646 OA
ENDBRANCH   7  16
TORSDOF 5
ENDMDL
MODEL 8
REMARK VINA RESULT:      -4.3     10.214     11.638
REMARK  5 active torsions:
REMARK  status: ('A' for Active; 'I' for Inactive)
REMARK       I    between atoms: N_1  and  C_2 
REMARK    1  A    between atoms: C_2  and  C_3 
REMARK    2  A    between atoms: C_3  and  C_4 
REMARK    3  A    between atoms: C_3  and  N_6 
REMARK    4  A    between atoms: C_4  and  Se_5 
REMARK    5  A    between atoms: C_16  and  C_18 
ROOT
HETATM    1  N           1     -28.420  -5.661 -16.961  0.00  0.00    -0.336 N 
HETATM    2  C           1     -29.235  -4.588 -17.204  0.00  0.00     0.251 C 
HETATM    3  O           1     -28.755  -3.505 -17.436  0.00  0.00    -0.271 OA
HETATM    4  C           1     -28.822  -7.033 -16.664  0.00  0.00     0.127 C 
HETATM    5  C           1     -27.851  -7.470 -15.581  0.00  0.00     0.022 C 
HETATM    6  C           1     -26.628  -6.577 -15.759  0.00  0.00     0.038 C 
HETATM    7  C           1     -26.960  -5.682 -16.941  0.00  0.00     0.188 C 
ENDROOT
BRANCH   2   8
HETATM    8  C           1     -30.734  -4.759 -17.182  0.00  0.00     0.275 C 
BRANCH   8   9
HETATM    9  C           1     -31.398  -3.495 -17.711  0.00  0.00     0.045 C 
BRANCH   9  10
HETATM   10 Se           1     -33.271  -3.471 -17.174  0.00  0.00     0.000 Se
HETATM   11  H           1     -33.522  -2.115 -17.688  0.00  0.00     0.000 HD
ENDBRANCH   9  10
ENDBRANCH   8   9
BRANCH   8  12
HETATM   12  N           1     -31.188  -5.009 -15.775  0.00  0.00    -0.067 N 
HETATM   13  H           1     -31.876  -4.275 -15.493  0.00  0.00     0.275 HD
HETATM   14  H           1     -31.641  -5.950 -15.717  0.00  0.00     0.275 HD
HETATM   15  H           1     -30.364  -4.980 -15.132  0.00  0.00     0.275 HD
ENDBRANCH   8  12
ENDBRANCH   2   8
BRANCH   7  16
HETATM   16  C           1     -26.414  -6.260 -18.223  0.00  0.00     0.196 C 
HETATM   17  O           1     -27.152  -6.360 -19.227  0.00  0.00    -0.646 OA
HETATM   18  O           1     -25.224  -6.637 -18.282  0.00  0.00    -0.646 OA
ENDBRANCH   7  16
TORSDOF 5
ENDMDL
MODEL 9
REMARK VINA RESULT:      -4.3      8.681     10.400
REMARK  5 active torsions:
REMARK  status: ('A' for Active; 'I' for Inactive)
REMARK       I    between atoms: N_1  and  C_2 
REMARK    1  A    between atoms: C_2  and  C_3 
REMARK    2  A    between atoms: C_3  and  C_4 
REMARK    3  A    between atoms: C_3  and  N_6 
REMARK    4  A    between atoms: C_4  and  Se_5 
REMARK    5  A    between atoms: C_16  and  C_18 
ROOT
HETATM    1  N           1     -21.420  -9.725  -0.792  0.00  0.00    -0.336 N 
HETATM    2  C           1     -21.236 -10.699   0.152  0.00  0.00     0.251 C 
HETATM    3  O           1     -20.789 -10.413   1.236  0.00  0.00    -0.271 OA
HETATM    4  C           1     -21.944  -9.887  -2.146  0.00  0.00     0.127 C 
HETATM    5  C           1     -21.070  -8.973  -2.986  0.00  0.00     0.022 C 
HETATM    6  C           1     -20.531  -7.931  -2.012  0.00  0.00     0.038 C 
HETATM    7  C           1     -21.133  -8.299  -0.667  0.00  0.00     0.188 C 
ENDROOT
BRANCH   2   8
HETATM    8  C           1     -21.593 -12.131  -0.162  0.00  0.00     0.275 C 
BRANCH   8   9
HETATM    9  C           1     -22.941 -12.468   0.460  0.00  0.00     0.045 C 
BRANCH   9  10
HETATM   10 Se           1     -22.711 -13.878   1.786  0.00  0.00     0.000 Se
HETATM   11  H           1     -22.597 -14.956   0.789  0.00  0.00     0.000 HD
ENDBRANCH   9  10
ENDBRANCH   8   9
BRANCH   8  12
HETATM   12  N           1     -20.542 -13.043   0.399  0.00  0.00    -0.067 N 
HETATM   13  H           1     -19.596 -12.705   0.111  0.00  0.00     0.275 HD
HETATM   14  H           1     -20.607 -13.047   1.443  0.00  0.00     0.275 HD
HETATM   15  H           1     -20.692 -14.012   0.037  0.00  0.00     0.275 HD
ENDBRANCH   8  12
ENDBRANCH   2   8
BRANCH   7  16
HETATM   16  C           1     -22.398  -7.518  -0.411  0.00  0.00     0.196 C 
HETATM   17  O           1     -23.201  -7.898   0.468  0.00  0.00    -0.646 OA
HETATM   18  O           1     -22.644  -6.490  -1.079  0.00  0.00    -0.646 OA
ENDBRANCH   7  16
TORSDOF 5
ENDMDL
