MODEL 1
REMARK VINA RESULT:      -6.6      0.000      0.000
REMARK  6 active torsions:
REMARK  status: ('A' for Active; 'I' for Inactive)
REMARK    1  A    between atoms: N_2  and  C_12 
REMARK    2  A    between atoms: C_8  and  C_12 
REMARK    3  A    between atoms: C_8  and  C_13 
REMARK    4  A    between atoms: C_9  and  C_17 
REMARK       I    between atoms: N_10  and  C_11 
REMARK    5  A    between atoms: C_11  and  C_12 
REMARK    6  A    between atoms: C_13  and  C_14 
REMARK       I    between atoms: C_14  and  N_15 
ROOT
HETATM    1  C           1     -34.912  -1.954 -11.254  0.00  0.00     0.275 C 
ENDROOT
BRANCH   1   2
HETATM    2  N           1     -36.068  -2.728 -10.690  0.00  0.00    -0.066 N 
HETATM    3  H           1     -35.711  -3.580 -10.201  0.00  0.00     0.275 HD
HETATM    4  H           1     -36.588  -2.128 -10.010  0.00  0.00     0.275 HD
HETATM    5  H           1     -36.707  -3.013 -11.465  0.00  0.00     0.275 HD
ENDBRANCH   1   2
BRANCH   1   6
HETATM    6  C           1     -33.614  -2.690 -10.954  0.00  0.00     0.052 C 
BRANCH   6   7
HETATM    7  C           1     -33.930  -4.087 -10.433  0.00  0.00     0.105 C 
BRANCH   7   8
HETATM    8  C           1     -33.301  -5.117 -11.338  0.00  0.00     0.215 C 
HETATM    9  O           1     -33.386  -6.291 -11.069  0.00  0.00    -0.274 OA
HETATM   10  N           1     -32.636  -4.719 -12.467  0.00  0.00    -0.370 N 
HETATM   11  H           1     -32.214  -5.409 -13.075  0.00  0.00     0.159 HD
HETATM   12  H           1     -32.565  -3.735 -12.693  0.00  0.00     0.159 HD
ENDBRANCH   7   8
ENDBRANCH   6   7
ENDBRANCH   1   6
BRANCH   1  13
HETATM   13  C           1     -35.081  -1.818 -12.747  0.00  0.00     0.251 C 
HETATM   14  O           1     -34.467  -2.543 -13.493  0.00  0.00    -0.271 OA
HETATM   15  N           1     -35.930  -0.873 -13.257  0.00  0.00    -0.336 N 
HETATM   16  C           1     -36.215  -0.600 -14.663  0.00  0.00     0.188 C 
HETATM   17  C           1     -36.747   0.082 -12.514  0.00  0.00     0.127 C 
HETATM   18  C           1     -37.714  -0.351 -14.686  0.00  0.00     0.038 C 
HETATM   19  C           1     -38.063   0.103 -13.273  0.00  0.00     0.022 C 
BRANCH  16  20
HETATM   20  C           1     -35.461   0.618 -15.139  0.00  0.00     0.196 C 
HETATM   21  O           1     -36.011   1.429 -15.915  0.00  0.00    -0.646 OA
HETATM   22  O           1     -34.287   0.815 -14.758  0.00  0.00    -0.646 OA
ENDBRANCH  16  20
ENDBRANCH   1  13
TORSDOF 6
ENDMDL
MODEL 2
REMARK VINA RESULT:      -6.1     12.942     15.023
REMARK  6 active torsions:
REMARK  status: ('A' for Active; 'I' for Inactive)
REMARK    1  A    between atoms: N_2  and  C_12 
REMARK    2  A    between atoms: C_8  and  C_12 
REMARK    3  A    between atoms: C_8  and  C_13 
REMARK    4  A    between atoms: C_9  and  C_17 
REMARK       I    between atoms: N_10  and  C_11 
REMARK    5  A    between atoms: C_11  and  C_12 
REMARK    6  A    between atoms: C_13  and  C_14 
REMARK       I    between atoms: C_14  and  N_15 
ROOT
HETATM    1  C           1     -20.511  -5.472  -7.354  0.00  0.00     0.275 C 
ENDROOT
BRANCH   1   2
HETATM    2  N           1     -19.527  -4.552  -6.692  0.00  0.00    -0.066 N 
HETATM    3  H           1     -19.959  -3.608  -6.571  0.00  0.00     0.275 HD
HETATM    4  H           1     -19.266  -4.938  -5.756  0.00  0.00     0.275 HD
HETATM    5  H           1     -18.672  -4.471  -7.287  0.00  0.00     0.275 HD
ENDBRANCH   1   2
BRANCH   1   6
HETATM    6  C           1     -21.165  -6.357  -6.303  0.00  0.00     0.052 C 
BRANCH   6   7
HETATM    7  C           1     -20.872  -5.800  -4.915  0.00  0.00     0.105 C 
BRANCH   7   8
HETATM    8  C           1     -21.636  -6.593  -3.883  0.00  0.00     0.215 C 
HETATM    9  O           1     -22.248  -6.021  -3.014  0.00  0.00    -0.274 OA
HETATM   10  N           1     -21.637  -7.961  -3.935  0.00  0.00    -0.370 N 
HETATM   11  H           1     -22.149  -8.493  -3.243  0.00  0.00     0.159 HD
HETATM   12  H           1     -21.123  -8.441  -4.664  0.00  0.00     0.159 HD
ENDBRANCH   7   8
ENDBRANCH   6   7
ENDBRANCH   1   6
BRANCH   1  13
HETATM   13  C           1     -21.569  -4.654  -8.053  0.00  0.00     0.251 C 
HETATM   14  O           1     -22.483  -4.182  -7.421  0.00  0.00    -0.271 OA
HETATM   15  N           1     -21.492  -4.447  -9.405  0.00  0.00    -0.336 N 
HETATM   16  C           1     -22.419  -3.690 -10.242  0.00  0.00     0.188 C 
HETATM   17  C           1     -20.468  -4.936 -10.323  0.00  0.00     0.127 C 
HETATM   18  C           1     -21.509  -2.940 -11.200  0.00  0.00     0.038 C 
HETATM   19  C           1     -20.227  -3.763 -11.257  0.00  0.00     0.022 C 
BRANCH  16  20
HETATM   20  C           1     -23.344  -4.615 -10.993  0.00  0.00     0.196 C 
HETATM   21  O           1     -23.416  -4.550 -12.239  0.00  0.00    -0.646 OA
HETATM   22  O           1     -24.040  -5.446 -10.370  0.00  0.00    -0.646 OA
ENDBRANCH  16  20
ENDBRANCH   1  13
TORSDOF 6
ENDMDL
MODEL 3
REMARK VINA RESULT:      -5.9      9.254     11.118
REMARK  6 active torsions:
REMARK  status: ('A' for Active; 'I' for Inactive)
REMARK    1  A    between atoms: N_2  and  C_12 
REMARK    2  A    between atoms: C_8  and  C_12 
REMARK    3  A    between atoms: C_8  and  C_13 
REMARK    4  A    between atoms: C_9  and  C_17 
REMARK       I    between atoms: N_10  and  C_11 
REMARK    5  A    between atoms: C_11  and  C_12 
REMARK    6  A    between atoms: C_13  and  C_14 
REMARK       I    between atoms: C_14  and  N_15 
ROOT
HETATM    1  C           1     -25.744  -6.299 -17.089  0.00  0.00     0.275 C 
ENDROOT
BRANCH   1   2
HETATM    2  N           1     -24.673  -7.059 -16.363  0.00  0.00    -0.066 N 
HETATM    3  H           1     -24.852  -8.085 -16.454  0.00  0.00     0.275 HD
HETATM    4  H           1     -23.742  -6.829 -16.778  0.00  0.00     0.275 HD
HETATM    5  H           1     -24.681  -6.793 -15.353  0.00  0.00     0.275 HD
ENDBRANCH   1   2
BRANCH   1   6
HETATM    6  C           1     -25.791  -6.750 -18.542  0.00  0.00     0.052 C 
BRANCH   6   7
HETATM    7  C           1     -24.380  -7.071 -19.021  0.00  0.00     0.105 C 
BRANCH   7   8
HETATM    8  C           1     -24.450  -7.826 -20.325  0.00  0.00     0.215 C 
HETATM    9  O           1     -25.475  -7.837 -20.963  0.00  0.00    -0.274 OA
HETATM   10  N           1     -23.349  -8.497 -20.786  0.00  0.00    -0.370 N 
HETATM   11  H           1     -23.396  -9.004 -21.661  0.00  0.00     0.159 HD
HETATM   12  H           1     -22.489  -8.488 -20.252  0.00  0.00     0.159 HD
ENDBRANCH   7   8
ENDBRANCH   6   7
ENDBRANCH   1   6
BRANCH   1  13
HETATM   13  C           1     -27.079  -6.565 -16.437  0.00  0.00     0.251 C 
HETATM   14  O           1     -27.142  -7.263 -15.454  0.00  0.00    -0.271 OA
HETATM   15  N           1     -28.218  -6.014 -16.959  0.00  0.00    -0.336 N 
HETATM   16  C           1     -29.584  -6.162 -16.466  0.00  0.00     0.188 C 
HETATM   17  C           1     -28.332  -5.152 -18.132  0.00  0.00     0.127 C 
HETATM   18  C           1     -30.176  -4.770 -16.617  0.00  0.00     0.038 C 
HETATM   19  C           1     -29.355  -4.107 -17.718  0.00  0.00     0.022 C 
BRANCH  16  20
HETATM   20  C           1     -30.350  -7.164 -17.294  0.00  0.00     0.196 C 
HETATM   21  O           1     -31.549  -6.953 -17.578  0.00  0.00    -0.646 OA
HETATM   22  O           1     -29.787  -8.206 -17.694  0.00  0.00    -0.646 OA
ENDBRANCH  16  20
ENDBRANCH   1  13
TORSDOF 6
ENDMDL
MODEL 4
REMARK VINA RESULT:      -5.8     12.694     14.804
REMARK  6 active torsions:
REMARK  status: ('A' for Active; 'I' for Inactive)
REMARK    1  A    between atoms: N_2  and  C_12 
REMARK    2  A    between atoms: C_8  and  C_12 
REMARK    3  A    between atoms: C_8  and  C_13 
REMARK    4  A    between atoms: C_9  and  C_17 
REMARK       I    between atoms: N_10  and  C_11 
REMARK    5  A    between atoms: C_11  and  C_12 
REMARK    6  A    between atoms: C_13  and  C_14 
REMARK       I    between atoms: C_14  and  N_15 
ROOT
HETATM    1  C           1     -21.694  -4.593  -6.630  0.00  0.00     0.275 C 
ENDROOT
BRANCH   1   2
HETATM    2  N           1     -22.964  -5.229  -6.145  0.00  0.00    -0.066 N 
HETATM    3  H           1     -23.778  -4.633  -6.418  0.00  0.00     0.275 HD
HETATM    4  H           1     -23.066  -6.176  -6.578  0.00  0.00     0.275 HD
HETATM    5  H           1     -22.933  -5.322  -5.105  0.00  0.00     0.275 HD
ENDBRANCH   1   2
BRANCH   1   6
HETATM    6  C           1     -20.537  -5.033  -5.744  0.00  0.00     0.052 C 
BRANCH   6   7
HETATM    7  C           1     -21.054  -5.969  -4.659  0.00  0.00     0.105 C 
BRANCH   7   8
HETATM    8  C           1     -20.422  -7.329  -4.824  0.00  0.00     0.215 C 
HETATM    9  O           1     -20.425  -8.113  -3.905  0.00  0.00    -0.274 OA
HETATM   10  N           1     -19.849  -7.676  -6.018  0.00  0.00    -0.370 N 
HETATM   11  H           1     -19.426  -8.588  -6.130  0.00  0.00     0.159 HD
HETATM   12  H           1     -19.847  -7.020  -6.789  0.00  0.00     0.159 HD
ENDBRANCH   7   8
ENDBRANCH   6   7
ENDBRANCH   1   6
BRANCH   1  13
HETATM   13  C           1     -21.430  -5.021  -8.053  0.00  0.00     0.251 C 
HETATM   14  O           1     -20.563  -5.827  -8.290  0.00  0.00    -0.271 OA
HETATM   15  N           1     -22.174  -4.496  -9.074  0.00  0.00    -0.336 N 
HETATM   16  C           1     -22.059  -4.789 -10.500  0.00  0.00     0.188 C 
HETATM   17  C           1     -23.255  -3.519  -8.977  0.00  0.00     0.127 C 
HETATM   18  C           1     -23.502  -4.859 -10.973  0.00  0.00     0.038 C 
HETATM   19  C           1     -24.288  -4.018  -9.973  0.00  0.00     0.022 C 
BRANCH  16  20
HETATM   20  C           1     -21.312  -3.692 -11.218  0.00  0.00     0.196 C 
HETATM   21  O           1     -21.786  -3.191 -12.260  0.00  0.00    -0.646 OA
HETATM   22  O           1     -20.218  -3.285 -10.770  0.00  0.00    -0.646 OA
ENDBRANCH  16  20
ENDBRANCH   1  13
TORSDOF 6
ENDMDL
MODEL 5
REMARK VINA RESULT:      -5.7     13.056     16.677
REMARK  6 active torsions:
REMARK  status: ('A' for Active; 'I' for Inactive)
REMARK    1  A    between atoms: N_2  and  C_12 
REMARK    2  A    between atoms: C_8  and  C_12 
REMARK    3  A    between atoms: C_8  and  C_13 
REMARK    4  A    between atoms: C_9  and  C_17 
REMARK       I    between atoms: N_10  and  C_11 
REMARK    5  A    between atoms: C_11  and  C_12 
REMARK    6  A    between atoms: C_13  and  C_14 
REMARK       I    between atoms: C_14  and  N_15 
ROOT
HETATM    1  C           1     -20.798  -4.902  -6.942  0.00  0.00     0.275 C 
ENDROOT
BRANCH   1   2
HETATM    2  N           1     -20.336  -5.852  -8.008  0.00  0.00    -0.066 N 
HETATM    3  H           1     -20.873  -6.745  -7.935  0.00  0.00     0.275 HD
HETATM    4  H           1     -20.496  -5.424  -8.948  0.00  0.00     0.275 HD
HETATM    5  H           1     -19.317  -6.048  -7.882  0.00  0.00     0.275 HD
ENDBRANCH   1   2
BRANCH   1   6
HETATM    6  C           1     -21.526  -3.731  -7.587  0.00  0.00     0.052 C 
BRANCH   6   7
HETATM    7  C           1     -21.743  -4.020  -9.067  0.00  0.00     0.105 C 
BRANCH   7   8
HETATM    8  C           1     -23.208  -4.278  -9.320  0.00  0.00     0.215 C 
HETATM    9  O           1     -23.559  -4.815 -10.343  0.00  0.00    -0.274 OA
HETATM   10  N           1     -24.139  -3.907  -8.387  0.00  0.00    -0.370 N 
HETATM   11  H           1     -25.121  -4.080  -8.556  0.00  0.00     0.159 HD
HETATM   12  H           1     -23.845  -3.457  -7.529  0.00  0.00     0.159 HD
ENDBRANCH   7   8
ENDBRANCH   6   7
ENDBRANCH   1   6
BRANCH   1  13
HETATM   13  C           1     -21.734  -5.621  -6.001  0.00  0.00     0.251 C 
HETATM   14  O           1     -22.896  -5.299  -5.943  0.00  0.00    -0.271 OA
HETATM   15  N           1     -21.265  -6.638  -5.214  0.00  0.00    -0.336 N 
HETATM   16  C           1     -22.019  -7.438  -4.253  0.00  0.00     0.188 C 
HETATM   17  C           1     -19.903  -7.159  -5.151  0.00  0.00     0.127 C 
HETATM   18  C           1     -21.487  -8.847  -4.459  0.00  0.00     0.038 C 
HETATM   19  C           1     -20.092  -8.663  -5.045  0.00  0.00     0.022 C 
BRANCH  16  20
HETATM   20  C           1     -21.762  -6.968  -2.842  0.00  0.00     0.196 C 
HETATM   21  O           1     -22.179  -5.850  -2.471  0.00  0.00    -0.646 OA
HETATM   22  O           1     -21.132  -7.696  -2.045  0.00  0.00    -0.646 OA
ENDBRANCH  16  20
ENDBRANCH   1  13
TORSDOF 6
ENDMDL
MODEL 6
REMARK VINA RESULT:      -5.6     12.955     16.634
REMARK  6 active torsions:
REMARK  status: ('A' for Active; 'I' for Inactive)
REMARK    1  A    between atoms: N_2  and  C_12 
REMARK    2  A    between atoms: C_8  and  C_12 
REMARK    3  A    between atoms: C_8  and  C_13 
REMARK    4  A    between atoms: C_9  and  C_17 
REMARK       I    between atoms: N_10  and  C_11 
REMARK    5  A    between atoms: C_11  and  C_12 
REMARK    6  A    between atoms: C_13  and  C_14 
REMARK       I    between atoms: C_14  and  N_15 
ROOT
HETATM    1  C           1     -21.566  -5.094  -7.218  0.00  0.00     0.275 C 
ENDROOT
BRANCH   1   2
HETATM    2  N           1     -21.070  -3.747  -6.781  0.00  0.00    -0.066 N 
HETATM    3  H           1     -21.403  -3.551  -5.810  0.00  0.00     0.275 HD
HETATM    4  H           1     -20.025  -3.739  -6.799  0.00  0.00     0.275 HD
HETATM    5  H           1     -21.436  -3.014  -7.429  0.00  0.00     0.275 HD
ENDBRANCH   1   2
BRANCH   1   6
HETATM    6  C           1     -21.477  -5.200  -8.734  0.00  0.00     0.052 C 
BRANCH   6   7
HETATM    7  C           1     -22.083  -3.954  -9.367  0.00  0.00     0.105 C 
BRANCH   7   8
HETATM    8  C           1     -23.563  -4.161  -9.572  0.00  0.00     0.215 C 
HETATM    9  O           1     -23.955  -5.024 -10.320  0.00  0.00    -0.274 OA
HETATM   10  N           1     -24.462  -3.371  -8.907  0.00  0.00    -0.370 N 
HETATM   11  H           1     -25.455  -3.510  -9.043  0.00  0.00     0.159 HD
HETATM   12  H           1     -24.134  -2.648  -8.279  0.00  0.00     0.159 HD
ENDBRANCH   7   8
ENDBRANCH   6   7
ENDBRANCH   1   6
BRANCH   1  13
HETATM   13  C           1     -20.717  -6.170  -6.587  0.00  0.00     0.251 C 
HETATM   14  O           1     -19.679  -6.503  -7.107  0.00  0.00    -0.271 OA
HETATM   15  N           1     -21.122  -6.769  -5.425  0.00  0.00    -0.336 N 
HETATM   16  C           1     -20.436  -7.820  -4.679  0.00  0.00     0.188 C 
HETATM   17  C           1     -22.337  -6.497  -4.661  0.00  0.00     0.127 C 
HETATM   18  C           1     -20.621  -7.413  -3.227  0.00  0.00     0.038 C 
HETATM   19  C           1     -21.876  -6.547  -3.214  0.00  0.00     0.022 C 
BRANCH  16  20
HETATM   20  C           1     -21.063  -9.166  -4.944  0.00  0.00     0.196 C 
HETATM   21  O           1     -21.101  -9.619  -6.109  0.00  0.00    -0.646 OA
HETATM   22  O           1     -21.545  -9.829  -4.000  0.00  0.00    -0.646 OA
ENDBRANCH  16  20
ENDBRANCH   1  13
TORSDOF 6
ENDMDL
MODEL 7
REMARK VINA RESULT:      -5.4     14.105     17.788
REMARK  6 active torsions:
REMARK  status: ('A' for Active; 'I' for Inactive)
REMARK    1  A    between atoms: N_2  and  C_12 
REMARK    2  A    between atoms: C_8  and  C_12 
REMARK    3  A    between atoms: C_8  and  C_13 
REMARK    4  A    between atoms: C_9  and  C_17 
REMARK       I    between atoms: N_10  and  C_11 
REMARK    5  A    between atoms: C_11  and  C_12 
REMARK    6  A    between atoms: C_13  and  C_14 
REMARK       I    between atoms: C_14  and  N_15 
ROOT
HETATM    1  C           1     -20.450  -6.150  -5.371  0.00  0.00     0.275 C 
ENDROOT
BRANCH   1   2
HETATM    2  N           1     -20.321  -7.089  -6.534  0.00  0.00    -0.066 N 
HETATM    3  H           1     -19.995  -6.559  -7.375  0.00  0.00     0.275 HD
HETATM    4  H           1     -19.628  -7.836  -6.303  0.00  0.00     0.275 HD
HETATM    5  H           1     -21.249  -7.523  -6.735  0.00  0.00     0.275 HD
ENDBRANCH   1   2
BRANCH   1   6
HETATM    6  C           1     -20.812  -4.761  -5.877  0.00  0.00     0.052 C 
BRANCH   6   7
HETATM    7  C           1     -21.052  -4.814  -7.381  0.00  0.00     0.105 C 
BRANCH   7   8
HETATM    8  C           1     -22.400  -4.214  -7.698  0.00  0.00     0.215 C 
HETATM    9  O           1     -22.526  -3.481  -8.649  0.00  0.00    -0.274 OA
HETATM   10  N           1     -23.479  -4.503  -6.907  0.00  0.00    -0.370 N 
HETATM   11  H           1     -24.383  -4.101  -7.119  0.00  0.00     0.159 HD
HETATM   12  H           1     -23.374  -5.117  -6.110  0.00  0.00     0.159 HD
ENDBRANCH   7   8
ENDBRANCH   6   7
ENDBRANCH   1   6
BRANCH   1  13
HETATM   13  C           1     -21.531  -6.645  -4.443  0.00  0.00     0.251 C 
HETATM   14  O           1     -22.673  -6.284  -4.599  0.00  0.00    -0.271 OA
HETATM   15  N           1     -21.219  -7.506  -3.425  0.00  0.00    -0.336 N 
HETATM   16  C           1     -22.127  -8.083  -2.438  0.00  0.00     0.188 C 
HETATM   17  C           1     -19.905  -8.045  -3.088  0.00  0.00     0.127 C 
HETATM   18  C           1     -21.651  -9.520  -2.306  0.00  0.00     0.038 C 
HETATM   19  C           1     -20.187  -9.494  -2.728  0.00  0.00     0.022 C 
BRANCH  16  20
HETATM   20  C           1     -22.020  -7.358  -1.119  0.00  0.00     0.196 C 
HETATM   21  O           1     -22.346  -6.154  -1.040  0.00  0.00    -0.646 OA
HETATM   22  O           1     -21.606  -7.961  -0.105  0.00  0.00    -0.646 OA
ENDBRANCH  16  20
ENDBRANCH   1  13
TORSDOF 6
ENDMDL
MODEL 8
REMARK VINA RESULT:      -5.3      8.736     10.427
REMARK  6 active torsions:
REMARK  status: ('A' for Active; 'I' for Inactive)
REMARK    1  A    between atoms: N_2  and  C_12 
REMARK    2  A    between atoms: C_8  and  C_12 
REMARK    3  A    between atoms: C_8  and  C_13 
REMARK    4  A    between atoms: C_9  and  C_17 
REMARK       I    between atoms: N_10  and  C_11 
REMARK    5  A    between atoms: C_11  and  C_12 
REMARK    6  A    between atoms: C_13  and  C_14 
REMARK       I    between atoms: C_14  and  N_15 
ROOT
HETATM    1  C           1     -26.739  -5.956 -18.207  0.00  0.00     0.275 C 
ENDROOT
BRANCH   1   2
HETATM    2  N           1     -25.554  -6.833 -17.922  0.00  0.00    -0.066 N 
HETATM    3  H           1     -25.035  -7.016 -18.810  0.00  0.00     0.275 HD
HETATM    4  H           1     -24.922  -6.352 -17.242  0.00  0.00     0.275 HD
HETATM    5  H           1     -25.880  -7.738 -17.515  0.00  0.00     0.275 HD
ENDBRANCH   1   2
BRANCH   1   6
HETATM    6  C           1     -27.130  -6.094 -19.672  0.00  0.00     0.052 C 
BRANCH   6   7
HETATM    7  C           1     -26.382  -7.269 -20.290  0.00  0.00     0.105 C 
BRANCH   7   8
HETATM    8  C           1     -27.373  -8.308 -20.755  0.00  0.00     0.215 C 
HETATM    9  O           1     -27.136  -8.974 -21.734  0.00  0.00    -0.274 OA
HETATM   10  N           1     -28.540  -8.498 -20.064  0.00  0.00    -0.370 N 
HETATM   11  H           1     -29.204  -9.194 -20.376  0.00  0.00     0.159 HD
HETATM   12  H           1     -28.739  -7.940 -19.243  0.00  0.00     0.159 HD
ENDBRANCH   7   8
ENDBRANCH   6   7
ENDBRANCH   1   6
BRANCH   1  13
HETATM   13  C           1     -27.896  -6.377 -17.335  0.00  0.00     0.251 C 
HETATM   14  O           1     -27.741  -7.234 -16.498  0.00  0.00    -0.271 OA
HETATM   15  N           1     -29.121  -5.787 -17.492  0.00  0.00    -0.336 N 
HETATM   16  C           1     -30.344  -6.065 -16.744  0.00  0.00     0.188 C 
HETATM   17  C           1     -29.490  -4.743 -18.443  0.00  0.00     0.127 C 
HETATM   18  C           1     -30.951  -4.691 -16.519  0.00  0.00     0.038 C 
HETATM   19  C           1     -30.393  -3.821 -17.641  0.00  0.00     0.022 C 
BRANCH  16  20
HETATM   20  C           1     -31.277  -6.940 -17.545  0.00  0.00     0.196 C 
HETATM   21  O           1     -32.510  -6.737 -17.507  0.00  0.00    -0.646 OA
HETATM   22  O           1     -30.818  -7.867 -18.246  0.00  0.00    -0.646 OA
ENDBRANCH  16  20
ENDBRANCH   1  13
TORSDOF 6
ENDMDL
MODEL 9
REMARK VINA RESULT:      -5.2     16.724     19.008
REMARK  6 active torsions:
REMARK  status: ('A' for Active; 'I' for Inactive)
REMARK    1  A    between atoms: N_2  and  C_12 
REMARK    2  A    between atoms: C_8  and  C_12 
REMARK    3  A    between atoms: C_8  and  C_13 
REMARK    4  A    between atoms: C_9  and  C_17 
REMARK       I    between atoms: N_10  and  C_11 
REMARK    5  A    between atoms: C_11  and  C_12 
REMARK    6  A    between atoms: C_13  and  C_14 
REMARK       I    between atoms: C_14  and  N_15 
ROOT
HETATM    1  C           1     -22.096  -6.633  -3.051  0.00  0.00     0.275 C 
ENDROOT
BRANCH   1   2
HETATM    2  N           1     -21.207  -5.491  -2.652  0.00  0.00    -0.066 N 
HETATM    3  H           1     -20.873  -5.636  -1.672  0.00  0.00     0.275 HD
HETATM    4  H           1     -20.386  -5.449  -3.297  0.00  0.00     0.275 HD
HETATM    5  H           1     -21.743  -4.596  -2.709  0.00  0.00     0.275 HD
ENDBRANCH   1   2
BRANCH   1   6
HETATM    6  C           1     -22.201  -6.687  -4.569  0.00  0.00     0.052 C 
BRANCH   6   7
HETATM    7  C           1     -21.121  -5.806  -5.186  0.00  0.00     0.105 C 
BRANCH   7   8
HETATM    8  C           1     -20.357  -6.596  -6.219  0.00  0.00     0.215 C 
HETATM    9  O           1     -20.286  -6.195  -7.356  0.00  0.00    -0.274 OA
HETATM   10  N           1     -19.741  -7.767  -5.866  0.00  0.00    -0.370 N 
HETATM   11  H           1     -19.228  -8.297  -6.559  0.00  0.00     0.159 HD
HETATM   12  H           1     -19.800  -8.104  -4.913  0.00  0.00     0.159 HD
ENDBRANCH   7   8
ENDBRANCH   6   7
ENDBRANCH   1   6
BRANCH   1  13
HETATM   13  C           1     -21.511  -7.927  -2.541  0.00  0.00     0.251 C 
HETATM   14  O           1     -20.755  -8.563  -3.235  0.00  0.00    -0.271 OA
HETATM   15  N           1     -21.836  -8.378  -1.290  0.00  0.00    -0.336 N 
HETATM   16  C           1     -21.371  -9.599  -0.637  0.00  0.00     0.188 C 
HETATM   17  C           1     -22.725  -7.747  -0.319  0.00  0.00     0.127 C 
HETATM   18  C           1     -21.122  -9.168   0.799  0.00  0.00     0.038 C 
HETATM   19  C           1     -22.018  -7.952   1.009  0.00  0.00     0.022 C 
BRANCH  16  20
HETATM   20  C           1     -22.423 -10.678  -0.699  0.00  0.00     0.196 C 
HETATM   21  O           1     -23.066 -10.863  -1.755  0.00  0.00    -0.646 OA
HETATM   22  O           1     -22.653 -11.387   0.305  0.00  0.00    -0.646 OA
ENDBRANCH  16  20
ENDBRANCH   1  13
TORSDOF 6
ENDMDL
