MODEL 1
REMARK VINA RESULT:      -5.1      0.000      0.000
REMARK  6 active torsions:
REMARK  status: ('A' for Active; 'I' for Inactive)
REMARK    1  A    between atoms: N_2  and  C_5 
REMARK    2  A    between atoms: O_3  and  C_4 
REMARK    3  A    between atoms: C_4  and  C_5 
REMARK    4  A    between atoms: C_5  and  C_6 
REMARK       I    between atoms: C_6  and  N_7 
REMARK    5  A    between atoms: N_7  and  C_9 
REMARK    6  A    between atoms: C_9  and  C_15 
ROOT
HETATM    1  C           1     -30.568  -4.106 -16.860  0.00  0.00     0.297 C 
ENDROOT
BRANCH   1   2
HETATM    2  N           1     -30.816  -2.953 -17.787  0.00  0.00    -0.064 N 
HETATM    3  H           1     -30.751  -2.056 -17.254  0.00  0.00     0.275 HD
HETATM    4  H           1     -30.099  -2.958 -18.547  0.00  0.00     0.275 HD
HETATM    5  H           1     -31.769  -3.040 -18.205  0.00  0.00     0.275 HD
ENDBRANCH   1   2
BRANCH   1   6
HETATM    6  C           1     -31.728  -5.089 -16.952  0.00  0.00     0.206 C 
BRANCH   6   7
HETATM    7  O           1     -31.238  -6.400 -16.867  0.00  0.00    -0.398 OA
HETATM    8  H           1     -30.797  -6.474 -16.038  0.00  0.00     0.209 HD
ENDBRANCH   6   7
ENDBRANCH   1   6
BRANCH   1   9
HETATM    9  C           1     -29.288  -4.800 -17.253  0.00  0.00     0.250 C 
HETATM   10  O           1     -29.050  -5.016 -18.418  0.00  0.00    -0.271 OA
HETATM   11  N           1     -28.394  -5.185 -16.289  0.00  0.00    -0.349 N 
HETATM   12  H           1     -28.593  -5.004 -15.314  0.00  0.00     0.163 HD
BRANCH  11  13
HETATM   13  C           1     -27.163  -5.852 -16.667  0.00  0.00     0.235 C 
BRANCH  13  14
HETATM   14  C           1     -26.883  -6.976 -15.701  0.00  0.00     0.191 C 
HETATM   15  O           1     -27.825  -7.522 -15.087  0.00  0.00    -0.647 OA
HETATM   16  O           1     -25.708  -7.362 -15.515  0.00  0.00    -0.647 OA
ENDBRANCH  13  14
ENDBRANCH  11  13
ENDBRANCH   1   9
TORSDOF 6
ENDMDL
MODEL 2
REMARK VINA RESULT:      -4.8      3.410      4.864
REMARK  6 active torsions:
REMARK  status: ('A' for Active; 'I' for Inactive)
REMARK    1  A    between atoms: N_2  and  C_5 
REMARK    2  A    between atoms: O_3  and  C_4 
REMARK    3  A    between atoms: C_4  and  C_5 
REMARK    4  A    between atoms: C_5  and  C_6 
REMARK       I    between atoms: C_6  and  N_7 
REMARK    5  A    between atoms: N_7  and  C_9 
REMARK    6  A    between atoms: C_9  and  C_15 
ROOT
HETATM    1  C           1     -25.224  -6.997 -20.331  0.00  0.00     0.297 C 
ENDROOT
BRANCH   1   2
HETATM    2  N           1     -24.042  -7.587 -19.620  0.00  0.00    -0.064 N 
HETATM    3  H           1     -23.665  -6.894 -18.935  0.00  0.00     0.275 HD
HETATM    4  H           1     -24.338  -8.452 -19.113  0.00  0.00     0.275 HD
HETATM    5  H           1     -23.301  -7.827 -20.315  0.00  0.00     0.275 HD
ENDBRANCH   1   2
BRANCH   1   6
HETATM    6  C           1     -25.857  -8.055 -21.225  0.00  0.00     0.206 C 
BRANCH   6   7
HETATM    7  O           1     -27.079  -8.465 -20.673  0.00  0.00    -0.398 OA
HETATM    8  H           1     -27.345  -9.238 -21.140  0.00  0.00     0.209 HD
ENDBRANCH   6   7
ENDBRANCH   1   6
BRANCH   1   9
HETATM    9  C           1     -26.235  -6.525 -19.317  0.00  0.00     0.250 C 
HETATM   10  O           1     -27.242  -5.965 -19.682  0.00  0.00    -0.271 OA
HETATM   11  N           1     -26.013  -6.731 -17.981  0.00  0.00    -0.349 N 
HETATM   12  H           1     -25.171  -7.200 -17.675  0.00  0.00     0.163 HD
BRANCH  11  13
HETATM   13  C           1     -26.986  -6.277 -17.006  0.00  0.00     0.235 C 
BRANCH  13  14
HETATM   14  C           1     -26.823  -7.063 -15.729  0.00  0.00     0.191 C 
HETATM   15  O           1     -25.679  -7.327 -15.299  0.00  0.00    -0.647 OA
HETATM   16  O           1     -27.832  -7.450 -15.099  0.00  0.00    -0.647 OA
ENDBRANCH  13  14
ENDBRANCH  11  13
ENDBRANCH   1   9
TORSDOF 6
ENDMDL
MODEL 3
REMARK VINA RESULT:      -4.8      1.935      4.840
REMARK  6 active torsions:
REMARK  status: ('A' for Active; 'I' for Inactive)
REMARK    1  A    between atoms: N_2  and  C_5 
REMARK    2  A    between atoms: O_3  and  C_4 
REMARK    3  A    between atoms: C_4  and  C_5 
REMARK    4  A    between atoms: C_5  and  C_6 
REMARK       I    between atoms: C_6  and  N_7 
REMARK    5  A    between atoms: N_7  and  C_9 
REMARK    6  A    between atoms: C_9  and  C_15 
ROOT
HETATM    1  C           1     -27.199  -6.354 -16.979  0.00  0.00     0.297 C 
ENDROOT
BRANCH   1   2
HETATM    2  N           1     -26.835  -6.484 -18.429  0.00  0.00    -0.064 N 
HETATM    3  H           1     -25.884  -6.908 -18.513  0.00  0.00     0.275 HD
HETATM    4  H           1     -27.533  -7.097 -18.908  0.00  0.00     0.275 HD
HETATM    5  H           1     -26.836  -5.540 -18.874  0.00  0.00     0.275 HD
ENDBRANCH   1   2
BRANCH   1   6
HETATM    6  C           1     -25.928  -6.302 -16.141  0.00  0.00     0.206 C 
BRANCH   6   7
HETATM    7  O           1     -25.805  -7.488 -15.403  0.00  0.00    -0.398 OA
HETATM    8  H           1     -26.253  -7.351 -14.587  0.00  0.00     0.209 HD
ENDBRANCH   6   7
ENDBRANCH   1   6
BRANCH   1   9
HETATM    9  C           1     -27.991  -5.087 -16.772  0.00  0.00     0.250 C 
HETATM   10  O           1     -27.855  -4.449 -15.755  0.00  0.00    -0.271 OA
HETATM   11  N           1     -28.865  -4.661 -17.736  0.00  0.00    -0.349 N 
HETATM   12  H           1     -28.979  -5.196 -18.587  0.00  0.00     0.163 HD
BRANCH  11  13
HETATM   13  C           1     -29.627  -3.442 -17.537  0.00  0.00     0.235 C 
BRANCH  13  14
HETATM   14  C           1     -31.091  -3.779 -17.411  0.00  0.00     0.191 C 
HETATM   15  O           1     -31.441  -4.867 -16.903  0.00  0.00    -0.647 OA
HETATM   16  O           1     -31.956  -2.971 -17.814  0.00  0.00    -0.647 OA
ENDBRANCH  13  14
ENDBRANCH  11  13
ENDBRANCH   1   9
TORSDOF 6
ENDMDL
MODEL 4
REMARK VINA RESULT:      -4.7      9.134     11.392
REMARK  6 active torsions:
REMARK  status: ('A' for Active; 'I' for Inactive)
REMARK    1  A    between atoms: N_2  and  C_5 
REMARK    2  A    between atoms: O_3  and  C_4 
REMARK    3  A    between atoms: C_4  and  C_5 
REMARK    4  A    between atoms: C_5  and  C_6 
REMARK       I    between atoms: C_6  and  N_7 
REMARK    5  A    between atoms: N_7  and  C_9 
REMARK    6  A    between atoms: C_9  and  C_15 
ROOT
HETATM    1  C           1     -20.971  -4.729  -7.046  0.00  0.00     0.297 C 
ENDROOT
BRANCH   1   2
HETATM    2  N           1     -20.764  -6.213  -7.101  0.00  0.00    -0.064 N 
HETATM    3  H           1     -21.055  -6.572  -8.038  0.00  0.00     0.275 HD
HETATM    4  H           1     -19.753  -6.428  -6.945  0.00  0.00     0.275 HD
HETATM    5  H           1     -21.337  -6.673  -6.358  0.00  0.00     0.275 HD
ENDBRANCH   1   2
BRANCH   1   6
HETATM    6  C           1     -20.029  -4.049  -8.031  0.00  0.00     0.206 C 
BRANCH   6   7
HETATM    7  O           1     -20.003  -4.774  -9.231  0.00  0.00    -0.398 OA
HETATM    8  H           1     -20.103  -5.682  -9.004  0.00  0.00     0.209 HD
ENDBRANCH   6   7
ENDBRANCH   1   6
BRANCH   1   9
HETATM    9  C           1     -22.399  -4.408  -7.413  0.00  0.00     0.250 C 
HETATM   10  O           1     -23.298  -4.705  -6.662  0.00  0.00    -0.271 OA
HETATM   11  N           1     -22.677  -3.779  -8.597  0.00  0.00    -0.349 N 
HETATM   12  H           1     -21.924  -3.530  -9.226  0.00  0.00     0.163 HD
BRANCH  11  13
HETATM   13  C           1     -24.050  -3.470  -8.950  0.00  0.00     0.235 C 
BRANCH  13  14
HETATM   14  C           1     -24.227  -3.600 -10.442  0.00  0.00     0.191 C 
HETATM   15  O           1     -25.262  -3.160 -10.989  0.00  0.00    -0.647 OA
HETATM   16  O           1     -23.340  -4.148 -11.132  0.00  0.00    -0.647 OA
ENDBRANCH  13  14
ENDBRANCH  11  13
ENDBRANCH   1   9
TORSDOF 6
ENDMDL
MODEL 5
REMARK VINA RESULT:      -4.6      3.480      4.445
REMARK  6 active torsions:
REMARK  status: ('A' for Active; 'I' for Inactive)
REMARK    1  A    between atoms: N_2  and  C_5 
REMARK    2  A    between atoms: O_3  and  C_4 
REMARK    3  A    between atoms: C_4  and  C_5 
REMARK    4  A    between atoms: C_5  and  C_6 
REMARK       I    between atoms: C_6  and  N_7 
REMARK    5  A    between atoms: N_7  and  C_9 
REMARK    6  A    between atoms: C_9  and  C_15 
ROOT
HETATM    1  C           1     -29.123  -6.701 -17.239  0.00  0.00     0.297 C 
ENDROOT
BRANCH   1   2
HETATM    2  N           1     -29.439  -8.164 -17.342  0.00  0.00    -0.064 N 
HETATM    3  H           1     -28.664  -8.720 -16.915  0.00  0.00     0.275 HD
HETATM    4  H           1     -30.331  -8.363 -16.834  0.00  0.00     0.275 HD
HETATM    5  H           1     -29.544  -8.428 -18.347  0.00  0.00     0.275 HD
ENDBRANCH   1   2
BRANCH   1   6
HETATM    6  C           1     -28.259  -6.455 -16.008  0.00  0.00     0.206 C 
BRANCH   6   7
HETATM    7  O           1     -27.170  -7.339 -16.017  0.00  0.00    -0.398 OA
HETATM    8  H           1     -26.801  -7.326 -15.151  0.00  0.00     0.209 HD
ENDBRANCH   6   7
ENDBRANCH   1   6
BRANCH   1   9
HETATM    9  C           1     -28.376  -6.261 -18.474  0.00  0.00     0.250 C 
HETATM   10  O           1     -28.545  -5.149 -18.917  0.00  0.00    -0.271 OA
HETATM   11  N           1     -27.508  -7.120 -19.092  0.00  0.00    -0.349 N 
HETATM   12  H           1     -27.367  -8.050 -18.720  0.00  0.00     0.163 HD
BRANCH  11  13
HETATM   13  C           1     -26.790  -6.697 -20.279  0.00  0.00     0.235 C 
BRANCH  13  14
HETATM   14  C           1     -26.325  -7.909 -21.045  0.00  0.00     0.191 C 
HETATM   15  O           1     -25.104  -8.105 -21.225  0.00  0.00    -0.647 OA
HETATM   16  O           1     -27.162  -8.719 -21.502  0.00  0.00    -0.647 OA
ENDBRANCH  13  14
ENDBRANCH  11  13
ENDBRANCH   1   9
TORSDOF 6
ENDMDL
MODEL 6
REMARK VINA RESULT:      -4.6      8.870     10.452
REMARK  6 active torsions:
REMARK  status: ('A' for Active; 'I' for Inactive)
REMARK    1  A    between atoms: N_2  and  C_5 
REMARK    2  A    between atoms: O_3  and  C_4 
REMARK    3  A    between atoms: C_4  and  C_5 
REMARK    4  A    between atoms: C_5  and  C_6 
REMARK       I    between atoms: C_6  and  N_7 
REMARK    5  A    between atoms: N_7  and  C_9 
REMARK    6  A    between atoms: C_9  and  C_15 
ROOT
HETATM    1  C           1     -23.288  -3.636 -10.482  0.00  0.00     0.297 C 
ENDROOT
BRANCH   1   2
HETATM    2  N           1     -23.410  -4.834 -11.376  0.00  0.00    -0.064 N 
HETATM    3  H           1     -23.588  -5.685 -10.797  0.00  0.00     0.275 HD
HETATM    4  H           1     -24.205  -4.692 -12.039  0.00  0.00     0.275 HD
HETATM    5  H           1     -22.524  -4.959 -11.914  0.00  0.00     0.275 HD
ENDBRANCH   1   2
BRANCH   1   6
HETATM    6  C           1     -24.620  -3.384  -9.787  0.00  0.00     0.206 C 
BRANCH   6   7
HETATM    7  O           1     -25.227  -4.611  -9.481  0.00  0.00    -0.398 OA
HETATM    8  H           1     -25.482  -4.572  -8.576  0.00  0.00     0.209 HD
ENDBRANCH   6   7
ENDBRANCH   1   6
BRANCH   1   9
HETATM    9  C           1     -22.220  -3.889  -9.446  0.00  0.00     0.250 C 
HETATM   10  O           1     -21.104  -4.199  -9.791  0.00  0.00    -0.271 OA
HETATM   11  N           1     -22.516  -3.769  -8.114  0.00  0.00    -0.349 N 
HETATM   12  H           1     -23.450  -3.509  -7.825  0.00  0.00     0.163 HD
BRANCH  11  13
HETATM   13  C           1     -21.490  -4.012  -7.118  0.00  0.00     0.235 C 
BRANCH  13  14
HETATM   14  C           1     -21.620  -5.420  -6.595  0.00  0.00     0.191 C 
HETATM   15  O           1     -22.380  -5.661  -5.632  0.00  0.00    -0.647 OA
HETATM   16  O           1     -20.969  -6.347  -7.124  0.00  0.00    -0.647 OA
ENDBRANCH  13  14
ENDBRANCH  11  13
ENDBRANCH   1   9
TORSDOF 6
ENDMDL
MODEL 7
REMARK VINA RESULT:      -4.6      3.623      5.253
REMARK  6 active torsions:
REMARK  status: ('A' for Active; 'I' for Inactive)
REMARK    1  A    between atoms: N_2  and  C_5 
REMARK    2  A    between atoms: O_3  and  C_4 
REMARK    3  A    between atoms: C_4  and  C_5 
REMARK    4  A    between atoms: C_5  and  C_6 
REMARK       I    between atoms: C_6  and  N_7 
REMARK    5  A    between atoms: N_7  and  C_9 
REMARK    6  A    between atoms: C_9  and  C_15 
ROOT
HETATM    1  C           1     -25.124  -6.939 -20.207  0.00  0.00     0.297 C 
ENDROOT
BRANCH   1   2
HETATM    2  N           1     -24.387  -7.458 -19.008  0.00  0.00    -0.064 N 
HETATM    3  H           1     -24.587  -6.847 -18.184  0.00  0.00     0.275 HD
HETATM    4  H           1     -24.702  -8.434 -18.802  0.00  0.00     0.275 HD
HETATM    5  H           1     -23.361  -7.456 -19.202  0.00  0.00     0.275 HD
ENDBRANCH   1   2
BRANCH   1   6
HETATM    6  C           1     -25.275  -8.056 -21.232  0.00  0.00     0.206 C 
BRANCH   6   7
HETATM    7  O           1     -26.602  -8.509 -21.240  0.00  0.00    -0.398 OA
HETATM    8  H           1     -26.756  -8.919 -20.407  0.00  0.00     0.209 HD
ENDBRANCH   6   7
ENDBRANCH   1   6
BRANCH   1   9
HETATM    9  C           1     -26.490  -6.456 -19.786  0.00  0.00     0.250 C 
HETATM   10  O           1     -27.207  -5.901 -20.585  0.00  0.00    -0.271 OA
HETATM   11  N           1     -26.917  -6.645 -18.499  0.00  0.00    -0.349 N 
HETATM   12  H           1     -26.316  -7.110 -17.830  0.00  0.00     0.163 HD
BRANCH  11  13
HETATM   13  C           1     -28.230  -6.180 -18.094  0.00  0.00     0.235 C 
BRANCH  13  14
HETATM   14  C           1     -28.094  -4.877 -17.347  0.00  0.00     0.191 C 
HETATM   15  O           1     -28.785  -3.890 -17.682  0.00  0.00    -0.647 OA
HETATM   16  O           1     -27.291  -4.783 -16.393  0.00  0.00    -0.647 OA
ENDBRANCH  13  14
ENDBRANCH  11  13
ENDBRANCH   1   9
TORSDOF 6
ENDMDL
MODEL 8
REMARK VINA RESULT:      -4.4      9.447     11.619
REMARK  6 active torsions:
REMARK  status: ('A' for Active; 'I' for Inactive)
REMARK    1  A    between atoms: N_2  and  C_5 
REMARK    2  A    between atoms: O_3  and  C_4 
REMARK    3  A    between atoms: C_4  and  C_5 
REMARK    4  A    between atoms: C_5  and  C_6 
REMARK       I    between atoms: C_6  and  N_7 
REMARK    5  A    between atoms: N_7  and  C_9 
REMARK    6  A    between atoms: C_9  and  C_15 
ROOT
HETATM    1  C           1     -21.201  -5.987  -7.196  0.00  0.00     0.297 C 
ENDROOT
BRANCH   1   2
HETATM    2  N           1     -19.704  -5.993  -7.302  0.00  0.00    -0.064 N 
HETATM    3  H           1     -19.299  -5.402  -6.542  0.00  0.00     0.275 HD
HETATM    4  H           1     -19.354  -6.973  -7.205  0.00  0.00     0.275 HD
HETATM    5  H           1     -19.419  -5.610  -8.230  0.00  0.00     0.275 HD
ENDBRANCH   1   2
BRANCH   1   6
HETATM    6  C           1     -21.607  -6.163  -5.738  0.00  0.00     0.206 C 
BRANCH   6   7
HETATM    7  O           1     -22.894  -5.643  -5.544  0.00  0.00    -0.398 OA
HETATM    8  H           1     -23.501  -6.335  -5.740  0.00  0.00     0.209 HD
ENDBRANCH   6   7
ENDBRANCH   1   6
BRANCH   1   9
HETATM    9  C           1     -21.735  -4.673  -7.711  0.00  0.00     0.250 C 
HETATM   10  O           1     -21.348  -3.634  -7.233  0.00  0.00    -0.271 OA
HETATM   11  N           1     -22.659  -4.659  -8.722  0.00  0.00    -0.349 N 
HETATM   12  H           1     -22.984  -5.530  -9.122  0.00  0.00     0.163 HD
BRANCH  11  13
HETATM   13  C           1     -23.173  -3.397  -9.217  0.00  0.00     0.235 C 
BRANCH  13  14
HETATM   14  C           1     -24.249  -3.658 -10.242  0.00  0.00     0.191 C 
HETATM   15  O           1     -25.414  -3.251 -10.042  0.00  0.00    -0.647 OA
HETATM   16  O           1     -23.975  -4.282 -11.290  0.00  0.00    -0.647 OA
ENDBRANCH  13  14
ENDBRANCH  11  13
ENDBRANCH   1   9
TORSDOF 6
ENDMDL
MODEL 9
REMARK VINA RESULT:      -4.3      9.361     11.045
REMARK  6 active torsions:
REMARK  status: ('A' for Active; 'I' for Inactive)
REMARK    1  A    between atoms: N_2  and  C_5 
REMARK    2  A    between atoms: O_3  and  C_4 
REMARK    3  A    between atoms: C_4  and  C_5 
REMARK    4  A    between atoms: C_5  and  C_6 
REMARK       I    between atoms: C_6  and  N_7 
REMARK    5  A    between atoms: N_7  and  C_9 
REMARK    6  A    between atoms: C_9  and  C_15 
ROOT
HETATM    1  C           1     -23.842  -4.419  -9.359  0.00  0.00     0.297 C 
ENDROOT
BRANCH   1   2
HETATM    2  N           1     -24.569  -3.156  -9.002  0.00  0.00    -0.064 N 
HETATM    3  H           1     -24.288  -2.851  -8.043  0.00  0.00     0.275 HD
HETATM    4  H           1     -24.324  -2.409  -9.691  0.00  0.00     0.275 HD
HETATM    5  H           1     -25.598  -3.328  -9.026  0.00  0.00     0.275 HD
ENDBRANCH   1   2
BRANCH   1   6
HETATM    6  C           1     -23.673  -4.497 -10.870  0.00  0.00     0.206 C 
BRANCH   6   7
HETATM    7  O           1     -22.887  -3.422 -11.310  0.00  0.00    -0.398 OA
HETATM    8  H           1     -23.402  -2.945 -11.936  0.00  0.00     0.209 HD
ENDBRANCH   6   7
ENDBRANCH   1   6
BRANCH   1   9
HETATM    9  C           1     -22.484  -4.420  -8.700  0.00  0.00     0.250 C 
HETATM   10  O           1     -21.497  -4.671  -9.350  0.00  0.00    -0.271 OA
HETATM   11  N           1     -22.371  -4.136  -7.365  0.00  0.00    -0.349 N 
HETATM   12  H           1     -23.198  -3.926  -6.821  0.00  0.00     0.163 HD
BRANCH  11  13
HETATM   13  C           1     -21.066  -4.137  -6.731  0.00  0.00     0.235 C 
BRANCH  13  14
HETATM   14  C           1     -20.843  -5.458  -6.039  0.00  0.00     0.191 C 
HETATM   15  O           1     -20.495  -6.459  -6.701  0.00  0.00    -0.647 OA
HETATM   16  O           1     -21.007  -5.552  -4.803  0.00  0.00    -0.647 OA
ENDBRANCH  13  14
ENDBRANCH  11  13
ENDBRANCH   1   9
TORSDOF 6
ENDMDL
