MODEL 1
REMARK VINA RESULT:      -7.2      0.000      0.000
REMARK  8 active torsions:
REMARK  status: ('A' for Active; 'I' for Inactive)
REMARK    1  A    between atoms: C_3  and  C_6 
REMARK    2  A    between atoms: C_6  and  C_7 
REMARK    3  A    between atoms: C_6  and  N_27 
REMARK    4  A    between atoms: C_7  and  C_11 
REMARK    5  A    between atoms: C_8  and  C_29 
REMARK    6  A    between atoms: C_8  and  C_9 
REMARK    7  A    between atoms: N_23  and  C_29 
REMARK       I    between atoms: N_27  and  C_28 
REMARK    8  A    between atoms: C_28  and  C_29 
ROOT
HETATM    1  O           1     -23.804  -6.279 -19.050  0.00  0.00    -0.271 OA
HETATM    2  H           1     -25.517  -8.169 -17.827  0.00  0.00     0.163 HD
HETATM    3  N           1     -25.587  -7.187 -18.060  0.00  0.00    -0.344 N 
HETATM    4  C           1     -24.933  -6.696 -19.157  0.00  0.00     0.249 C 
ENDROOT
BRANCH   4   5
HETATM    5  C           1     -25.621  -6.674 -20.499  0.00  0.00     0.280 C 
BRANCH   5   6
HETATM    6  C           1     -25.520  -8.050 -21.145  0.00  0.00     0.101 C 
BRANCH   6   7
HETATM    7  C           1     -24.115  -8.282 -21.609  0.00  0.00     0.028 A 
HETATM    8  C           1     -23.673  -8.073 -22.894  0.00  0.00     0.114 A 
HETATM    9  N           1     -22.347  -8.404 -22.869  0.00  0.00    -0.360 N 
HETATM   10  C           1     -22.044  -8.794 -21.595  0.00  0.00     0.180 A 
HETATM   11  H           1     -21.683  -8.367 -23.682  0.00  0.00     0.166 HD
HETATM   12  N           1     -23.095  -8.730 -20.811  0.00  0.00    -0.355 N 
ATOM     13  HN          1     -23.142  -8.963 -19.819  1.00  0.00     0.166 HD
ENDBRANCH   6   7
ENDBRANCH   5   6
BRANCH   5  14
HETATM   14  N           1     -24.961  -5.658 -21.383  0.00  0.00    -0.066 N 
HETATM   15  H           1     -24.162  -6.103 -21.889  0.00  0.00     0.275 HD
HETATM   16  H           1     -24.608  -4.867 -20.800  0.00  0.00     0.275 HD
HETATM   17  H           1     -25.654  -5.298 -22.078  0.00  0.00     0.275 HD
ENDBRANCH   5  14
ENDBRANCH   4   5
BRANCH   3  18
HETATM   18  C           1     -26.380  -6.300 -17.231  0.00  0.00     0.191 C 
BRANCH  18  19
HETATM   19  C           1     -26.217  -6.687 -15.782  0.00  0.00     0.197 C 
HETATM   20  O           1     -25.268  -6.222 -15.113  0.00  0.00    -0.646 OA
HETATM   21  O           1     -27.030  -7.472 -15.249  0.00  0.00    -0.646 OA
ENDBRANCH  18  19
BRANCH  18  22
HETATM   22  C           1     -27.847  -6.414 -17.625  0.00  0.00     0.094 C 
BRANCH  22  23
HETATM   23  C           1     -28.475  -5.055 -17.613  0.00  0.00     0.028 A 
HETATM   24  C           1     -29.598  -4.707 -18.326  0.00  0.00     0.114 A 
HETATM   25  N           1     -29.816  -3.392 -18.024  0.00  0.00    -0.360 N 
HETATM   26  H           1     -30.594  -2.791 -18.390  0.00  0.00     0.166 HD
HETATM   27  C           1     -28.835  -3.002 -17.155  0.00  0.00     0.180 A 
HETATM   28  N           1     -28.010  -3.988 -16.890  0.00  0.00    -0.354 N 
ATOM     29  HN          1     -27.196  -3.965 -16.275  1.00  0.00     0.166 HD
ENDBRANCH  22  23
ENDBRANCH  18  22
ENDBRANCH   3  18
TORSDOF 8
ENDMDL
MODEL 2
REMARK VINA RESULT:      -7.2     11.493     13.599
REMARK  8 active torsions:
REMARK  status: ('A' for Active; 'I' for Inactive)
REMARK    1  A    between atoms: C_3  and  C_6 
REMARK    2  A    between atoms: C_6  and  C_7 
REMARK    3  A    between atoms: C_6  and  N_27 
REMARK    4  A    between atoms: C_7  and  C_11 
REMARK    5  A    between atoms: C_8  and  C_29 
REMARK    6  A    between atoms: C_8  and  C_9 
REMARK    7  A    between atoms: N_23  and  C_29 
REMARK       I    between atoms: N_27  and  C_28 
REMARK    8  A    between atoms: C_28  and  C_29 
ROOT
HETATM    1  O           1     -34.674  -3.278 -13.701  0.00  0.00    -0.271 OA
HETATM    2  H           1     -34.056  -0.549 -13.278  0.00  0.00     0.163 HD
HETATM    3  N           1     -34.766  -1.182 -12.935  0.00  0.00    -0.344 N 
HETATM    4  C           1     -34.482  -2.513 -12.785  0.00  0.00     0.249 C 
ENDROOT
BRANCH   4   5
HETATM    5  C           1     -33.931  -3.024 -11.477  0.00  0.00     0.280 C 
BRANCH   5   6
HETATM    6  C           1     -35.002  -3.832 -10.756  0.00  0.00     0.101 C 
BRANCH   6   7
HETATM    7  C           1     -34.565  -5.261 -10.652  0.00  0.00     0.028 A 
HETATM    8  C           1     -33.413  -5.767 -11.205  0.00  0.00     0.114 A 
HETATM    9  N           1     -33.412  -7.093 -10.869  0.00  0.00    -0.360 N 
HETATM   10  C           1     -34.542  -7.332 -10.139  0.00  0.00     0.180 A 
HETATM   11  H           1     -32.677  -7.797 -11.125  0.00  0.00     0.166 HD
HETATM   12  N           1     -35.259  -6.242  -9.992  0.00  0.00    -0.355 N 
ATOM     13  HN          1     -36.143  -6.145  -9.493  1.00  0.00     0.166 HD
ENDBRANCH   6   7
ENDBRANCH   5   6
BRANCH   5  14
HETATM   14  N           1     -33.519  -1.864 -10.620  0.00  0.00    -0.066 N 
HETATM   15  H           1     -33.810  -0.971 -11.079  0.00  0.00     0.275 HD
HETATM   16  H           1     -32.482  -1.872 -10.499  0.00  0.00     0.275 HD
HETATM   17  H           1     -33.982  -1.941  -9.686  0.00  0.00     0.275 HD
ENDBRANCH   5  14
ENDBRANCH   4   5
BRANCH   3  18
HETATM   18  C           1     -36.085  -0.681 -12.601  0.00  0.00     0.191 C 
BRANCH  18  19
HETATM   19  C           1     -36.837  -0.362 -13.870  0.00  0.00     0.197 C 
HETATM   20  O           1     -38.009  -0.770 -14.021  0.00  0.00    -0.646 OA
HETATM   21  O           1     -36.289   0.308 -14.771  0.00  0.00    -0.646 OA
ENDBRANCH  18  19
BRANCH  18  22
HETATM   22  C           1     -35.950   0.583 -11.761  0.00  0.00     0.094 C 
BRANCH  22  23
HETATM   23  C           1     -36.490   0.329 -10.388  0.00  0.00     0.028 A 
HETATM   24  C           1     -37.019  -0.868  -9.965  0.00  0.00     0.114 A 
HETATM   25  N           1     -37.383  -0.654  -8.665  0.00  0.00    -0.360 N 
HETATM   26  H           1     -37.825  -1.354  -8.020  0.00  0.00     0.166 HD
HETATM   27  C           1     -37.065   0.639  -8.356  0.00  0.00     0.180 A 
HETATM   28  N           1     -36.523   1.257  -9.380  0.00  0.00    -0.354 N 
ATOM     29  HN          1     -36.197   2.223  -9.417  1.00  0.00     0.166 HD
ENDBRANCH  22  23
ENDBRANCH  18  22
ENDBRANCH   3  18
TORSDOF 8
ENDMDL
MODEL 3
REMARK VINA RESULT:      -7.0      1.982      6.797
REMARK  8 active torsions:
REMARK  status: ('A' for Active; 'I' for Inactive)
REMARK    1  A    between atoms: C_3  and  C_6 
REMARK    2  A    between atoms: C_6  and  C_7 
REMARK    3  A    between atoms: C_6  and  N_27 
REMARK    4  A    between atoms: C_7  and  C_11 
REMARK    5  A    between atoms: C_8  and  C_29 
REMARK    6  A    between atoms: C_8  and  C_9 
REMARK    7  A    between atoms: N_23  and  C_29 
REMARK       I    between atoms: N_27  and  C_28 
REMARK    8  A    between atoms: C_28  and  C_29 
ROOT
HETATM    1  O           1     -28.424  -6.604 -15.389  0.00  0.00    -0.271 OA
HETATM    2  H           1     -26.725  -4.948 -16.933  0.00  0.00     0.163 HD
HETATM    3  N           1     -26.941  -5.937 -16.920  0.00  0.00    -0.344 N 
HETATM    4  C           1     -28.188  -6.360 -16.549  0.00  0.00     0.249 C 
ENDROOT
BRANCH   4   5
HETATM    5  C           1     -29.269  -6.525 -17.589  0.00  0.00     0.280 C 
BRANCH   5   6
HETATM    6  C           1     -30.635  -6.464 -16.916  0.00  0.00     0.101 C 
BRANCH   6   7
HETATM    7  C           1     -31.250  -5.120 -17.155  0.00  0.00     0.028 A 
HETATM    8  C           1     -30.577  -4.031 -17.657  0.00  0.00     0.114 A 
HETATM    9  N           1     -31.510  -3.033 -17.711  0.00  0.00    -0.360 N 
HETATM   10  C           1     -32.688  -3.546 -17.248  0.00  0.00     0.180 A 
HETATM   11  H           1     -31.348  -2.050 -18.046  0.00  0.00     0.166 HD
HETATM   12  N           1     -32.560  -4.807 -16.904  0.00  0.00    -0.355 N 
ATOM     13  HN          1     -33.283  -5.423 -16.531  1.00  0.00     0.166 HD
ENDBRANCH   6   7
ENDBRANCH   5   6
BRANCH   5  14
HETATM   14  N           1     -29.108  -7.850 -18.272  0.00  0.00    -0.066 N 
HETATM   15  H           1     -29.472  -8.609 -17.652  0.00  0.00     0.275 HD
HETATM   16  H           1     -28.096  -8.018 -18.471  0.00  0.00     0.275 HD
HETATM   17  H           1     -29.645  -7.847 -19.169  0.00  0.00     0.275 HD
ENDBRANCH   5  14
ENDBRANCH   4   5
BRANCH   3  18
HETATM   18  C           1     -25.928  -6.905 -17.293  0.00  0.00     0.191 C 
BRANCH  18  19
HETATM   19  C           1     -25.063  -7.214 -16.096  0.00  0.00     0.197 C 
HETATM   20  O           1     -24.316  -8.216 -16.106  0.00  0.00    -0.646 OA
HETATM   21  O           1     -25.093  -6.469 -15.094  0.00  0.00    -0.646 OA
ENDBRANCH  18  19
BRANCH  18  22
HETATM   22  C           1     -25.064  -6.331 -18.409  0.00  0.00     0.094 C 
BRANCH  22  23
HETATM   23  C           1     -25.226  -7.162 -19.643  0.00  0.00     0.028 A 
HETATM   24  C           1     -24.189  -7.745 -20.333  0.00  0.00     0.114 A 
HETATM   25  N           1     -24.782  -8.400 -21.377  0.00  0.00    -0.360 N 
HETATM   26  H           1     -24.293  -8.961 -22.117  0.00  0.00     0.166 HD
HETATM   27  C           1     -26.129  -8.192 -21.279  0.00  0.00     0.180 A 
HETATM   28  N           1     -26.426  -7.447 -20.240  0.00  0.00    -0.354 N 
ATOM     29  HN          1     -27.353  -7.144 -19.941  1.00  0.00     0.166 HD
ENDBRANCH  22  23
ENDBRANCH  18  22
ENDBRANCH   3  18
TORSDOF 8
ENDMDL
MODEL 4
REMARK VINA RESULT:      -7.0     11.438     13.309
REMARK  8 active torsions:
REMARK  status: ('A' for Active; 'I' for Inactive)
REMARK    1  A    between atoms: C_3  and  C_6 
REMARK    2  A    between atoms: C_6  and  C_7 
REMARK    3  A    between atoms: C_6  and  N_27 
REMARK    4  A    between atoms: C_7  and  C_11 
REMARK    5  A    between atoms: C_8  and  C_29 
REMARK    6  A    between atoms: C_8  and  C_9 
REMARK    7  A    between atoms: N_23  and  C_29 
REMARK       I    between atoms: N_27  and  C_28 
REMARK    8  A    between atoms: C_28  and  C_29 
ROOT
HETATM    1  O           1     -33.368  -1.736 -10.419  0.00  0.00    -0.271 OA
HETATM    2  H           1     -36.102  -1.847  -9.693  0.00  0.00     0.163 HD
HETATM    3  N           1     -35.587  -1.490 -10.488  0.00  0.00    -0.344 N 
HETATM    4  C           1     -34.425  -2.098 -10.881  0.00  0.00     0.249 C 
ENDROOT
BRANCH   4   5
HETATM    5  C           1     -34.463  -3.219 -11.889  0.00  0.00     0.280 C 
BRANCH   5   6
HETATM    6  C           1     -33.310  -4.179 -11.625  0.00  0.00     0.101 C 
BRANCH   6   7
HETATM    7  C           1     -33.836  -5.428 -10.987  0.00  0.00     0.028 A 
HETATM    8  C           1     -34.898  -5.472 -10.115  0.00  0.00     0.114 A 
HETATM    9  N           1     -35.031  -6.793  -9.787  0.00  0.00    -0.360 N 
HETATM   10  C           1     -34.063  -7.483 -10.460  0.00  0.00     0.180 A 
HETATM   11  H           1     -35.747  -7.201  -9.135  0.00  0.00     0.166 HD
HETATM   12  N           1     -33.325  -6.683 -11.194  0.00  0.00    -0.355 N 
ATOM     13  HN          1     -32.539  -6.940 -11.791  1.00  0.00     0.166 HD
ENDBRANCH   6   7
ENDBRANCH   5   6
BRANCH   5  14
HETATM   14  N           1     -34.334  -2.652 -13.272  0.00  0.00    -0.066 N 
HETATM   15  H           1     -33.903  -3.366 -13.902  0.00  0.00     0.275 HD
HETATM   16  H           1     -33.730  -1.801 -13.243  0.00  0.00     0.275 HD
HETATM   17  H           1     -35.282  -2.397 -13.632  0.00  0.00     0.275 HD
ENDBRANCH   5  14
ENDBRANCH   4   5
BRANCH   3  18
HETATM   18  C           1     -36.081  -0.335 -11.212  0.00  0.00     0.191 C 
BRANCH  18  19
HETATM   19  C           1     -36.870   0.546 -10.274  0.00  0.00     0.197 C 
HETATM   20  O           1     -36.320   1.035  -9.265  0.00  0.00    -0.646 OA
HETATM   21  O           1     -38.074   0.786 -10.507  0.00  0.00    -0.646 OA
ENDBRANCH  18  19
BRANCH  18  22
HETATM   22  C           1     -36.979  -0.796 -12.352  0.00  0.00     0.094 C 
BRANCH  22  23
HETATM   23  C           1     -36.612  -0.064 -13.605  0.00  0.00     0.028 A 
HETATM   24  C           1     -37.410   0.023 -14.722  0.00  0.00     0.114 A 
HETATM   25  N           1     -36.693   0.773 -15.612  0.00  0.00    -0.360 N 
HETATM   26  H           1     -36.995   1.045 -16.580  0.00  0.00     0.166 HD
HETATM   27  C           1     -35.512   1.106 -15.010  0.00  0.00     0.180 A 
HETATM   28  N           1     -35.436   0.614 -13.797  0.00  0.00    -0.354 N 
ATOM     29  HN          1     -34.665   0.713 -13.135  1.00  0.00     0.166 HD
ENDBRANCH  22  23
ENDBRANCH  18  22
ENDBRANCH   3  18
TORSDOF 8
ENDMDL
MODEL 5
REMARK VINA RESULT:      -6.7      3.090      6.698
REMARK  8 active torsions:
REMARK  status: ('A' for Active; 'I' for Inactive)
REMARK    1  A    between atoms: C_3  and  C_6 
REMARK    2  A    between atoms: C_6  and  C_7 
REMARK    3  A    between atoms: C_6  and  N_27 
REMARK    4  A    between atoms: C_7  and  C_11 
REMARK    5  A    between atoms: C_8  and  C_29 
REMARK    6  A    between atoms: C_8  and  C_9 
REMARK    7  A    between atoms: N_23  and  C_29 
REMARK       I    between atoms: N_27  and  C_28 
REMARK    8  A    between atoms: C_28  and  C_29 
ROOT
HETATM    1  O           1     -30.135  -8.750 -18.989  0.00  0.00    -0.271 OA
HETATM    2  H           1     -27.478  -8.011 -18.349  0.00  0.00     0.163 HD
HETATM    3  N           1     -28.158  -7.710 -19.035  0.00  0.00    -0.344 N 
HETATM    4  C           1     -29.494  -7.755 -18.740  0.00  0.00     0.249 C 
ENDROOT
BRANCH   4   5
HETATM    5  C           1     -30.168  -6.564 -18.104  0.00  0.00     0.280 C 
BRANCH   5   6
HETATM    6  C           1     -29.210  -5.903 -17.121  0.00  0.00     0.101 C 
BRANCH   6   7
HETATM    7  C           1     -29.352  -4.415 -17.208  0.00  0.00     0.028 A 
HETATM    8  C           1     -30.506  -3.761 -17.568  0.00  0.00     0.114 A 
HETATM    9  N           1     -30.190  -2.431 -17.514  0.00  0.00    -0.360 N 
HETATM   10  C           1     -28.882  -2.335 -17.131  0.00  0.00     0.180 A 
HETATM   11  H           1     -30.836  -1.631 -17.729  0.00  0.00     0.166 HD
HETATM   12  N           1     -28.350  -3.520 -16.939  0.00  0.00    -0.355 N 
ATOM     13  HN          1     -27.394  -3.730 -16.651  1.00  0.00     0.166 HD
ENDBRANCH   6   7
ENDBRANCH   5   6
BRANCH   5  14
HETATM   14  N           1     -31.399  -7.016 -17.376  0.00  0.00    -0.066 N 
HETATM   15  H           1     -31.620  -8.001 -17.644  0.00  0.00     0.275 HD
HETATM   16  H           1     -32.200  -6.396 -17.630  0.00  0.00     0.275 HD
HETATM   17  H           1     -31.231  -6.965 -16.345  0.00  0.00     0.275 HD
ENDBRANCH   5  14
ENDBRANCH   4   5
BRANCH   3  18
HETATM   18  C           1     -27.719  -7.229 -20.331  0.00  0.00     0.191 C 
BRANCH  18  19
HETATM   19  C           1     -27.244  -8.395 -21.163  0.00  0.00     0.197 C 
HETATM   20  O           1     -28.036  -9.314 -21.462  0.00  0.00    -0.646 OA
HETATM   21  O           1     -26.058  -8.441 -21.555  0.00  0.00    -0.646 OA
ENDBRANCH  18  19
BRANCH  18  22
HETATM   22  C           1     -26.576  -6.240 -20.144  0.00  0.00     0.094 C 
BRANCH  22  23
HETATM   23  C           1     -25.744  -6.654 -18.970  0.00  0.00     0.028 A 
HETATM   24  C           1     -24.504  -7.242 -19.061  0.00  0.00     0.114 A 
HETATM   25  N           1     -24.114  -7.448 -17.767  0.00  0.00    -0.360 N 
HETATM   26  H           1     -23.212  -7.881 -17.450  0.00  0.00     0.166 HD
HETATM   27  C           1     -25.115  -6.984 -16.958  0.00  0.00     0.180 A 
HETATM   28  N           1     -26.112  -6.499 -17.659  0.00  0.00    -0.354 N 
ATOM     29  HN          1     -26.978  -6.093 -17.304  1.00  0.00     0.166 HD
ENDBRANCH  22  23
ENDBRANCH  18  22
ENDBRANCH   3  18
TORSDOF 8
ENDMDL
MODEL 6
REMARK VINA RESULT:      -6.5     12.099     15.080
REMARK  8 active torsions:
REMARK  status: ('A' for Active; 'I' for Inactive)
REMARK    1  A    between atoms: C_3  and  C_6 
REMARK    2  A    between atoms: C_6  and  C_7 
REMARK    3  A    between atoms: C_6  and  N_27 
REMARK    4  A    between atoms: C_7  and  C_11 
REMARK    5  A    between atoms: C_8  and  C_29 
REMARK    6  A    between atoms: C_8  and  C_9 
REMARK    7  A    between atoms: N_23  and  C_29 
REMARK       I    between atoms: N_27  and  C_28 
REMARK    8  A    between atoms: C_28  and  C_29 
ROOT
HETATM    1  O           1     -20.715  -5.559  -3.984  0.00  0.00    -0.271 OA
HETATM    2  H           1     -23.071  -5.071  -5.473  0.00  0.00     0.163 HD
HETATM    3  N           1     -22.164  -5.468  -5.681  0.00  0.00    -0.344 N 
HETATM    4  C           1     -21.477  -6.150  -4.713  0.00  0.00     0.249 C 
ENDROOT
BRANCH   4   5
HETATM    5  C           1     -21.671  -7.637  -4.556  0.00  0.00     0.280 C 
BRANCH   5   6
HETATM    6  C           1     -20.763  -8.154  -3.447  0.00  0.00     0.101 C 
BRANCH   6   7
HETATM    7  C           1     -21.522  -8.192  -2.157  0.00  0.00     0.028 A 
HETATM    8  C           1     -21.941  -9.342  -1.531  0.00  0.00     0.114 A 
HETATM    9  N           1     -22.583  -8.916  -0.402  0.00  0.00    -0.360 N 
HETATM   10  C           1     -22.529  -7.551  -0.388  0.00  0.00     0.180 A 
HETATM   11  H           1     -23.036  -9.528   0.323  0.00  0.00     0.166 HD
HETATM   12  N           1     -21.893  -7.086  -1.438  0.00  0.00    -0.355 N 
ATOM     13  HN          1     -21.712  -6.109  -1.670  1.00  0.00     0.166 HD
ENDBRANCH   6   7
ENDBRANCH   5   6
BRANCH   5  14
HETATM   14  N           1     -21.328  -8.325  -5.844  0.00  0.00    -0.066 N 
HETATM   15  H           1     -21.896  -7.916  -6.620  0.00  0.00     0.275 HD
HETATM   16  H           1     -21.535  -9.345  -5.760  0.00  0.00     0.275 HD
HETATM   17  H           1     -20.312  -8.190  -6.049  0.00  0.00     0.275 HD
ENDBRANCH   5  14
ENDBRANCH   4   5
BRANCH   3  18
HETATM   18  C           1     -21.591  -5.315  -7.004  0.00  0.00     0.191 C 
BRANCH  18  19
HETATM   19  C           1     -20.092  -5.468  -6.922  0.00  0.00     0.197 C 
HETATM   20  O           1     -19.377  -4.482  -6.640  0.00  0.00    -0.646 OA
HETATM   21  O           1     -19.564  -6.580  -7.137  0.00  0.00    -0.646 OA
ENDBRANCH  18  19
BRANCH  18  22
HETATM   22  C           1     -21.931  -3.933  -7.547  0.00  0.00     0.094 C 
BRANCH  22  23
HETATM   23  C           1     -22.875  -4.069  -8.701  0.00  0.00     0.028 A 
HETATM   24  C           1     -22.564  -4.668  -9.899  0.00  0.00     0.114 A 
HETATM   25  N           1     -23.702  -4.570 -10.650  0.00  0.00    -0.360 N 
HETATM   26  H           1     -23.832  -4.925 -11.630  0.00  0.00     0.166 HD
HETATM   27  C           1     -24.641  -3.929  -9.892  0.00  0.00     0.180 A 
HETATM   28  N           1     -24.168  -3.614  -8.709  0.00  0.00    -0.354 N 
ATOM     29  HN          1     -24.659  -3.132  -7.955  1.00  0.00     0.166 HD
ENDBRANCH  22  23
ENDBRANCH  18  22
ENDBRANCH   3  18
TORSDOF 8
ENDMDL
MODEL 7
REMARK VINA RESULT:      -6.4     12.686     15.496
REMARK  8 active torsions:
REMARK  status: ('A' for Active; 'I' for Inactive)
REMARK    1  A    between atoms: C_3  and  C_6 
REMARK    2  A    between atoms: C_6  and  C_7 
REMARK    3  A    between atoms: C_6  and  N_27 
REMARK    4  A    between atoms: C_7  and  C_11 
REMARK    5  A    between atoms: C_8  and  C_29 
REMARK    6  A    between atoms: C_8  and  C_9 
REMARK    7  A    between atoms: N_23  and  C_29 
REMARK       I    between atoms: N_27  and  C_28 
REMARK    8  A    between atoms: C_28  and  C_29 
ROOT
HETATM    1  O           1     -22.908  -6.034  -5.125  0.00  0.00    -0.271 OA
HETATM    2  H           1     -21.517  -5.433  -2.735  0.00  0.00     0.163 HD
HETATM    3  N           1     -21.602  -6.250  -3.326  0.00  0.00    -0.344 N 
HETATM    4  C           1     -21.788  -6.102  -4.674  0.00  0.00     0.249 C 
ENDROOT
BRANCH   4   5
HETATM    5  C           1     -20.597  -6.026  -5.597  0.00  0.00     0.280 C 
BRANCH   5   6
HETATM    6  C           1     -20.348  -4.575  -5.986  0.00  0.00     0.101 C 
BRANCH   6   7
HETATM    7  C           1     -21.032  -4.282  -7.286  0.00  0.00     0.028 A 
HETATM    8  C           1     -20.410  -4.272  -8.511  0.00  0.00     0.114 A 
HETATM    9  N           1     -21.396  -3.964  -9.407  0.00  0.00    -0.360 N 
HETATM   10  C           1     -22.555  -3.802  -8.702  0.00  0.00     0.180 A 
HETATM   11  H           1     -21.282  -3.868 -10.446  0.00  0.00     0.166 HD
HETATM   12  N           1     -22.365  -3.988  -7.416  0.00  0.00    -0.355 N 
ATOM     13  HN          1     -23.060  -3.928  -6.672  1.00  0.00     0.166 HD
ENDBRANCH   6   7
ENDBRANCH   5   6
BRANCH   5  14
HETATM   14  N           1     -20.868  -6.835  -6.830  0.00  0.00    -0.066 N 
HETATM   15  H           1     -21.212  -7.783  -6.557  0.00  0.00     0.275 HD
HETATM   16  H           1     -19.988  -6.929  -7.385  0.00  0.00     0.275 HD
HETATM   17  H           1     -21.596  -6.355  -7.407  0.00  0.00     0.275 HD
ENDBRANCH   5  14
ENDBRANCH   4   5
BRANCH   3  18
HETATM   18  C           1     -21.527  -7.577  -2.746  0.00  0.00     0.191 C 
BRANCH  18  19
HETATM   19  C           1     -21.827  -7.497  -1.269  0.00  0.00     0.197 C 
HETATM   20  O           1     -22.722  -6.729  -0.853  0.00  0.00    -0.646 OA
HETATM   21  O           1     -21.182  -8.198  -0.461  0.00  0.00    -0.646 OA
ENDBRANCH  18  19
BRANCH  18  22
HETATM   22  C           1     -20.127  -8.141  -2.950  0.00  0.00     0.094 C 
BRANCH  22  23
HETATM   23  C           1     -20.146  -9.132  -4.072  0.00  0.00     0.028 A 
HETATM   24  C           1     -19.073  -9.413  -4.884  0.00  0.00     0.114 A 
HETATM   25  N           1     -19.528 -10.361  -5.757  0.00  0.00    -0.360 N 
HETATM   26  H           1     -18.976 -10.814  -6.526  0.00  0.00     0.166 HD
HETATM   27  C           1     -20.835 -10.613  -5.445  0.00  0.00     0.180 A 
HETATM   28  N           1     -21.235  -9.883  -4.430  0.00  0.00    -0.354 N 
ATOM     29  HN          1     -22.160  -9.877  -3.999  1.00  0.00     0.166 HD
ENDBRANCH  22  23
ENDBRANCH  18  22
ENDBRANCH   3  18
TORSDOF 8
ENDMDL
MODEL 8
REMARK VINA RESULT:      -6.4     11.531     14.195
REMARK  8 active torsions:
REMARK  status: ('A' for Active; 'I' for Inactive)
REMARK    1  A    between atoms: C_3  and  C_6 
REMARK    2  A    between atoms: C_6  and  C_7 
REMARK    3  A    between atoms: C_6  and  N_27 
REMARK    4  A    between atoms: C_7  and  C_11 
REMARK    5  A    between atoms: C_8  and  C_29 
REMARK    6  A    between atoms: C_8  and  C_9 
REMARK    7  A    between atoms: N_23  and  C_29 
REMARK       I    between atoms: N_27  and  C_28 
REMARK    8  A    between atoms: C_28  and  C_29 
ROOT
HETATM    1  O           1     -19.002  -4.827  -7.188  0.00  0.00    -0.271 OA
HETATM    2  H           1     -19.915  -7.479  -7.565  0.00  0.00     0.163 HD
HETATM    3  N           1     -20.035  -6.777  -6.846  0.00  0.00    -0.344 N 
HETATM    4  C           1     -20.038  -5.450  -7.179  0.00  0.00     0.249 C 
ENDROOT
BRANCH   4   5
HETATM    5  C           1     -21.334  -4.763  -7.533  0.00  0.00     0.280 C 
BRANCH   5   6
HETATM    6  C           1     -21.379  -4.507  -9.034  0.00  0.00     0.101 C 
BRANCH   6   7
HETATM    7  C           1     -22.789  -4.219  -9.449  0.00  0.00     0.028 A 
HETATM    8  C           1     -23.261  -4.322 -10.736  0.00  0.00     0.114 A 
HETATM    9  N           1     -24.580  -3.972 -10.658  0.00  0.00    -0.360 N 
HETATM   10  C           1     -24.851  -3.678  -9.352  0.00  0.00     0.180 A 
HETATM   11  H           1     -25.261  -3.937 -11.457  0.00  0.00     0.166 HD
HETATM   12  N           1     -23.785  -3.818  -8.597  0.00  0.00    -0.355 N 
ATOM     13  HN          1     -23.714  -3.663  -7.591  1.00  0.00     0.166 HD
ENDBRANCH   6   7
ENDBRANCH   5   6
BRANCH   5  14
HETATM   14  N           1     -21.424  -3.457  -6.801  0.00  0.00    -0.066 N 
HETATM   15  H           1     -20.753  -3.460  -5.999  0.00  0.00     0.275 HD
HETATM   16  H           1     -22.396  -3.326  -6.442  0.00  0.00     0.275 HD
HETATM   17  H           1     -21.182  -2.676  -7.452  0.00  0.00     0.275 HD
ENDBRANCH   5  14
ENDBRANCH   4   5
BRANCH   3  18
HETATM   18  C           1     -20.203  -7.177  -5.462  0.00  0.00     0.191 C 
BRANCH  18  19
HETATM   19  C           1     -19.709  -8.593  -5.285  0.00  0.00     0.197 C 
HETATM   20  O           1     -20.352  -9.545  -5.776  0.00  0.00    -0.646 OA
HETATM   21  O           1     -18.657  -8.812  -4.648  0.00  0.00    -0.646 OA
ENDBRANCH  18  19
BRANCH  18  22
HETATM   22  C           1     -21.678  -7.104  -5.089  0.00  0.00     0.094 C 
BRANCH  22  23
HETATM   23  C           1     -21.814  -7.041  -3.599  0.00  0.00     0.028 A 
HETATM   24  C           1     -21.528  -8.079  -2.744  0.00  0.00     0.114 A 
HETATM   25  N           1     -21.789  -7.590  -1.494  0.00  0.00    -0.360 N 
HETATM   26  H           1     -21.682  -8.110  -0.589  0.00  0.00     0.166 HD
HETATM   27  C           1     -22.214  -6.299  -1.639  0.00  0.00     0.180 A 
HETATM   28  N           1     -22.239  -5.941  -2.901  0.00  0.00    -0.354 N 
ATOM     29  HN          1     -22.515  -5.035  -3.282  1.00  0.00     0.166 HD
ENDBRANCH  22  23
ENDBRANCH  18  22
ENDBRANCH   3  18
TORSDOF 8
ENDMDL
MODEL 9
REMARK VINA RESULT:      -6.1     11.653     14.609
REMARK  8 active torsions:
REMARK  status: ('A' for Active; 'I' for Inactive)
REMARK    1  A    between atoms: C_3  and  C_6 
REMARK    2  A    between atoms: C_6  and  C_7 
REMARK    3  A    between atoms: C_6  and  N_27 
REMARK    4  A    between atoms: C_7  and  C_11 
REMARK    5  A    between atoms: C_8  and  C_29 
REMARK    6  A    between atoms: C_8  and  C_9 
REMARK    7  A    between atoms: N_23  and  C_29 
REMARK       I    between atoms: N_27  and  C_28 
REMARK    8  A    between atoms: C_28  and  C_29 
ROOT
HETATM    1  O           1     -19.855  -7.528  -6.225  0.00  0.00    -0.271 OA
HETATM    2  H           1     -19.702  -4.703  -6.300  0.00  0.00     0.163 HD
HETATM    3  N           1     -20.341  -5.394  -6.671  0.00  0.00    -0.344 N 
HETATM    4  C           1     -20.550  -6.566  -5.995  0.00  0.00     0.249 C 
ENDROOT
BRANCH   4   5
HETATM    5  C           1     -21.647  -6.657  -4.964  0.00  0.00     0.280 C 
BRANCH   5   6
HETATM    6  C           1     -21.249  -5.863  -3.726  0.00  0.00     0.101 C 
BRANCH   6   7
HETATM    7  C           1     -21.371  -6.733  -2.514  0.00  0.00     0.028 A 
HETATM    8  C           1     -22.367  -6.626  -1.573  0.00  0.00     0.114 A 
HETATM    9  N           1     -22.094  -7.603  -0.656  0.00  0.00    -0.360 N 
HETATM   10  C           1     -20.965  -8.250  -1.070  0.00  0.00     0.180 A 
HETATM   11  H           1     -22.651  -7.815   0.209  0.00  0.00     0.166 HD
HETATM   12  N           1     -20.505  -7.745  -2.191  0.00  0.00    -0.355 N 
ATOM     13  HN          1     -19.680  -8.043  -2.712  1.00  0.00     0.166 HD
ENDBRANCH   6   7
ENDBRANCH   5   6
BRANCH   5  14
HETATM   14  N           1     -21.861  -8.094  -4.588  0.00  0.00    -0.066 N 
HETATM   15  H           1     -21.770  -8.694  -5.438  0.00  0.00     0.275 HD
HETATM   16  H           1     -22.816  -8.208  -4.181  0.00  0.00     0.275 HD
HETATM   17  H           1     -21.144  -8.379  -3.883  0.00  0.00     0.275 HD
ENDBRANCH   5  14
ENDBRANCH   4   5
BRANCH   3  18
HETATM   18  C           1     -21.036  -5.144  -7.918  0.00  0.00     0.191 C 
BRANCH  18  19
HETATM   19  C           1     -20.104  -4.448  -8.881  0.00  0.00     0.197 C 
HETATM   20  O           1     -19.442  -3.457  -8.505  0.00  0.00    -0.646 OA
HETATM   21  O           1     -19.994  -4.863 -10.055  0.00  0.00    -0.646 OA
ENDBRANCH  18  19
BRANCH  18  22
HETATM   22  C           1     -22.247  -4.258  -7.655  0.00  0.00     0.094 C 
BRANCH  22  23
HETATM   23  C           1     -23.123  -4.238  -8.869  0.00  0.00     0.028 A 
HETATM   24  C           1     -24.194  -3.393  -9.045  0.00  0.00     0.114 A 
HETATM   25  N           1     -24.699  -3.713 -10.274  0.00  0.00    -0.360 N 
HETATM   26  H           1     -25.527  -3.267 -10.741  0.00  0.00     0.166 HD
HETATM   27  C           1     -23.928  -4.719 -10.785  0.00  0.00     0.180 A 
HETATM   28  N           1     -22.968  -5.057  -9.957  0.00  0.00    -0.354 N 
ATOM     29  HN          1     -22.258  -5.776 -10.093  1.00  0.00     0.166 HD
ENDBRANCH  22  23
ENDBRANCH  18  22
ENDBRANCH   3  18
TORSDOF 8
ENDMDL
