MODEL 1
REMARK VINA RESULT:      -6.6      0.000      0.000
REMARK  9 active torsions:
REMARK  status: ('A' for Active; 'I' for Inactive)
REMARK    1  A    between atoms: C_2  and  C_4 
REMARK    2  A    between atoms: C_4  and  C_5 
REMARK    3  A    between atoms: C_4  and  N_8 
REMARK       I    between atoms: N_8  and  C_9 
REMARK    4  A    between atoms: C_9  and  C_10 
REMARK    5  A    between atoms: C_10  and  C_11 
REMARK    6  A    between atoms: C_10  and  N_17 
REMARK    7  A    between atoms: C_11  and  O_12 
REMARK    8  A    between atoms: O_12  and  P_13 
REMARK    9  A    between atoms: P_13  and  O_14 
ROOT
HETATM    1  C           1     -34.493  -2.472 -11.945  0.00  0.00     0.298 C 
ENDROOT
BRANCH   1   2
HETATM    2  C           1     -35.348  -1.638 -12.867  0.00  0.00     0.251 C 
HETATM    3  N           1     -34.857  -1.236 -14.080  0.00  0.00    -0.344 N 
HETATM    4  H           1     -33.921  -1.500 -14.359  0.00  0.00     0.163 HD
HETATM    5  O           1     -36.466  -1.322 -12.533  0.00  0.00    -0.271 OA
BRANCH   3   6
HETATM    6  C           1     -35.679  -0.434 -14.965  0.00  0.00     0.189 C 
BRANCH   6   7
HETATM    7  C           1     -35.059   0.949 -15.118  0.00  0.00     0.010 C 
HETATM    8  C           1     -36.085   1.901 -15.718  0.00  0.00     0.012 C 
HETATM    9  C           1     -34.626   1.464 -13.751  0.00  0.00     0.012 C 
ENDBRANCH   6   7
BRANCH   6  10
HETATM   10  C           1     -35.761  -1.101 -16.317  0.00  0.00     0.197 C 
HETATM   11  O           1     -34.823  -1.824 -16.715  0.00  0.00    -0.646 OA
HETATM   12  O           1     -36.768  -0.929 -17.038  0.00  0.00    -0.646 OA
ENDBRANCH   6  10
ENDBRANCH   3   6
ENDBRANCH   1   2
BRANCH   1  13
HETATM   13  C           1     -35.363  -3.501 -11.237  0.00  0.00     0.224 C 
BRANCH  13  14
HETATM   14  O           1     -34.550  -4.369 -10.494  0.00  0.00    -0.287 OA
BRANCH  14  15
HETATM   15  P           1     -34.351  -5.851 -11.107  0.00  0.00     0.406 P 
HETATM   16  O           1     -35.136  -5.975 -12.356  0.00  0.00    -0.624 OA
HETATM   17  O           1     -34.819  -6.856 -10.127  0.00  0.00    -0.624 OA
BRANCH  15  18
HETATM   18  O           1     -32.788  -6.097 -11.427  0.00  0.00    -0.300 OA
HETATM   19  H           1     -32.738  -6.988 -11.728  0.00  0.00     0.223 HD
ENDBRANCH  15  18
ENDBRANCH  14  15
ENDBRANCH  13  14
ENDBRANCH   1  13
BRANCH   1  20
HETATM   20  N           1     -33.841  -1.584 -10.928  0.00  0.00    -0.064 N 
HETATM   21  H           1     -33.302  -0.832 -11.414  0.00  0.00     0.275 HD
HETATM   22  H           1     -34.574  -1.151 -10.323  0.00  0.00     0.275 HD
HETATM   23  H           1     -33.191  -2.151 -10.337  0.00  0.00     0.275 HD
ENDBRANCH   1  20
TORSDOF 9
ENDMDL
MODEL 2
REMARK VINA RESULT:      -6.3      2.659      4.248
REMARK  9 active torsions:
REMARK  status: ('A' for Active; 'I' for Inactive)
REMARK    1  A    between atoms: C_2  and  C_4 
REMARK    2  A    between atoms: C_4  and  C_5 
REMARK    3  A    between atoms: C_4  and  N_8 
REMARK       I    between atoms: N_8  and  C_9 
REMARK    4  A    between atoms: C_9  and  C_10 
REMARK    5  A    between atoms: C_10  and  C_11 
REMARK    6  A    between atoms: C_10  and  N_17 
REMARK    7  A    between atoms: C_11  and  O_12 
REMARK    8  A    between atoms: O_12  and  P_13 
REMARK    9  A    between atoms: P_13  and  O_14 
ROOT
HETATM    1  C           1     -33.717  -3.791 -11.679  0.00  0.00     0.298 C 
ENDROOT
BRANCH   1   2
HETATM    2  C           1     -34.066  -2.346 -11.421  0.00  0.00     0.251 C 
HETATM    3  N           1     -35.116  -1.766 -12.080  0.00  0.00    -0.344 N 
HETATM    4  H           1     -35.660  -2.307 -12.739  0.00  0.00     0.163 HD
HETATM    5  O           1     -33.415  -1.699 -10.634  0.00  0.00    -0.271 OA
BRANCH   3   6
HETATM    6  C           1     -35.450  -0.377 -11.832  0.00  0.00     0.189 C 
BRANCH   6   7
HETATM    7  C           1     -35.781   0.308 -13.152  0.00  0.00     0.010 C 
HETATM    8  C           1     -34.553   1.054 -13.658  0.00  0.00     0.012 C 
HETATM    9  C           1     -36.197  -0.740 -14.176  0.00  0.00     0.012 C 
ENDBRANCH   6   7
BRANCH   6  10
HETATM   10  C           1     -36.645  -0.304 -10.913  0.00  0.00     0.197 C 
HETATM   11  O           1     -37.617  -1.068 -11.090  0.00  0.00    -0.646 OA
HETATM   12  O           1     -36.660   0.522  -9.974  0.00  0.00    -0.646 OA
ENDBRANCH   6  10
ENDBRANCH   3   6
ENDBRANCH   1   2
BRANCH   1  13
HETATM   13  C           1     -34.360  -4.244 -12.983  0.00  0.00     0.224 C 
BRANCH  13  14
HETATM   14  O           1     -33.936  -3.410 -14.028  0.00  0.00    -0.287 OA
BRANCH  14  15
HETATM   15  P           1     -34.130  -3.993 -15.521  0.00  0.00     0.406 P 
HETATM   16  O           1     -32.803  -4.257 -16.122  0.00  0.00    -0.624 OA
HETATM   17  O           1     -34.858  -3.004 -16.346  0.00  0.00    -0.624 OA
BRANCH  15  18
HETATM   18  O           1     -34.974  -5.368 -15.459  0.00  0.00    -0.300 OA
HETATM   19  H           1     -34.535  -5.895 -14.814  0.00  0.00     0.223 HD
ENDBRANCH  15  18
ENDBRANCH  14  15
ENDBRANCH  13  14
ENDBRANCH   1  13
BRANCH   1  20
HETATM   20  N           1     -34.227  -4.638 -10.551  0.00  0.00    -0.064 N 
HETATM   21  H           1     -34.949  -5.301 -10.910  0.00  0.00     0.275 HD
HETATM   22  H           1     -33.434  -5.177 -10.136  0.00  0.00     0.275 HD
HETATM   23  H           1     -34.651  -4.023  -9.819  0.00  0.00     0.275 HD
ENDBRANCH   1  20
TORSDOF 9
ENDMDL
MODEL 3
REMARK VINA RESULT:      -6.3     12.963     14.712
REMARK  9 active torsions:
REMARK  status: ('A' for Active; 'I' for Inactive)
REMARK    1  A    between atoms: C_2  and  C_4 
REMARK    2  A    between atoms: C_4  and  C_5 
REMARK    3  A    between atoms: C_4  and  N_8 
REMARK       I    between atoms: N_8  and  C_9 
REMARK    4  A    between atoms: C_9  and  C_10 
REMARK    5  A    between atoms: C_10  and  C_11 
REMARK    6  A    between atoms: C_10  and  N_17 
REMARK    7  A    between atoms: C_11  and  O_12 
REMARK    8  A    between atoms: O_12  and  P_13 
REMARK    9  A    between atoms: P_13  and  O_14 
ROOT
HETATM    1  C           1     -21.234  -6.014  -7.114  0.00  0.00     0.298 C 
ENDROOT
BRANCH   1   2
HETATM    2  C           1     -21.742  -4.773  -7.806  0.00  0.00     0.251 C 
HETATM    3  N           1     -22.193  -4.845  -9.096  0.00  0.00    -0.344 N 
HETATM    4  H           1     -22.187  -5.730  -9.586  0.00  0.00     0.163 HD
HETATM    5  O           1     -21.749  -3.716  -7.221  0.00  0.00    -0.271 OA
BRANCH   3   6
HETATM    6  C           1     -22.680  -3.651  -9.761  0.00  0.00     0.189 C 
BRANCH   6   7
HETATM    7  C           1     -21.908  -3.442 -11.058  0.00  0.00     0.010 C 
HETATM    8  C           1     -20.417  -3.363 -10.753  0.00  0.00     0.012 C 
HETATM    9  C           1     -22.173  -4.609 -12.000  0.00  0.00     0.012 C 
ENDBRANCH   6   7
BRANCH   6  10
HETATM   10  C           1     -24.149  -3.813 -10.071  0.00  0.00     0.197 C 
HETATM   11  O           1     -24.774  -2.888 -10.631  0.00  0.00    -0.646 OA
HETATM   12  O           1     -24.738  -4.872  -9.766  0.00  0.00    -0.646 OA
ENDBRANCH   6  10
ENDBRANCH   3   6
ENDBRANCH   1   2
BRANCH   1  13
HETATM   13  C           1     -21.526  -5.921  -5.623  0.00  0.00     0.224 C 
BRANCH  13  14
HETATM   14  O           1     -22.155  -7.098  -5.194  0.00  0.00    -0.287 OA
BRANCH  14  15
HETATM   15  P           1     -21.176  -8.321  -4.801  0.00  0.00     0.406 P 
HETATM   16  O           1     -19.802  -7.807  -4.606  0.00  0.00    -0.624 OA
HETATM   17  O           1     -21.180  -9.324  -5.887  0.00  0.00    -0.624 OA
BRANCH  15  18
HETATM   18  O           1     -21.692  -9.006  -3.432  0.00  0.00    -0.300 OA
HETATM   19  H           1     -22.060  -8.300  -2.929  0.00  0.00     0.223 HD
ENDBRANCH  15  18
ENDBRANCH  14  15
ENDBRANCH  13  14
ENDBRANCH   1  13
BRANCH   1  20
HETATM   20  N           1     -19.755  -6.136  -7.327  0.00  0.00    -0.064 N 
HETATM   21  H           1     -19.570  -6.764  -8.142  0.00  0.00     0.275 HD
HETATM   22  H           1     -19.352  -5.191  -7.518  0.00  0.00     0.275 HD
HETATM   23  H           1     -19.312  -6.537  -6.469  0.00  0.00     0.275 HD
ENDBRANCH   1  20
TORSDOF 9
ENDMDL
MODEL 4
REMARK VINA RESULT:      -6.3      2.279      3.213
REMARK  9 active torsions:
REMARK  status: ('A' for Active; 'I' for Inactive)
REMARK    1  A    between atoms: C_2  and  C_4 
REMARK    2  A    between atoms: C_4  and  C_5 
REMARK    3  A    between atoms: C_4  and  N_8 
REMARK       I    between atoms: N_8  and  C_9 
REMARK    4  A    between atoms: C_9  and  C_10 
REMARK    5  A    between atoms: C_10  and  C_11 
REMARK    6  A    between atoms: C_10  and  N_17 
REMARK    7  A    between atoms: C_11  and  O_12 
REMARK    8  A    between atoms: O_12  and  P_13 
REMARK    9  A    between atoms: P_13  and  O_14 
ROOT
HETATM    1  C           1     -34.294  -3.839 -12.200  0.00  0.00     0.298 C 
ENDROOT
BRANCH   1   2
HETATM    2  C           1     -34.425  -2.357 -11.947  0.00  0.00     0.251 C 
HETATM    3  N           1     -35.338  -1.620 -12.651  0.00  0.00    -0.344 N 
HETATM    4  H           1     -35.927  -2.069 -13.341  0.00  0.00     0.163 HD
HETATM    5  O           1     -33.722  -1.821 -11.123  0.00  0.00    -0.271 OA
BRANCH   3   6
HETATM    6  C           1     -35.463  -0.196 -12.408  0.00  0.00     0.189 C 
BRANCH   6   7
HETATM    7  C           1     -35.707   0.524 -13.728  0.00  0.00     0.010 C 
HETATM    8  C           1     -34.552   1.477 -14.006  0.00  0.00     0.012 C 
HETATM    9  C           1     -35.805  -0.498 -14.853  0.00  0.00     0.012 C 
ENDBRANCH   6   7
BRANCH   6  10
HETATM   10  C           1     -36.624   0.054 -11.476  0.00  0.00     0.197 C 
HETATM   11  O           1     -37.786   0.115 -11.928  0.00  0.00    -0.646 OA
HETATM   12  O           1     -36.420   0.200 -10.251  0.00  0.00    -0.646 OA
ENDBRANCH   6  10
ENDBRANCH   3   6
ENDBRANCH   1   2
BRANCH   1  13
HETATM   13  C           1     -33.521  -4.484 -11.058  0.00  0.00     0.224 C 
BRANCH  13  14
HETATM   14  O           1     -34.396  -5.253 -10.277  0.00  0.00    -0.287 OA
BRANCH  14  15
HETATM   15  P           1     -34.425  -6.836 -10.597  0.00  0.00     0.406 P 
HETATM   16  O           1     -35.213  -7.534  -9.557  0.00  0.00    -0.624 OA
HETATM   17  O           1     -33.042  -7.362 -10.605  0.00  0.00    -0.624 OA
BRANCH  15  18
HETATM   18  O           1     -35.103  -7.082 -12.041  0.00  0.00    -0.300 OA
HETATM   19  H           1     -35.215  -8.015 -12.103  0.00  0.00     0.223 HD
ENDBRANCH  15  18
ENDBRANCH  14  15
ENDBRANCH  13  14
ENDBRANCH   1  13
BRANCH   1  20
HETATM   20  N           1     -33.561  -4.063 -13.489  0.00  0.00    -0.064 N 
HETATM   21  H           1     -32.549  -3.837 -13.359  0.00  0.00     0.275 HD
HETATM   22  H           1     -33.660  -5.063 -13.776  0.00  0.00     0.275 HD
HETATM   23  H           1     -33.964  -3.446 -14.230  0.00  0.00     0.275 HD
ENDBRANCH   1  20
TORSDOF 9
ENDMDL
MODEL 5
REMARK VINA RESULT:      -6.1     14.021     16.844
REMARK  9 active torsions:
REMARK  status: ('A' for Active; 'I' for Inactive)
REMARK    1  A    between atoms: C_2  and  C_4 
REMARK    2  A    between atoms: C_4  and  C_5 
REMARK    3  A    between atoms: C_4  and  N_8 
REMARK       I    between atoms: N_8  and  C_9 
REMARK    4  A    between atoms: C_9  and  C_10 
REMARK    5  A    between atoms: C_10  and  C_11 
REMARK    6  A    between atoms: C_10  and  N_17 
REMARK    7  A    between atoms: C_11  and  O_12 
REMARK    8  A    between atoms: O_12  and  P_13 
REMARK    9  A    between atoms: P_13  and  O_14 
ROOT
HETATM    1  C           1     -21.300  -5.096  -6.613  0.00  0.00     0.298 C 
ENDROOT
BRANCH   1   2
HETATM    2  C           1     -21.895  -5.975  -5.541  0.00  0.00     0.251 C 
HETATM    3  N           1     -21.080  -6.739  -4.751  0.00  0.00    -0.344 N 
HETATM    4  H           1     -20.078  -6.714  -4.885  0.00  0.00     0.163 HD
HETATM    5  O           1     -23.093  -6.005  -5.382  0.00  0.00    -0.271 OA
BRANCH   3   6
HETATM    6  C           1     -21.653  -7.585  -3.722  0.00  0.00     0.189 C 
BRANCH   6   7
HETATM    7  C           1     -20.903  -8.910  -3.678  0.00  0.00     0.010 C 
HETATM    8  C           1     -21.866 -10.048  -3.988  0.00  0.00     0.012 C 
HETATM    9  C           1     -19.784  -8.893  -4.712  0.00  0.00     0.012 C 
ENDBRANCH   6   7
BRANCH   6  10
HETATM   10  C           1     -21.538  -6.895  -2.384  0.00  0.00     0.197 C 
HETATM   11  O           1     -20.785  -7.363  -1.504  0.00  0.00    -0.646 OA
HETATM   12  O           1     -22.196  -5.857  -2.158  0.00  0.00    -0.646 OA
ENDBRANCH   6  10
ENDBRANCH   3   6
ENDBRANCH   1   2
BRANCH   1  13
HETATM   13  C           1     -22.417  -4.427  -7.402  0.00  0.00     0.224 C 
BRANCH  13  14
HETATM   14  O           1     -22.183  -4.589  -8.775  0.00  0.00    -0.287 OA
BRANCH  14  15
HETATM   15  P           1     -23.368  -4.101  -9.757  0.00  0.00     0.406 P 
HETATM   16  O           1     -23.956  -5.275 -10.441  0.00  0.00    -0.624 OA
HETATM   17  O           1     -22.819  -3.166 -10.765  0.00  0.00    -0.624 OA
BRANCH  15  18
HETATM   18  O           1     -24.511  -3.353  -8.895  0.00  0.00    -0.300 OA
HETATM   19  H           1     -24.845  -4.011  -8.310  0.00  0.00     0.223 HD
ENDBRANCH  15  18
ENDBRANCH  14  15
ENDBRANCH  13  14
ENDBRANCH   1  13
BRANCH   1  20
HETATM   20  N           1     -20.465  -5.931  -7.539  0.00  0.00    -0.064 N 
HETATM   21  H           1     -20.404  -5.463  -8.471  0.00  0.00     0.275 HD
HETATM   22  H           1     -19.506  -6.039  -7.139  0.00  0.00     0.275 HD
HETATM   23  H           1     -20.906  -6.872  -7.649  0.00  0.00     0.275 HD
ENDBRANCH   1  20
TORSDOF 9
ENDMDL
MODEL 6
REMARK VINA RESULT:      -6.1      3.228      5.857
REMARK  9 active torsions:
REMARK  status: ('A' for Active; 'I' for Inactive)
REMARK    1  A    between atoms: C_2  and  C_4 
REMARK    2  A    between atoms: C_4  and  C_5 
REMARK    3  A    between atoms: C_4  and  N_8 
REMARK       I    between atoms: N_8  and  C_9 
REMARK    4  A    between atoms: C_9  and  C_10 
REMARK    5  A    between atoms: C_10  and  C_11 
REMARK    6  A    between atoms: C_10  and  N_17 
REMARK    7  A    between atoms: C_11  and  O_12 
REMARK    8  A    between atoms: O_12  and  P_13 
REMARK    9  A    between atoms: P_13  and  O_14 
ROOT
HETATM    1  C           1     -36.868  -0.596 -10.830  0.00  0.00     0.298 C 
ENDROOT
BRANCH   1   2
HETATM    2  C           1     -35.739  -1.565 -10.577  0.00  0.00     0.251 C 
HETATM    3  N           1     -35.711  -2.769 -11.228  0.00  0.00    -0.344 N 
HETATM    4  H           1     -36.446  -3.009 -11.879  0.00  0.00     0.163 HD
HETATM    5  O           1     -34.860  -1.278  -9.798  0.00  0.00    -0.271 OA
BRANCH   3   6
HETATM    6  C           1     -34.626  -3.700 -10.983  0.00  0.00     0.189 C 
BRANCH   6   7
HETATM    7  C           1     -35.164  -5.125 -11.018  0.00  0.00     0.010 C 
HETATM    8  C           1     -34.978  -5.702 -12.415  0.00  0.00     0.012 C 
HETATM    9  C           1     -34.404  -5.978 -10.010  0.00  0.00     0.012 C 
ENDBRANCH   6   7
BRANCH   6  10
HETATM   10  C           1     -33.571  -3.533 -12.050  0.00  0.00     0.197 C 
HETATM   11  O           1     -32.375  -3.783 -11.789  0.00  0.00    -0.646 OA
HETATM   12  O           1     -33.895  -3.145 -13.193  0.00  0.00    -0.646 OA
ENDBRANCH   6  10
ENDBRANCH   3   6
ENDBRANCH   1   2
BRANCH   1  13
HETATM   13  C           1     -36.929  -0.264 -12.315  0.00  0.00     0.224 C 
BRANCH  13  14
HETATM   14  O           1     -35.630  -0.227 -12.840  0.00  0.00    -0.287 OA
BRANCH  14  15
HETATM   15  P           1     -35.519  -0.140 -14.449  0.00  0.00     0.406 P 
HETATM   16  O           1     -34.347   0.686 -14.818  0.00  0.00    -0.624 OA
HETATM   17  O           1     -36.749   0.477 -14.995  0.00  0.00    -0.624 OA
BRANCH  15  18
HETATM   18  O           1     -35.344  -1.625 -15.059  0.00  0.00    -0.300 OA
HETATM   19  H           1     -35.108  -2.164 -14.325  0.00  0.00     0.223 HD
ENDBRANCH  15  18
ENDBRANCH  14  15
ENDBRANCH  13  14
ENDBRANCH   1  13
BRANCH   1  20
HETATM   20  N           1     -36.634   0.661 -10.046  0.00  0.00    -0.064 N 
HETATM   21  H           1     -37.373   0.758  -9.314  0.00  0.00     0.275 HD
HETATM   22  H           1     -35.695   0.616  -9.590  0.00  0.00     0.275 HD
HETATM   23  H           1     -36.669   1.483 -10.690  0.00  0.00     0.275 HD
ENDBRANCH   1  20
TORSDOF 9
ENDMDL
MODEL 7
REMARK VINA RESULT:      -6.1     13.800     16.528
REMARK  9 active torsions:
REMARK  status: ('A' for Active; 'I' for Inactive)
REMARK    1  A    between atoms: C_2  and  C_4 
REMARK    2  A    between atoms: C_4  and  C_5 
REMARK    3  A    between atoms: C_4  and  N_8 
REMARK       I    between atoms: N_8  and  C_9 
REMARK    4  A    between atoms: C_9  and  C_10 
REMARK    5  A    between atoms: C_10  and  C_11 
REMARK    6  A    between atoms: C_10  and  N_17 
REMARK    7  A    between atoms: C_11  and  O_12 
REMARK    8  A    between atoms: O_12  and  P_13 
REMARK    9  A    between atoms: P_13  and  O_14 
ROOT
HETATM    1  C           1     -22.016  -4.453  -7.185  0.00  0.00     0.298 C 
ENDROOT
BRANCH   1   2
HETATM    2  C           1     -21.100  -5.281  -6.318  0.00  0.00     0.251 C 
HETATM    3  N           1     -21.620  -6.249  -5.501  0.00  0.00    -0.344 N 
HETATM    4  H           1     -22.618  -6.410  -5.481  0.00  0.00     0.163 HD
HETATM    5  O           1     -19.908  -5.087  -6.343  0.00  0.00    -0.271 OA
BRANCH   3   6
HETATM    6  C           1     -20.739  -7.043  -4.667  0.00  0.00     0.189 C 
BRANCH   6   7
HETATM    7  C           1     -21.466  -7.429  -3.385  0.00  0.00     0.010 C 
HETATM    8  C           1     -20.519  -8.203  -2.479  0.00  0.00     0.012 C 
HETATM    9  C           1     -21.938  -6.168  -2.671  0.00  0.00     0.012 C 
ENDBRANCH   6   7
BRANCH   6  10
HETATM   10  C           1     -20.334  -8.293  -5.412  0.00  0.00     0.197 C 
HETATM   11  O           1     -21.199  -9.131  -5.741  0.00  0.00    -0.646 OA
HETATM   12  O           1     -19.133  -8.486  -5.699  0.00  0.00    -0.646 OA
ENDBRANCH   6  10
ENDBRANCH   3   6
ENDBRANCH   1   2
BRANCH   1  13
HETATM   13  C           1     -21.938  -4.946  -8.624  0.00  0.00     0.224 C 
BRANCH  13  14
HETATM   14  O           1     -22.240  -3.892  -9.497  0.00  0.00    -0.287 OA
BRANCH  14  15
HETATM   15  P           1     -23.363  -4.199 -10.616  0.00  0.00     0.406 P 
HETATM   16  O           1     -24.289  -3.048 -10.712  0.00  0.00    -0.624 OA
HETATM   17  O           1     -24.120  -5.411 -10.234  0.00  0.00    -0.624 OA
BRANCH  15  18
HETATM   18  O           1     -22.651  -4.436 -12.046  0.00  0.00    -0.300 OA
HETATM   19  H           1     -23.357  -4.595 -12.647  0.00  0.00     0.223 HD
ENDBRANCH  15  18
ENDBRANCH  14  15
ENDBRANCH  13  14
ENDBRANCH   1  13
BRANCH   1  20
HETATM   20  N           1     -21.596  -3.014  -7.127  0.00  0.00    -0.064 N 
HETATM   21  H           1     -22.371  -2.440  -6.725  0.00  0.00     0.275 HD
HETATM   22  H           1     -20.747  -2.925  -6.524  0.00  0.00     0.275 HD
HETATM   23  H           1     -21.376  -2.677  -8.092  0.00  0.00     0.275 HD
ENDBRANCH   1  20
TORSDOF 9
ENDMDL
MODEL 8
REMARK VINA RESULT:      -5.9      3.152      5.654
REMARK  9 active torsions:
REMARK  status: ('A' for Active; 'I' for Inactive)
REMARK    1  A    between atoms: C_2  and  C_4 
REMARK    2  A    between atoms: C_4  and  C_5 
REMARK    3  A    between atoms: C_4  and  N_8 
REMARK       I    between atoms: N_8  and  C_9 
REMARK    4  A    between atoms: C_9  and  C_10 
REMARK    5  A    between atoms: C_10  and  C_11 
REMARK    6  A    between atoms: C_10  and  N_17 
REMARK    7  A    between atoms: C_11  and  O_12 
REMARK    8  A    between atoms: O_12  and  P_13 
REMARK    9  A    between atoms: P_13  and  O_14 
ROOT
HETATM    1  C           1     -35.554   0.744 -14.111  0.00  0.00     0.298 C 
ENDROOT
BRANCH   1   2
HETATM    2  C           1     -36.168  -0.219 -13.125  0.00  0.00     0.251 C 
HETATM    3  N           1     -35.512  -0.521 -11.962  0.00  0.00    -0.344 N 
HETATM    4  H           1     -34.615  -0.097 -11.763  0.00  0.00     0.163 HD
HETATM    5  O           1     -37.239  -0.726 -13.363  0.00  0.00    -0.271 OA
BRANCH   3   6
HETATM    6  C           1     -36.102  -1.448 -11.016  0.00  0.00     0.189 C 
BRANCH   6   7
HETATM    7  C           1     -35.031  -2.402 -10.505  0.00  0.00     0.010 C 
HETATM    8  C           1     -35.349  -3.817 -10.970  0.00  0.00     0.012 C 
HETATM    9  C           1     -33.673  -1.980 -11.052  0.00  0.00     0.012 C 
ENDBRANCH   6   7
BRANCH   6  10
HETATM   10  C           1     -36.686  -0.677  -9.856  0.00  0.00     0.197 C 
HETATM   11  O           1     -35.954  -0.335  -8.903  0.00  0.00    -0.646 OA
HETATM   12  O           1     -37.901  -0.383  -9.850  0.00  0.00    -0.646 OA
ENDBRANCH   6  10
ENDBRANCH   3   6
ENDBRANCH   1   2
BRANCH   1  13
HETATM   13  C           1     -35.821   0.259 -15.529  0.00  0.00     0.224 C 
BRANCH  13  14
HETATM   14  O           1     -34.717  -0.473 -15.989  0.00  0.00    -0.287 OA
BRANCH  14  15
HETATM   15  P           1     -34.995  -2.024 -16.345  0.00  0.00     0.406 P 
HETATM   16  O           1     -36.404  -2.185 -16.770  0.00  0.00    -0.624 OA
HETATM   17  O           1     -34.742  -2.857 -15.149  0.00  0.00    -0.624 OA
BRANCH  15  18
HETATM   18  O           1     -34.016  -2.487 -17.542  0.00  0.00    -0.300 OA
HETATM   19  H           1     -34.468  -3.195 -17.968  0.00  0.00     0.223 HD
ENDBRANCH  15  18
ENDBRANCH  14  15
ENDBRANCH  13  14
ENDBRANCH   1  13
BRANCH   1  20
HETATM   20  N           1     -34.074   0.821 -13.879  0.00  0.00    -0.064 N 
HETATM   21  H           1     -33.890   1.102 -12.889  0.00  0.00     0.275 HD
HETATM   22  H           1     -33.645  -0.114 -14.061  0.00  0.00     0.275 HD
HETATM   23  H           1     -33.657   1.528 -14.526  0.00  0.00     0.275 HD
ENDBRANCH   1  20
TORSDOF 9
ENDMDL
MODEL 9
REMARK VINA RESULT:      -5.6     16.381     18.774
REMARK  9 active torsions:
REMARK  status: ('A' for Active; 'I' for Inactive)
REMARK    1  A    between atoms: C_2  and  C_4 
REMARK    2  A    between atoms: C_4  and  C_5 
REMARK    3  A    between atoms: C_4  and  N_8 
REMARK       I    between atoms: N_8  and  C_9 
REMARK    4  A    between atoms: C_9  and  C_10 
REMARK    5  A    between atoms: C_10  and  C_11 
REMARK    6  A    between atoms: C_10  and  N_17 
REMARK    7  A    between atoms: C_11  and  O_12 
REMARK    8  A    between atoms: O_12  and  P_13 
REMARK    9  A    between atoms: P_13  and  O_14 
ROOT
HETATM    1  C           1     -20.445  -7.911  -4.373  0.00  0.00     0.298 C 
ENDROOT
BRANCH   1   2
HETATM    2  C           1     -20.568  -8.653  -3.065  0.00  0.00     0.251 C 
HETATM    3  N           1     -21.761  -8.665  -2.394  0.00  0.00    -0.344 N 
HETATM    4  H           1     -22.561  -8.177  -2.777  0.00  0.00     0.163 HD
HETATM    5  O           1     -19.612  -9.235  -2.609  0.00  0.00    -0.271 OA
BRANCH   3   6
HETATM    6  C           1     -21.879  -9.377  -1.137  0.00  0.00     0.189 C 
BRANCH   6   7
HETATM    7  C           1     -22.340  -8.414  -0.050  0.00  0.00     0.010 C 
HETATM    8  C           1     -21.355  -8.451   1.111  0.00  0.00     0.012 C 
HETATM    9  C           1     -22.405  -7.002  -0.618  0.00  0.00     0.012 C 
ENDBRANCH   6   7
BRANCH   6  10
HETATM   10  C           1     -22.887 -10.492  -1.283  0.00  0.00     0.197 C 
HETATM   11  O           1     -22.840 -11.249  -2.275  0.00  0.00    -0.646 OA
HETATM   12  O           1     -23.768 -10.655  -0.411  0.00  0.00    -0.646 OA
ENDBRANCH   6  10
ENDBRANCH   3   6
ENDBRANCH   1   2
BRANCH   1  13
HETATM   13  C           1     -21.481  -6.796  -4.426  0.00  0.00     0.224 C 
BRANCH  13  14
HETATM   14  O           1     -20.888  -5.630  -4.929  0.00  0.00    -0.287 OA
BRANCH  14  15
HETATM   15  P           1     -21.314  -5.209  -6.428  0.00  0.00     0.406 P 
HETATM   16  O           1     -20.998  -6.316  -7.358  0.00  0.00    -0.624 OA
HETATM   17  O           1     -20.568  -3.996  -6.831  0.00  0.00    -0.624 OA
BRANCH  15  18
HETATM   18  O           1     -22.900  -4.906  -6.474  0.00  0.00    -0.300 OA
HETATM   19  H           1     -23.019  -4.148  -5.928  0.00  0.00     0.223 HD
ENDBRANCH  15  18
ENDBRANCH  14  15
ENDBRANCH  13  14
ENDBRANCH   1  13
BRANCH   1  20
HETATM   20  N           1     -20.675  -8.861  -5.511  0.00  0.00    -0.064 N 
HETATM   21  H           1     -21.133  -8.354  -6.301  0.00  0.00     0.275 HD
HETATM   22  H           1     -19.759  -9.249  -5.830  0.00  0.00     0.275 HD
HETATM   23  H           1     -21.292  -9.642  -5.192  0.00  0.00     0.275 HD
ENDBRANCH   1  20
TORSDOF 9
ENDMDL
