MODEL 1
REMARK VINA RESULT:      -6.7      0.000      0.000
REMARK  5 active torsions:
REMARK  status: ('A' for Active; 'I' for Inactive)
REMARK    1  A    between atoms: C_3  and  C_6 
REMARK    2  A    between atoms: C_3  and  C_17 
REMARK    3  A    between atoms: C_9  and  C_10 
REMARK       I    between atoms: C_10  and  N_15 
REMARK    4  A    between atoms: N_15  and  C_17 
REMARK    5  A    between atoms: C_16  and  C_17 
ROOT
HETATM    1  H           1     -37.314  -1.963 -10.480  0.00  0.00     0.162 HD
HETATM    2  C           1     -36.878   0.041 -10.200  0.00  0.00     0.133 C 
HETATM    3  N           1     -36.668  -1.215 -10.701  0.00  0.00    -0.359 N 
HETATM    4  O           1     -36.106   0.932 -10.465  0.00  0.00    -0.397 OA
ENDROOT
BRANCH   3   5
HETATM    5  C           1     -35.521  -1.476 -11.550  0.00  0.00     0.184 C 
BRANCH   5   6
HETATM    6  C           1     -35.225  -2.971 -11.559  0.00  0.00     0.040 C 
BRANCH   6   7
HETATM    7  C           1     -33.902  -3.230 -10.852  0.00  0.00    -0.018 C 
HETATM    8  C           1     -33.256  -1.903 -10.479  0.00  0.00     0.289 C 
HETATM    9  C           1     -32.974  -4.003 -11.779  0.00  0.00     0.009 C 
ENDBRANCH   6   7
ENDBRANCH   5   6
BRANCH   5  10
HETATM   10  C           1     -35.822  -1.016 -12.956  0.00  0.00     0.196 C 
HETATM   11  O           1     -34.891  -0.651 -13.706  0.00  0.00    -0.646 OA
HETATM   12  O           1     -37.001  -0.999 -13.370  0.00  0.00    -0.646 OA
ENDBRANCH   5  10
ENDBRANCH   3   5
BRANCH   2  13
HETATM   13  C           1     -38.071   0.313  -9.318  0.00  0.00     0.292 C 
HETATM   14  C           1     -38.075   1.756  -8.844  0.00  0.00     0.046 C 
HETATM   15  C           1     -37.394   1.727  -7.481  0.00  0.00     0.033 C 
HETATM   16  C           1     -37.042   0.269  -7.244  0.00  0.00     0.270 C 
HETATM   17  N           1     -37.991  -0.459  -8.082  0.00  0.00     0.095 N 
HETATM   18  H           1     -38.898  -0.495  -7.617  0.00  0.00     0.316 HD
ENDBRANCH   2  13
TORSDOF 5
ENDMDL
MODEL 2
REMARK VINA RESULT:      -6.6      2.284      5.011
REMARK  5 active torsions:
REMARK  status: ('A' for Active; 'I' for Inactive)
REMARK    1  A    between atoms: C_3  and  C_6 
REMARK    2  A    between atoms: C_3  and  C_17 
REMARK    3  A    between atoms: C_9  and  C_10 
REMARK       I    between atoms: C_10  and  N_15 
REMARK    4  A    between atoms: N_15  and  C_17 
REMARK    5  A    between atoms: C_16  and  C_17 
ROOT
HETATM    1  H           1     -34.324  -0.143 -12.569  0.00  0.00     0.162 HD
HETATM    2  C           1     -36.212  -0.430 -13.368  0.00  0.00     0.133 C 
HETATM    3  N           1     -35.220  -0.596 -12.440  0.00  0.00    -0.359 N 
HETATM    4  O           1     -37.280  -0.972 -13.213  0.00  0.00    -0.397 OA
ENDROOT
BRANCH   3   5
HETATM    5  C           1     -35.453  -1.421 -11.270  0.00  0.00     0.184 C 
BRANCH   5   6
HETATM    6  C           1     -34.116  -1.829 -10.662  0.00  0.00     0.040 C 
BRANCH   6   7
HETATM    7  C           1     -33.976  -3.344 -10.713  0.00  0.00    -0.018 C 
HETATM    8  C           1     -32.854  -3.719 -11.671  0.00  0.00     0.289 C 
HETATM    9  C           1     -35.283  -3.958 -11.197  0.00  0.00     0.009 C 
ENDBRANCH   6   7
ENDBRANCH   5   6
BRANCH   5  10
HETATM   10  C           1     -36.249  -0.639 -10.253  0.00  0.00     0.196 C 
HETATM   11  O           1     -37.010  -1.237  -9.462  0.00  0.00    -0.646 OA
HETATM   12  O           1     -36.148   0.605 -10.204  0.00  0.00    -0.646 OA
ENDBRANCH   5  10
ENDBRANCH   3   5
BRANCH   2  13
HETATM   13  C           1     -35.970   0.429 -14.585  0.00  0.00     0.292 C 
HETATM   14  C           1     -37.145   0.349 -15.545  0.00  0.00     0.046 C 
HETATM   15  C           1     -36.763  -0.734 -16.548  0.00  0.00     0.033 C 
HETATM   16  C           1     -35.389  -1.211 -16.113  0.00  0.00     0.270 C 
HETATM   17  N           1     -34.847  -0.079 -15.366  0.00  0.00     0.095 N 
HETATM   18  H           1     -34.510   0.629 -16.019  0.00  0.00     0.316 HD
ENDBRANCH   2  13
TORSDOF 5
ENDMDL
MODEL 3
REMARK VINA RESULT:      -5.7     10.371     13.169
REMARK  5 active torsions:
REMARK  status: ('A' for Active; 'I' for Inactive)
REMARK    1  A    between atoms: C_3  and  C_6 
REMARK    2  A    between atoms: C_3  and  C_17 
REMARK    3  A    between atoms: C_9  and  C_10 
REMARK       I    between atoms: C_10  and  N_15 
REMARK    4  A    between atoms: N_15  and  C_17 
REMARK    5  A    between atoms: C_16  and  C_17 
ROOT
HETATM    1  H           1     -26.078  -4.944 -16.942  0.00  0.00     0.162 HD
HETATM    2  C           1     -27.782  -6.045 -16.530  0.00  0.00     0.133 C 
HETATM    3  N           1     -26.482  -5.873 -16.921  0.00  0.00    -0.359 N 
HETATM    4  O           1     -28.263  -7.153 -16.506  0.00  0.00    -0.397 OA
ENDROOT
BRANCH   3   5
HETATM    5  C           1     -25.681  -7.020 -17.305  0.00  0.00     0.184 C 
BRANCH   5   6
HETATM    6  C           1     -24.789  -6.645 -18.482  0.00  0.00     0.040 C 
BRANCH   6   7
HETATM    7  C           1     -25.312  -7.311 -19.747  0.00  0.00    -0.018 C 
HETATM    8  C           1     -24.140  -7.808 -20.582  0.00  0.00     0.289 C 
HETATM    9  C           1     -26.120  -6.304 -20.554  0.00  0.00     0.009 C 
ENDBRANCH   6   7
ENDBRANCH   5   6
BRANCH   5  10
HETATM   10  C           1     -24.823  -7.446 -16.139  0.00  0.00     0.196 C 
HETATM   11  O           1     -25.068  -7.015 -14.992  0.00  0.00    -0.646 OA
HETATM   12  O           1     -23.866  -8.229 -16.321  0.00  0.00    -0.646 OA
ENDBRANCH   5  10
ENDBRANCH   3   5
BRANCH   2  13
HETATM   13  C           1     -28.615  -4.852 -16.130  0.00  0.00     0.292 C 
HETATM   14  C           1     -30.083  -5.227 -16.030  0.00  0.00     0.046 C 
HETATM   15  C           1     -30.678  -4.866 -17.386  0.00  0.00     0.033 C 
HETATM   16  C           1     -29.520  -4.298 -18.188  0.00  0.00     0.270 C 
HETATM   17  N           1     -28.588  -3.827 -17.167  0.00  0.00     0.095 N 
HETATM   18  H           1     -28.909  -2.931 -16.801  0.00  0.00     0.316 HD
ENDBRANCH   2  13
TORSDOF 5
ENDMDL
MODEL 4
REMARK VINA RESULT:      -5.6     25.257     27.155
REMARK  5 active torsions:
REMARK  status: ('A' for Active; 'I' for Inactive)
REMARK    1  A    between atoms: C_3  and  C_6 
REMARK    2  A    between atoms: C_3  and  C_17 
REMARK    3  A    between atoms: C_9  and  C_10 
REMARK       I    between atoms: C_10  and  N_15 
REMARK    4  A    between atoms: N_15  and  C_17 
REMARK    5  A    between atoms: C_16  and  C_17 
ROOT
HETATM    1  H           1     -11.922   5.375 -19.633  0.00  0.00     0.162 HD
HETATM    2  C           1     -12.228   7.209 -20.541  0.00  0.00     0.133 C 
HETATM    3  N           1     -12.448   5.873 -20.340  0.00  0.00    -0.359 N 
HETATM    4  O           1     -12.855   7.804 -21.385  0.00  0.00    -0.397 OA
ENDROOT
BRANCH   3   5
HETATM    5  C           1     -13.434   5.172 -21.140  0.00  0.00     0.184 C 
BRANCH   5   6
HETATM    6  C           1     -12.909   3.787 -21.493  0.00  0.00     0.040 C 
BRANCH   6   7
HETATM    7  C           1     -11.396   3.760 -21.329  0.00  0.00    -0.018 C 
HETATM    8  C           1     -10.734   3.872 -22.695  0.00  0.00     0.289 C 
HETATM    9  C           1     -10.980   2.452 -20.669  0.00  0.00     0.009 C 
ENDBRANCH   6   7
ENDBRANCH   5   6
BRANCH   5  10
HETATM   10  C           1     -14.715   5.038 -20.353  0.00  0.00     0.196 C 
HETATM   11  O           1     -14.686   4.612 -19.179  0.00  0.00    -0.646 OA
HETATM   12  O           1     -15.805   5.354 -20.876  0.00  0.00    -0.646 OA
ENDBRANCH   5  10
ENDBRANCH   3   5
BRANCH   2  13
HETATM   13  C           1     -11.202   7.939 -19.709  0.00  0.00     0.292 C 
HETATM   14  C           1     -10.722   9.192 -20.420  0.00  0.00     0.046 C 
HETATM   15  C           1      -9.454   8.771 -21.153  0.00  0.00     0.033 C 
HETATM   16  C           1      -9.272   7.301 -20.817  0.00  0.00     0.270 C 
HETATM   17  N           1      -9.991   7.140 -19.556  0.00  0.00     0.095 N 
HETATM   18  H           1      -9.417   7.493 -18.790  0.00  0.00     0.316 HD
ENDBRANCH   2  13
TORSDOF 5
ENDMDL
MODEL 5
REMARK VINA RESULT:      -5.5     15.739     17.444
REMARK  5 active torsions:
REMARK  status: ('A' for Active; 'I' for Inactive)
REMARK    1  A    between atoms: C_3  and  C_6 
REMARK    2  A    between atoms: C_3  and  C_17 
REMARK    3  A    between atoms: C_9  and  C_10 
REMARK       I    between atoms: C_10  and  N_15 
REMARK    4  A    between atoms: N_15  and  C_17 
REMARK    5  A    between atoms: C_16  and  C_17 
ROOT
HETATM    1  H           1     -19.707  -6.169  -4.646  0.00  0.00     0.162 HD
HETATM    2  C           1     -21.367  -5.412  -5.623  0.00  0.00     0.133 C 
HETATM    3  N           1     -20.707  -6.263  -4.778  0.00  0.00    -0.359 N 
HETATM    4  O           1     -22.560  -5.525  -5.781  0.00  0.00    -0.397 OA
ENDROOT
BRANCH   3   5
HETATM    5  C           1     -21.438  -7.297  -4.071  0.00  0.00     0.184 C 
BRANCH   5   6
HETATM    6  C           1     -20.665  -8.607  -4.146  0.00  0.00     0.040 C 
BRANCH   6   7
HETATM    7  C           1     -21.625  -9.745  -4.464  0.00  0.00    -0.018 C 
HETATM    8  C           1     -21.884 -10.559  -3.203  0.00  0.00     0.289 C 
HETATM    9  C           1     -21.012 -10.643  -5.530  0.00  0.00     0.009 C 
ENDBRANCH   6   7
ENDBRANCH   5   6
BRANCH   5  10
HETATM   10  C           1     -21.606  -6.894  -2.626  0.00  0.00     0.196 C 
HETATM   11  O           1     -20.920  -7.446  -1.740  0.00  0.00    -0.646 OA
HETATM   12  O           1     -22.433  -6.010  -2.316  0.00  0.00    -0.646 OA
ENDBRANCH   5  10
ENDBRANCH   3   5
BRANCH   2  13
HETATM   13  C           1     -20.607  -4.336  -6.358  0.00  0.00     0.292 C 
HETATM   14  C           1     -21.490  -3.662  -7.393  0.00  0.00     0.046 C 
HETATM   15  C           1     -21.205  -4.398  -8.698  0.00  0.00     0.033 C 
HETATM   16  C           1     -20.170  -5.450  -8.341  0.00  0.00     0.270 C 
HETATM   17  N           1     -19.523  -4.912  -7.148  0.00  0.00     0.095 N 
HETATM   18  H           1     -18.851  -4.194  -7.420  0.00  0.00     0.316 HD
ENDBRANCH   2  13
TORSDOF 5
ENDMDL
MODEL 6
REMARK VINA RESULT:      -5.5     11.787     14.551
REMARK  5 active torsions:
REMARK  status: ('A' for Active; 'I' for Inactive)
REMARK    1  A    between atoms: C_3  and  C_6 
REMARK    2  A    between atoms: C_3  and  C_17 
REMARK    3  A    between atoms: C_9  and  C_10 
REMARK       I    between atoms: C_10  and  N_15 
REMARK    4  A    between atoms: N_15  and  C_17 
REMARK    5  A    between atoms: C_16  and  C_17 
ROOT
HETATM    1  H           1     -27.303  -6.972 -18.417  0.00  0.00     0.162 HD
HETATM    2  C           1     -25.240  -6.920 -18.577  0.00  0.00     0.133 C 
HETATM    3  N           1     -26.444  -6.673 -17.974  0.00  0.00    -0.359 N 
HETATM    4  O           1     -24.215  -6.562 -18.046  0.00  0.00    -0.397 OA
ENDROOT
BRANCH   3   5
HETATM    5  C           1     -26.488  -5.983 -16.699  0.00  0.00     0.184 C 
BRANCH   5   6
HETATM    6  C           1     -27.822  -5.260 -16.559  0.00  0.00     0.040 C 
BRANCH   6   7
HETATM    7  C           1     -28.756  -5.696 -17.680  0.00  0.00    -0.018 C 
HETATM    8  C           1     -29.285  -4.468 -18.407  0.00  0.00     0.289 C 
HETATM    9  C           1     -29.921  -6.481 -17.094  0.00  0.00     0.009 C 
ENDBRANCH   6   7
ENDBRANCH   5   6
BRANCH   5  10
HETATM   10  C           1     -26.339  -6.984 -15.579  0.00  0.00     0.196 C 
HETATM   11  O           1     -27.343  -7.589 -15.145  0.00  0.00    -0.646 OA
HETATM   12  O           1     -25.213  -7.208 -15.087  0.00  0.00    -0.646 OA
ENDBRANCH   5  10
ENDBRANCH   3   5
BRANCH   2  13
HETATM   13  C           1     -25.193  -7.639 -19.903  0.00  0.00     0.292 C 
HETATM   14  C           1     -24.246  -6.941 -20.862  0.00  0.00     0.046 C 
HETATM   15  C           1     -25.130  -6.012 -21.686  0.00  0.00     0.033 C 
HETATM   16  C           1     -26.537  -6.233 -21.159  0.00  0.00     0.270 C 
HETATM   17  N           1     -26.485  -7.571 -20.577  0.00  0.00     0.095 N 
HETATM   18  H           1     -26.543  -8.267 -21.321  0.00  0.00     0.316 HD
ENDBRANCH   2  13
TORSDOF 5
ENDMDL
MODEL 7
REMARK VINA RESULT:      -5.4     18.305     19.927
REMARK  5 active torsions:
REMARK  status: ('A' for Active; 'I' for Inactive)
REMARK    1  A    between atoms: C_3  and  C_6 
REMARK    2  A    between atoms: C_3  and  C_17 
REMARK    3  A    between atoms: C_9  and  C_10 
REMARK       I    between atoms: C_10  and  N_15 
REMARK    4  A    between atoms: N_15  and  C_17 
REMARK    5  A    between atoms: C_16  and  C_17 
ROOT
HETATM    1  H           1     -22.372 -10.999  -2.322  0.00  0.00     0.162 HD
HETATM    2  C           1     -20.597  -9.936  -2.340  0.00  0.00     0.133 C 
HETATM    3  N           1     -21.710 -10.480  -1.759  0.00  0.00    -0.359 N 
HETATM    4  O           1     -19.806  -9.317  -1.668  0.00  0.00    -0.397 OA
ENDROOT
BRANCH   3   5
HETATM    5  C           1     -21.940 -10.315  -0.336  0.00  0.00     0.184 C 
BRANCH   5   6
HETATM    6  C           1     -23.149  -9.413  -0.119  0.00  0.00     0.040 C 
BRANCH   6   7
HETATM    7  C           1     -22.689  -8.076   0.445  0.00  0.00    -0.018 C 
HETATM    8  C           1     -22.414  -7.109  -0.699  0.00  0.00     0.289 C 
HETATM    9  C           1     -21.417  -8.277   1.257  0.00  0.00     0.009 C 
ENDBRANCH   6   7
ENDBRANCH   5   6
BRANCH   5  10
HETATM   10  C           1     -22.199 -11.663   0.291  0.00  0.00     0.196 C 
HETATM   11  O           1     -23.346 -12.159   0.255  0.00  0.00    -0.646 OA
HETATM   12  O           1     -21.268 -12.283   0.847  0.00  0.00    -0.646 OA
ENDBRANCH   5  10
ENDBRANCH   3   5
BRANCH   2  13
HETATM   13  C           1     -20.356 -10.109  -3.820  0.00  0.00     0.292 C 
HETATM   14  C           1     -19.313  -9.124  -4.316  0.00  0.00     0.046 C 
HETATM   15  C           1     -20.108  -7.936  -4.843  0.00  0.00     0.033 C 
HETATM   16  C           1     -21.565  -8.306  -4.626  0.00  0.00     0.270 C 
HETATM   17  N           1     -21.551  -9.765  -4.584  0.00  0.00     0.095 N 
HETATM   18  H           1     -21.491 -10.132  -5.534  0.00  0.00     0.316 HD
ENDBRANCH   2  13
TORSDOF 5
ENDMDL
MODEL 8
REMARK VINA RESULT:      -5.3     25.883     27.915
REMARK  5 active torsions:
REMARK  status: ('A' for Active; 'I' for Inactive)
REMARK    1  A    between atoms: C_3  and  C_6 
REMARK    2  A    between atoms: C_3  and  C_17 
REMARK    3  A    between atoms: C_9  and  C_10 
REMARK       I    between atoms: C_10  and  N_15 
REMARK    4  A    between atoms: N_15  and  C_17 
REMARK    5  A    between atoms: C_16  and  C_17 
ROOT
HETATM    1  H           1     -11.677   6.420 -21.594  0.00  0.00     0.162 HD
HETATM    2  C           1     -11.400   4.412 -22.012  0.00  0.00     0.133 C 
HETATM    3  N           1     -11.090   5.611 -21.431  0.00  0.00    -0.359 N 
HETATM    4  O           1     -10.700   3.447 -21.816  0.00  0.00    -0.397 OA
ENDROOT
BRANCH   3   5
HETATM    5  C           1      -9.922   5.724 -20.578  0.00  0.00     0.184 C 
BRANCH   5   6
HETATM    6  C           1      -9.289   7.097 -20.763  0.00  0.00     0.040 C 
BRANCH   6   7
HETATM    7  C           1     -10.382   8.137 -20.966  0.00  0.00    -0.018 C 
HETATM    8  C           1     -10.006   9.051 -22.124  0.00  0.00     0.289 C 
HETATM    9  C           1     -10.538   8.964 -19.697  0.00  0.00     0.009 C 
ENDBRANCH   6   7
ENDBRANCH   5   6
BRANCH   5  10
HETATM   10  C           1     -10.333   5.550 -19.136  0.00  0.00     0.196 C 
HETATM   11  O           1      -9.480   5.647 -18.228  0.00  0.00    -0.646 OA
HETATM   12  O           1     -11.526   5.310 -18.851  0.00  0.00    -0.646 OA
ENDBRANCH   5  10
ENDBRANCH   3   5
BRANCH   2  13
HETATM   13  C           1     -12.616   4.294 -22.898  0.00  0.00     0.292 C 
HETATM   14  C           1     -13.557   5.467 -22.683  0.00  0.00     0.046 C 
HETATM   15  C           1     -14.572   4.978 -21.657  0.00  0.00     0.033 C 
HETATM   16  C           1     -14.163   3.549 -21.344  0.00  0.00     0.270 C 
HETATM   17  N           1     -13.418   3.132 -22.529  0.00  0.00     0.095 N 
HETATM   18  H           1     -14.072   2.891 -23.274  0.00  0.00     0.316 HD
ENDBRANCH   2  13
TORSDOF 5
ENDMDL
MODEL 9
REMARK VINA RESULT:      -5.3     16.950     18.962
REMARK  5 active torsions:
REMARK  status: ('A' for Active; 'I' for Inactive)
REMARK    1  A    between atoms: C_3  and  C_6 
REMARK    2  A    between atoms: C_3  and  C_17 
REMARK    3  A    between atoms: C_9  and  C_10 
REMARK       I    between atoms: C_10  and  N_15 
REMARK    4  A    between atoms: N_15  and  C_17 
REMARK    5  A    between atoms: C_16  and  C_17 
ROOT
HETATM    1  H           1     -22.479  -9.236  -2.702  0.00  0.00     0.162 HD
HETATM    2  C           1     -21.235 -10.168  -1.336  0.00  0.00     0.133 C 
HETATM    3  N           1     -21.733  -9.100  -2.031  0.00  0.00    -0.359 N 
HETATM    4  O           1     -20.345 -10.004  -0.534  0.00  0.00    -0.397 OA
ENDROOT
BRANCH   3   5
HETATM    5  C           1     -21.196  -7.771  -1.805  0.00  0.00     0.184 C 
BRANCH   5   6
HETATM    6  C           1     -20.708  -7.190  -3.125  0.00  0.00     0.040 C 
BRANCH   6   7
HETATM    7  C           1     -21.458  -7.844  -4.277  0.00  0.00    -0.018 C 
HETATM    8  C           1     -20.466  -8.530  -5.206  0.00  0.00     0.289 C 
HETATM    9  C           1     -22.227  -6.782  -5.051  0.00  0.00     0.009 C 
ENDBRANCH   6   7
ENDBRANCH   5   6
BRANCH   5  10
HETATM   10  C           1     -22.274  -6.883  -1.232  0.00  0.00     0.196 C 
HETATM   11  O           1     -22.973  -7.286  -0.278  0.00  0.00    -0.646 OA
HETATM   12  O           1     -22.467  -5.746  -1.713  0.00  0.00    -0.646 OA
ENDBRANCH   5  10
ENDBRANCH   3   5
BRANCH   2  13
HETATM   13  C           1     -21.794 -11.549  -1.570  0.00  0.00     0.292 C 
HETATM   14  C           1     -23.180 -11.473  -2.187  0.00  0.00     0.046 C 
HETATM   15  C           1     -24.144 -11.560  -1.010  0.00  0.00     0.033 C 
HETATM   16  C           1     -23.259 -11.687   0.218  0.00  0.00     0.270 C 
HETATM   17  N           1     -22.014 -12.243  -0.305  0.00  0.00     0.095 N 
HETATM   18  H           1     -22.126 -13.246  -0.456  0.00  0.00     0.316 HD
ENDBRANCH   2  13
TORSDOF 5
ENDMDL
