MODEL 1
REMARK VINA RESULT:      -7.3      0.000      0.000
REMARK  5 active torsions:
REMARK  status: ('A' for Active; 'I' for Inactive)
REMARK       I    between atoms: C_2  and  N_8 
REMARK    1  A    between atoms: C_2  and  C_3 
REMARK    2  A    between atoms: C_5  and  C_24 
REMARK    3  A    between atoms: C_5  and  C_6 
REMARK    4  A    between atoms: C_6  and  C_7 
REMARK    5  A    between atoms: C_6  and  N_8 
REMARK       I    between atoms: N_16  and  C_24 
ROOT
HETATM    1  C           1     -35.015  -2.297 -12.690  0.00  0.00     0.249 C 
HETATM    2  N           1     -35.687  -1.109 -12.793  0.00  0.00    -0.344 N 
HETATM    3  O           1     -34.610  -2.851 -13.684  0.00  0.00    -0.271 OA
HETATM    4  H           1     -36.027  -0.646 -11.960  0.00  0.00     0.163 HD
ENDROOT
BRANCH   1   5
HETATM    5  C           1     -34.781  -2.916 -11.334  0.00  0.00     0.274 C 
HETATM    6  C           1     -33.301  -3.239 -11.171  0.00  0.00     0.042 C 
HETATM    7  C           1     -32.872  -4.217 -12.257  0.00  0.00     0.004 C 
HETATM    8  C           1     -32.349  -5.495 -11.611  0.00  0.00     0.027 C 
HETATM    9  C           1     -33.449  -6.124 -10.767  0.00  0.00     0.229 C 
HETATM   10  N           1     -34.625  -6.450 -11.640  0.00  0.00    -0.079 N 
HETATM   11  H           1     -34.984  -5.574 -12.081  0.00  0.00     0.274 HD
HETATM   12  H           1     -35.381  -6.882 -11.060  0.00  0.00     0.274 HD
HETATM   13  H           1     -34.331  -7.121 -12.385  0.00  0.00     0.274 HD
HETATM   14  H           1     -35.288  -4.849 -11.961  0.00  0.00     0.275 HD
HETATM   15  N           1     -35.583  -4.178 -11.216  0.00  0.00    -0.067 N 
HETATM   16  H           1     -36.598  -3.957 -11.327  0.00  0.00     0.275 HD
HETATM   17  H           1     -35.421  -4.608 -10.277  0.00  0.00     0.275 HD
ENDBRANCH   1   5
BRANCH   2  18
HETATM   18  C           1     -35.913  -0.514 -14.096  0.00  0.00     0.194 C 
BRANCH  18  19
HETATM   19  C           1     -37.315   0.078 -14.147  0.00  0.00     0.138 C 
BRANCH  19  20
HETATM   20  C           1     -37.698   0.343 -15.582  0.00  0.00     0.217 C 
HETATM   21  O           1     -37.673  -0.556 -16.389  0.00  0.00    -0.274 OA
HETATM   22  N           1     -38.074   1.600 -15.970  0.00  0.00    -0.370 N 
HETATM   23  H           1     -38.331   1.777 -16.933  0.00  0.00     0.159 HD
HETATM   24  H           1     -38.095   2.353 -15.294  0.00  0.00     0.159 HD
ENDBRANCH  19  20
ENDBRANCH  18  19
BRANCH  18  25
HETATM   25  C           1     -34.897   0.576 -14.333  0.00  0.00     0.197 C 
HETATM   26  O           1     -34.861   1.572 -13.577  0.00  0.00    -0.646 OA
HETATM   27  O           1     -34.091   0.484 -15.284  0.00  0.00    -0.646 OA
ENDBRANCH  18  25
ENDBRANCH   2  18
TORSDOF 5
ENDMDL
MODEL 2
REMARK VINA RESULT:      -7.2      1.724      2.210
REMARK  5 active torsions:
REMARK  status: ('A' for Active; 'I' for Inactive)
REMARK       I    between atoms: C_2  and  N_8 
REMARK    1  A    between atoms: C_2  and  C_3 
REMARK    2  A    between atoms: C_5  and  C_24 
REMARK    3  A    between atoms: C_5  and  C_6 
REMARK    4  A    between atoms: C_6  and  C_7 
REMARK    5  A    between atoms: C_6  and  N_8 
REMARK       I    between atoms: N_16  and  C_24 
ROOT
HETATM    1  C           1     -35.832  -1.148 -12.438  0.00  0.00     0.249 C 
HETATM    2  N           1     -35.074  -0.783 -13.517  0.00  0.00    -0.344 N 
HETATM    3  O           1     -37.038  -1.131 -12.513  0.00  0.00    -0.271 OA
HETATM    4  H           1     -34.064  -0.796 -13.454  0.00  0.00     0.163 HD
ENDROOT
BRANCH   1   5
HETATM    5  C           1     -35.162  -1.572 -11.154  0.00  0.00     0.274 C 
HETATM    6  C           1     -33.746  -2.049 -11.453  0.00  0.00     0.042 C 
HETATM    7  C           1     -33.800  -3.231 -12.413  0.00  0.00     0.004 C 
HETATM    8  C           1     -33.159  -4.448 -11.756  0.00  0.00     0.027 C 
HETATM    9  C           1     -33.916  -4.794 -10.481  0.00  0.00     0.229 C 
HETATM   10  N           1     -35.346  -5.102 -10.816  0.00  0.00    -0.079 N 
HETATM   11  H           1     -35.786  -4.267 -11.265  0.00  0.00     0.274 HD
HETATM   12  H           1     -35.866  -5.340  -9.941  0.00  0.00     0.274 HD
HETATM   13  H           1     -35.383  -5.912 -11.475  0.00  0.00     0.274 HD
HETATM   14  H           1     -35.980  -3.500 -11.188  0.00  0.00     0.275 HD
HETATM   15  N           1     -35.943  -2.690 -10.529  0.00  0.00    -0.067 N 
HETATM   16  H           1     -36.914  -2.363 -10.324  0.00  0.00     0.275 HD
HETATM   17  H           1     -35.480  -2.985  -9.640  0.00  0.00     0.275 HD
ENDBRANCH   1   5
BRANCH   2  18
HETATM   18  C           1     -35.717  -0.375 -14.751  0.00  0.00     0.194 C 
BRANCH  18  19
HETATM   19  C           1     -35.207   1.001 -15.159  0.00  0.00     0.138 C 
BRANCH  19  20
HETATM   20  C           1     -36.291   1.741 -15.903  0.00  0.00     0.217 C 
HETATM   21  O           1     -36.020   2.737 -16.531  0.00  0.00    -0.274 OA
HETATM   22  N           1     -37.580   1.285 -15.866  0.00  0.00    -0.370 N 
HETATM   23  H           1     -38.308   1.782 -16.365  0.00  0.00     0.159 HD
HETATM   24  H           1     -37.807   0.451 -15.339  0.00  0.00     0.159 HD
ENDBRANCH  19  20
ENDBRANCH  18  19
BRANCH  18  25
HETATM   25  C           1     -35.399  -1.372 -15.837  0.00  0.00     0.197 C 
HETATM   26  O           1     -34.786  -2.426 -15.558  0.00  0.00    -0.646 OA
HETATM   27  O           1     -35.747  -1.145 -17.016  0.00  0.00    -0.646 OA
ENDBRANCH  18  25
ENDBRANCH   2  18
TORSDOF 5
ENDMDL
MODEL 3
REMARK VINA RESULT:      -7.1      9.998     12.233
REMARK  5 active torsions:
REMARK  status: ('A' for Active; 'I' for Inactive)
REMARK       I    between atoms: C_2  and  N_8 
REMARK    1  A    between atoms: C_2  and  C_3 
REMARK    2  A    between atoms: C_5  and  C_24 
REMARK    3  A    between atoms: C_5  and  C_6 
REMARK    4  A    between atoms: C_6  and  C_7 
REMARK    5  A    between atoms: C_6  and  N_8 
REMARK       I    between atoms: N_16  and  C_24 
ROOT
HETATM    1  C           1     -27.336  -6.276 -19.595  0.00  0.00     0.249 C 
HETATM    2  N           1     -26.245  -6.968 -19.144  0.00  0.00    -0.344 N 
HETATM    3  O           1     -27.238  -5.551 -20.556  0.00  0.00    -0.271 OA
HETATM    4  H           1     -26.327  -7.574 -18.338  0.00  0.00     0.163 HD
ENDROOT
BRANCH   1   5
HETATM    5  C           1     -28.663  -6.418 -18.890  0.00  0.00     0.274 C 
HETATM    6  C           1     -29.081  -5.070 -18.316  0.00  0.00     0.042 C 
HETATM    7  C           1     -28.028  -4.592 -17.325  0.00  0.00     0.004 C 
HETATM    8  C           1     -28.666  -4.417 -15.952  0.00  0.00     0.027 C 
HETATM    9  C           1     -29.237  -5.748 -15.483  0.00  0.00     0.229 C 
HETATM   10  N           1     -28.134  -6.762 -15.396  0.00  0.00    -0.079 N 
HETATM   11  H           1     -27.698  -6.883 -16.338  0.00  0.00     0.274 HD
HETATM   12  H           1     -28.526  -7.677 -15.075  0.00  0.00     0.274 HD
HETATM   13  H           1     -27.411  -6.434 -14.716  0.00  0.00     0.274 HD
HETATM   14  H           1     -27.811  -7.087 -17.098  0.00  0.00     0.275 HD
HETATM   15  N           1     -28.533  -7.416 -17.778  0.00  0.00    -0.067 N 
HETATM   16  H           1     -28.247  -8.340 -18.171  0.00  0.00     0.275 HD
HETATM   17  H           1     -29.451  -7.515 -17.289  0.00  0.00     0.275 HD
ENDBRANCH   1   5
BRANCH   2  18
HETATM   18  C           1     -24.970  -6.831 -19.821  0.00  0.00     0.194 C 
BRANCH  18  19
HETATM   19  C           1     -23.841  -6.964 -18.807  0.00  0.00     0.138 C 
BRANCH  19  20
HETATM   20  C           1     -24.420  -7.072 -17.418  0.00  0.00     0.217 C 
HETATM   21  O           1     -25.195  -6.234 -17.021  0.00  0.00    -0.274 OA
HETATM   22  N           1     -24.069  -8.117 -16.609  0.00  0.00    -0.370 N 
HETATM   23  H           1     -24.458  -8.189 -15.677  0.00  0.00     0.159 HD
HETATM   24  H           1     -23.421  -8.819 -16.942  0.00  0.00     0.159 HD
ENDBRANCH  19  20
ENDBRANCH  18  19
BRANCH  18  25
HETATM   25  C           1     -24.838  -7.912 -20.866  0.00  0.00     0.197 C 
HETATM   26  O           1     -25.862  -8.448 -21.343  0.00  0.00    -0.646 OA
HETATM   27  O           1     -23.705  -8.270 -21.255  0.00  0.00    -0.646 OA
ENDBRANCH  18  25
ENDBRANCH   2  18
TORSDOF 5
ENDMDL
MODEL 4
REMARK VINA RESULT:      -6.9      9.572     11.571
REMARK  5 active torsions:
REMARK  status: ('A' for Active; 'I' for Inactive)
REMARK       I    between atoms: C_2  and  N_8 
REMARK    1  A    between atoms: C_2  and  C_3 
REMARK    2  A    between atoms: C_5  and  C_24 
REMARK    3  A    between atoms: C_5  and  C_6 
REMARK    4  A    between atoms: C_6  and  C_7 
REMARK    5  A    between atoms: C_6  and  N_8 
REMARK       I    between atoms: N_16  and  C_24 
ROOT
HETATM    1  C           1     -27.221  -6.269 -16.759  0.00  0.00     0.249 C 
HETATM    2  N           1     -26.643  -5.971 -17.964  0.00  0.00    -0.344 N 
HETATM    3  O           1     -27.080  -7.367 -16.276  0.00  0.00    -0.271 OA
HETATM    4  H           1     -26.762  -5.051 -18.368  0.00  0.00     0.163 HD
ENDROOT
BRANCH   1   5
HETATM    5  C           1     -28.035  -5.225 -16.035  0.00  0.00     0.274 C 
HETATM    6  C           1     -29.413  -5.788 -15.712  0.00  0.00     0.042 C 
HETATM    7  C           1     -30.119  -6.175 -17.006  0.00  0.00     0.004 C 
HETATM    8  C           1     -31.412  -5.378 -17.137  0.00  0.00     0.027 C 
HETATM    9  C           1     -31.091  -3.890 -17.159  0.00  0.00     0.229 C 
HETATM   10  N           1     -30.198  -3.588 -18.326  0.00  0.00    -0.079 N 
HETATM   11  H           1     -29.311  -4.133 -18.236  0.00  0.00     0.274 HD
HETATM   12  H           1     -29.977  -2.566 -18.341  0.00  0.00     0.274 HD
HETATM   13  H           1     -30.681  -3.854 -19.214  0.00  0.00     0.274 HD
HETATM   14  H           1     -28.667  -4.279 -17.793  0.00  0.00     0.275 HD
HETATM   15  N           1     -28.182  -4.013 -16.906  0.00  0.00    -0.067 N 
HETATM   16  H           1     -27.237  -3.626 -17.127  0.00  0.00     0.275 HD
HETATM   17  H           1     -28.746  -3.289 -16.406  0.00  0.00     0.275 HD
ENDBRANCH   1   5
BRANCH   2  18
HETATM   18  C           1     -25.860  -6.974 -18.660  0.00  0.00     0.194 C 
BRANCH  18  19
HETATM   19  C           1     -25.852  -6.665 -20.151  0.00  0.00     0.138 C 
BRANCH  19  20
HETATM   20  C           1     -25.648  -7.941 -20.930  0.00  0.00     0.217 C 
HETATM   21  O           1     -26.603  -8.577 -21.307  0.00  0.00    -0.274 OA
HETATM   22  N           1     -24.381  -8.378 -21.208  0.00  0.00    -0.370 N 
HETATM   23  H           1     -24.244  -9.234 -21.731  0.00  0.00     0.159 HD
HETATM   24  H           1     -23.581  -7.845 -20.892  0.00  0.00     0.159 HD
ENDBRANCH  19  20
ENDBRANCH  18  19
BRANCH  18  25
HETATM   25  C           1     -24.446  -6.961 -18.135  0.00  0.00     0.197 C 
HETATM   26  O           1     -23.539  -6.407 -18.795  0.00  0.00    -0.646 OA
HETATM   27  O           1     -24.180  -7.504 -17.041  0.00  0.00    -0.646 OA
ENDBRANCH  18  25
ENDBRANCH   2  18
TORSDOF 5
ENDMDL
MODEL 5
REMARK VINA RESULT:      -6.4      8.969     11.239
REMARK  5 active torsions:
REMARK  status: ('A' for Active; 'I' for Inactive)
REMARK       I    between atoms: C_2  and  N_8 
REMARK    1  A    between atoms: C_2  and  C_3 
REMARK    2  A    between atoms: C_5  and  C_24 
REMARK    3  A    between atoms: C_5  and  C_6 
REMARK    4  A    between atoms: C_6  and  C_7 
REMARK    5  A    between atoms: C_6  and  N_8 
REMARK       I    between atoms: N_16  and  C_24 
ROOT
HETATM    1  C           1     -28.097  -6.833 -17.715  0.00  0.00     0.249 C 
HETATM    2  N           1     -26.831  -6.619 -18.191  0.00  0.00    -0.344 N 
HETATM    3  O           1     -28.261  -7.457 -16.694  0.00  0.00    -0.271 OA
HETATM    4  H           1     -26.695  -6.096 -19.047  0.00  0.00     0.163 HD
ENDROOT
BRANCH   1   5
HETATM    5  C           1     -29.287  -6.288 -18.465  0.00  0.00     0.274 C 
HETATM    6  C           1     -29.079  -4.805 -18.744  0.00  0.00     0.042 C 
HETATM    7  C           1     -28.924  -4.057 -17.425  0.00  0.00     0.004 C 
HETATM    8  C           1     -30.024  -3.010 -17.303  0.00  0.00     0.027 C 
HETATM    9  C           1     -31.384  -3.694 -17.343  0.00  0.00     0.229 C 
HETATM   10  N           1     -31.490  -4.664 -16.203  0.00  0.00    -0.079 N 
HETATM   11  H           1     -30.736  -5.383 -16.287  0.00  0.00     0.274 HD
HETATM   12  H           1     -32.423  -5.134 -16.230  0.00  0.00     0.274 HD
HETATM   13  H           1     -31.383  -4.152 -15.298  0.00  0.00     0.274 HD
HETATM   14  H           1     -30.419  -5.959 -16.734  0.00  0.00     0.275 HD
HETATM   15  N           1     -30.525  -6.471 -17.638  0.00  0.00    -0.067 N 
HETATM   16  H           1     -30.669  -7.489 -17.448  0.00  0.00     0.275 HD
HETATM   17  H           1     -31.351  -6.095 -18.156  0.00  0.00     0.275 HD
ENDBRANCH   1   5
BRANCH   2  18
HETATM   18  C           1     -25.687  -7.141 -17.471  0.00  0.00     0.194 C 
BRANCH  18  19
HETATM   19  C           1     -24.421  -6.888 -18.277  0.00  0.00     0.138 C 
BRANCH  19  20
HETATM   20  C           1     -24.686  -7.172 -19.735  0.00  0.00     0.217 C 
HETATM   21  O           1     -25.181  -6.321 -20.436  0.00  0.00    -0.274 OA
HETATM   22  N           1     -24.368  -8.394 -20.264  0.00  0.00    -0.370 N 
HETATM   23  H           1     -24.546  -8.584 -21.242  0.00  0.00     0.159 HD
HETATM   24  H           1     -23.954  -9.106 -19.677  0.00  0.00     0.159 HD
ENDBRANCH  19  20
ENDBRANCH  18  19
BRANCH  18  25
HETATM   25  C           1     -25.578  -6.452 -16.133  0.00  0.00     0.197 C 
HETATM   26  O           1     -25.772  -5.219 -16.048  0.00  0.00    -0.646 OA
HETATM   27  O           1     -25.295  -7.112 -15.110  0.00  0.00    -0.646 OA
ENDBRANCH  18  25
ENDBRANCH   2  18
TORSDOF 5
ENDMDL
MODEL 6
REMARK VINA RESULT:      -6.3     15.034     17.485
REMARK  5 active torsions:
REMARK  status: ('A' for Active; 'I' for Inactive)
REMARK       I    between atoms: C_2  and  N_8 
REMARK    1  A    between atoms: C_2  and  C_3 
REMARK    2  A    between atoms: C_5  and  C_24 
REMARK    3  A    between atoms: C_5  and  C_6 
REMARK    4  A    between atoms: C_6  and  C_7 
REMARK    5  A    between atoms: C_6  and  N_8 
REMARK       I    between atoms: N_16  and  C_24 
ROOT
HETATM    1  C           1     -20.806  -5.652  -6.368  0.00  0.00     0.249 C 
HETATM    2  N           1     -20.932  -5.736  -5.007  0.00  0.00    -0.344 N 
HETATM    3  O           1     -21.008  -6.625  -7.055  0.00  0.00    -0.271 OA
HETATM    4  H           1     -20.762  -4.921  -4.432  0.00  0.00     0.163 HD
ENDROOT
BRANCH   1   5
HETATM    5  C           1     -20.414  -4.344  -7.009  0.00  0.00     0.274 C 
HETATM    6  C           1     -21.660  -3.641  -7.535  0.00  0.00     0.042 C 
HETATM    7  C           1     -22.346  -4.528  -8.567  0.00  0.00     0.004 C 
HETATM    8  C           1     -22.407  -3.798  -9.903  0.00  0.00     0.027 C 
HETATM    9  C           1     -20.994  -3.475 -10.370  0.00  0.00     0.229 C 
HETATM   10  N           1     -20.217  -4.748 -10.532  0.00  0.00    -0.079 N 
HETATM   11  H           1     -20.174  -5.248  -9.615  0.00  0.00     0.274 HD
HETATM   12  H           1     -19.246  -4.526 -10.852  0.00  0.00     0.274 HD
HETATM   13  H           1     -20.687  -5.357 -11.239  0.00  0.00     0.274 HD
HETATM   14  H           1     -19.944  -5.216  -8.855  0.00  0.00     0.275 HD
HETATM   15  N           1     -19.473  -4.608  -8.147  0.00  0.00    -0.067 N 
HETATM   16  H           1     -18.618  -5.089  -7.787  0.00  0.00     0.275 HD
HETATM   17  H           1     -19.201  -3.703  -8.593  0.00  0.00     0.275 HD
ENDBRANCH   1   5
BRANCH   2  18
HETATM   18  C           1     -21.309  -6.993  -4.390  0.00  0.00     0.194 C 
BRANCH  18  19
HETATM   19  C           1     -20.155  -7.980  -4.505  0.00  0.00     0.138 C 
BRANCH  19  20
HETATM   20  C           1     -20.700  -9.366  -4.752  0.00  0.00     0.217 C 
HETATM   21  O           1     -20.995  -9.708  -5.872  0.00  0.00    -0.274 OA
HETATM   22  N           1     -20.859 -10.234  -3.707  0.00  0.00    -0.370 N 
HETATM   23  H           1     -21.225 -11.164  -3.872  0.00  0.00     0.159 HD
HETATM   24  H           1     -20.612  -9.947  -2.768  0.00  0.00     0.159 HD
ENDBRANCH  19  20
ENDBRANCH  18  19
BRANCH  18  25
HETATM   25  C           1     -21.630  -6.761  -2.934  0.00  0.00     0.197 C 
HETATM   26  O           1     -22.489  -5.911  -2.611  0.00  0.00    -0.646 OA
HETATM   27  O           1     -21.038  -7.418  -2.051  0.00  0.00    -0.646 OA
ENDBRANCH  18  25
ENDBRANCH   2  18
TORSDOF 5
ENDMDL
MODEL 7
REMARK VINA RESULT:      -6.1      9.153     11.565
REMARK  5 active torsions:
REMARK  status: ('A' for Active; 'I' for Inactive)
REMARK       I    between atoms: C_2  and  N_8 
REMARK    1  A    between atoms: C_2  and  C_3 
REMARK    2  A    between atoms: C_5  and  C_24 
REMARK    3  A    between atoms: C_5  and  C_6 
REMARK    4  A    between atoms: C_6  and  C_7 
REMARK    5  A    between atoms: C_6  and  N_8 
REMARK       I    between atoms: N_16  and  C_24 
ROOT
HETATM    1  C           1     -27.176  -6.012 -17.918  0.00  0.00     0.249 C 
HETATM    2  N           1     -26.201  -6.869 -18.354  0.00  0.00    -0.344 N 
HETATM    3  O           1     -26.888  -5.083 -17.202  0.00  0.00    -0.271 OA
HETATM    4  H           1     -26.443  -7.647 -18.953  0.00  0.00     0.163 HD
ENDROOT
BRANCH   1   5
HETATM    5  C           1     -28.611  -6.229 -18.332  0.00  0.00     0.274 C 
HETATM    6  C           1     -29.206  -4.911 -18.812  0.00  0.00     0.042 C 
HETATM    7  C           1     -29.152  -3.888 -17.684  0.00  0.00     0.004 C 
HETATM    8  C           1     -30.565  -3.426 -17.350  0.00  0.00     0.027 C 
HETATM    9  C           1     -31.400  -4.620 -16.912  0.00  0.00     0.229 C 
HETATM   10  N           1     -30.780  -5.247 -15.698  0.00  0.00    -0.079 N 
HETATM   11  H           1     -29.812  -5.566 -15.928  0.00  0.00     0.274 HD
HETATM   12  H           1     -31.354  -6.068 -15.398  0.00  0.00     0.274 HD
HETATM   13  H           1     -30.742  -4.546 -14.924  0.00  0.00     0.274 HD
HETATM   14  H           1     -29.361  -6.033 -16.387  0.00  0.00     0.275 HD
HETATM   15  N           1     -29.398  -6.734 -17.160  0.00  0.00    -0.067 N 
HETATM   16  H           1     -28.990  -7.638 -16.831  0.00  0.00     0.275 HD
HETATM   17  H           1     -30.392  -6.884 -17.445  0.00  0.00     0.275 HD
ENDBRANCH   1   5
BRANCH   2  18
HETATM   18  C           1     -24.823  -6.661 -17.956  0.00  0.00     0.194 C 
BRANCH  18  19
HETATM   19  C           1     -24.511  -7.520 -16.738  0.00  0.00     0.138 C 
BRANCH  19  20
HETATM   20  C           1     -25.297  -7.017 -15.552  0.00  0.00     0.217 C 
HETATM   21  O           1     -26.295  -7.598 -15.198  0.00  0.00    -0.274 OA
HETATM   22  N           1     -24.878  -5.903 -14.877  0.00  0.00    -0.370 N 
HETATM   23  H           1     -25.405  -5.565 -14.081  0.00  0.00     0.159 HD
HETATM   24  H           1     -24.042  -5.416 -15.173  0.00  0.00     0.159 HD
ENDBRANCH  19  20
ENDBRANCH  18  19
BRANCH  18  25
HETATM   25  C           1     -23.908  -7.048 -19.092  0.00  0.00     0.197 C 
HETATM   26  O           1     -22.668  -7.012 -18.937  0.00  0.00    -0.646 OA
HETATM   27  O           1     -24.391  -7.406 -20.189  0.00  0.00    -0.646 OA
ENDBRANCH  18  25
ENDBRANCH   2  18
TORSDOF 5
ENDMDL
MODEL 8
REMARK VINA RESULT:      -6.0     17.590     19.187
REMARK  5 active torsions:
REMARK  status: ('A' for Active; 'I' for Inactive)
REMARK       I    between atoms: C_2  and  N_8 
REMARK    1  A    between atoms: C_2  and  C_3 
REMARK    2  A    between atoms: C_5  and  C_24 
REMARK    3  A    between atoms: C_5  and  C_6 
REMARK    4  A    between atoms: C_6  and  C_7 
REMARK    5  A    between atoms: C_6  and  N_8 
REMARK       I    between atoms: N_16  and  C_24 
ROOT
HETATM    1  C           1     -21.024  -9.967  -2.415  0.00  0.00     0.249 C 
HETATM    2  N           1     -21.684  -8.956  -3.059  0.00  0.00    -0.344 N 
HETATM    3  O           1     -19.990  -9.740  -1.833  0.00  0.00    -0.271 OA
HETATM    4  H           1     -22.550  -9.147  -3.546  0.00  0.00     0.163 HD
ENDROOT
BRANCH   1   5
HETATM    5  C           1     -21.589 -11.367  -2.431  0.00  0.00     0.274 C 
HETATM    6  C           1     -23.065 -11.325  -2.055  0.00  0.00     0.042 C 
HETATM    7  C           1     -23.217 -10.731  -0.660  0.00  0.00     0.004 C 
HETATM    8  C           1     -23.888 -11.750   0.254  0.00  0.00     0.027 C 
HETATM    9  C           1     -23.033 -13.007   0.328  0.00  0.00     0.229 C 
HETATM   10  N           1     -21.680 -12.661   0.875  0.00  0.00    -0.079 N 
HETATM   11  H           1     -21.219 -11.964   0.247  0.00  0.00     0.274 HD
HETATM   12  H           1     -21.092 -13.524   0.925  0.00  0.00     0.274 HD
HETATM   13  H           1     -21.784 -12.253   1.831  0.00  0.00     0.274 HD
HETATM   14  H           1     -20.951 -11.809  -0.485  0.00  0.00     0.275 HD
HETATM   15  N           1     -20.846 -12.216  -1.442  0.00  0.00    -0.067 N 
HETATM   16  H           1     -19.834 -12.245  -1.699  0.00  0.00     0.275 HD
HETATM   17  H           1     -21.236 -13.185  -1.452  0.00  0.00     0.275 HD
ENDBRANCH   1   5
BRANCH   2  18
HETATM   18  C           1     -21.143  -7.611  -3.043  0.00  0.00     0.194 C 
BRANCH  18  19
HETATM   19  C           1     -21.323  -6.976  -4.416  0.00  0.00     0.138 C 
BRANCH  19  20
HETATM   20  C           1     -20.208  -7.424  -5.329  0.00  0.00     0.217 C 
HETATM   21  O           1     -19.446  -8.290  -4.971  0.00  0.00    -0.274 OA
HETATM   22  N           1     -20.059  -6.849  -6.561  0.00  0.00    -0.370 N 
HETATM   23  H           1     -19.311  -7.149  -7.174  0.00  0.00     0.159 HD
HETATM   24  H           1     -20.698  -6.123  -6.861  0.00  0.00     0.159 HD
ENDBRANCH  19  20
ENDBRANCH  18  19
BRANCH  18  25
HETATM   25  C           1     -21.870  -6.788  -2.009  0.00  0.00     0.197 C 
HETATM   26  O           1     -22.060  -7.251  -0.863  0.00  0.00    -0.646 OA
HETATM   27  O           1     -22.283  -5.644  -2.297  0.00  0.00    -0.646 OA
ENDBRANCH  18  25
ENDBRANCH   2  18
TORSDOF 5
ENDMDL
MODEL 9
REMARK VINA RESULT:      -6.0     16.274     19.038
REMARK  5 active torsions:
REMARK  status: ('A' for Active; 'I' for Inactive)
REMARK       I    between atoms: C_2  and  N_8 
REMARK    1  A    between atoms: C_2  and  C_3 
REMARK    2  A    between atoms: C_5  and  C_24 
REMARK    3  A    between atoms: C_5  and  C_6 
REMARK    4  A    between atoms: C_6  and  C_7 
REMARK    5  A    between atoms: C_6  and  N_8 
REMARK       I    between atoms: N_16  and  C_24 
ROOT
HETATM    1  C           1     -19.726  -8.733  -5.009  0.00  0.00     0.249 C 
HETATM    2  N           1     -20.617  -8.386  -4.031  0.00  0.00    -0.344 N 
HETATM    3  O           1     -19.342  -7.904  -5.800  0.00  0.00    -0.271 OA
HETATM    4  H           1     -20.939  -9.081  -3.369  0.00  0.00     0.163 HD
ENDROOT
BRANCH   1   5
HETATM    5  C           1     -19.221 -10.152  -5.101  0.00  0.00     0.274 C 
HETATM    6  C           1     -18.513 -10.526  -3.805  0.00  0.00     0.042 C 
HETATM    7  C           1     -17.338  -9.582  -3.579  0.00  0.00     0.004 C 
HETATM    8  C           1     -16.045 -10.387  -3.521  0.00  0.00     0.027 C 
HETATM    9  C           1     -15.852 -11.133  -4.835  0.00  0.00     0.229 C 
HETATM   10  N           1     -15.777 -10.147  -5.964  0.00  0.00    -0.079 N 
HETATM   11  H           1     -16.664  -9.596  -6.004  0.00  0.00     0.274 HD
HETATM   12  H           1     -15.645 -10.659  -6.865  0.00  0.00     0.274 HD
HETATM   13  H           1     -14.971  -9.499  -5.809  0.00  0.00     0.274 HD
HETATM   14  H           1     -17.454  -9.621  -6.091  0.00  0.00     0.275 HD
HETATM   15  N           1     -18.260 -10.268  -6.246  0.00  0.00    -0.067 N 
HETATM   16  H           1     -18.745 -10.012  -7.135  0.00  0.00     0.275 HD
HETATM   17  H           1     -17.909 -11.250  -6.311  0.00  0.00     0.275 HD
ENDBRANCH   1   5
BRANCH   2  18
HETATM   18  C           1     -21.102  -7.022  -3.942  0.00  0.00     0.194 C 
BRANCH  18  19
HETATM   19  C           1     -22.245  -6.825  -4.929  0.00  0.00     0.138 C 
BRANCH  19  20
HETATM   20  C           1     -21.956  -5.629  -5.803  0.00  0.00     0.217 C 
HETATM   21  O           1     -22.862  -5.050  -6.352  0.00  0.00    -0.274 OA
HETATM   22  N           1     -20.667  -5.202  -5.974  0.00  0.00    -0.370 N 
HETATM   23  H           1     -20.474  -4.399  -6.560  0.00  0.00     0.159 HD
HETATM   24  H           1     -19.908  -5.688  -5.514  0.00  0.00     0.159 HD
ENDBRANCH  19  20
ENDBRANCH  18  19
BRANCH  18  25
HETATM   25  C           1     -21.595  -6.755  -2.541  0.00  0.00     0.197 C 
HETATM   26  O           1     -21.136  -7.411  -1.581  0.00  0.00    -0.646 OA
HETATM   27  O           1     -22.463  -5.877  -2.341  0.00  0.00    -0.646 OA
ENDBRANCH  18  25
ENDBRANCH   2  18
TORSDOF 5
ENDMDL
