MODEL 1
REMARK VINA RESULT:      -8.0      0.000      0.000
REMARK  8 active torsions:
REMARK  status: ('A' for Active; 'I' for Inactive)
REMARK    1  A    between atoms: C_2  and  C_26 
REMARK    2  A    between atoms: C_2  and  C_3 
REMARK    3  A    between atoms: C_2  and  N_14 
REMARK    4  A    between atoms: C_3  and  C_24 
REMARK       I    between atoms: N_14  and  C_22 
REMARK    5  A    between atoms: C_21  and  C_22 
REMARK    6  A    between atoms: C_21  and  C_27 
REMARK    7  A    between atoms: C_21  and  N_23 
REMARK    8  A    between atoms: C_27  and  C_28 
ROOT
HETATM    1  N           1     -19.788  -7.071  -6.390  0.00  0.00    -0.344 N 
HETATM    2  O           1     -19.544  -4.878  -6.045  0.00  0.00    -0.271 OA
HETATM    3  C           1     -20.263  -5.788  -6.386  0.00  0.00     0.249 C 
HETATM    4  H           1     -19.347  -7.445  -7.221  0.00  0.00     0.163 HD
ENDROOT
BRANCH   1   5
HETATM    5  C           1     -19.917  -7.896  -5.205  0.00  0.00     0.190 C 
BRANCH   5   6
HETATM    6  C           1     -18.814  -8.927  -5.188  0.00  0.00     0.197 C 
HETATM    7  O           1     -18.515  -9.539  -6.236  0.00  0.00    -0.646 OA
HETATM    8  O           1     -18.198  -9.166  -4.126  0.00  0.00    -0.646 OA
ENDBRANCH   5   6
BRANCH   5   9
HETATM    9  C           1     -21.268  -8.598  -5.220  0.00  0.00     0.077 C 
BRANCH   9  10
HETATM   10  C           1     -21.557  -9.154  -3.860  0.00  0.00    -0.028 A 
HETATM   11  C           1     -21.617 -10.488  -3.524  0.00  0.00     0.096 A 
HETATM   12  N           1     -21.905 -10.570  -2.187  0.00  0.00    -0.365 N 
HETATM   13  C           1     -22.033  -9.309  -1.649  0.00  0.00     0.042 A 
HETATM   14  H           1     -22.013 -11.465  -1.651  0.00  0.00     0.165 HD
HETATM   15  C           1     -22.320  -8.910  -0.339  0.00  0.00     0.030 A 
HETATM   16  C           1     -21.819  -8.398  -2.683  0.00  0.00    -0.002 A 
HETATM   17  C           1     -22.388  -7.537  -0.080  0.00  0.00     0.002 A 
HETATM   18  C           1     -22.178  -6.604  -1.094  0.00  0.00     0.001 A 
HETATM   19  C           1     -21.892  -7.021  -2.400  0.00  0.00     0.014 A 
ENDBRANCH   9  10
ENDBRANCH   5   9
ENDBRANCH   1   5
BRANCH   3  20
HETATM   20  C           1     -21.685  -5.508  -6.807  0.00  0.00     0.280 C 
BRANCH  20  21
HETATM   21  C           1     -21.766  -4.122  -7.433  0.00  0.00     0.101 C 
BRANCH  21  22
HETATM   22  C           1     -22.727  -4.147  -8.581  0.00  0.00     0.028 A 
HETATM   23  N           1     -24.044  -3.775  -8.502  0.00  0.00    -0.355 N 
HETATM   24  C           1     -24.524  -3.943  -9.712  0.00  0.00     0.180 A 
ATOM     25  HN          1     -24.544  -3.440  -7.679  1.00  0.00     0.166 HD
HETATM   26  N           1     -23.568  -4.410 -10.569  0.00  0.00    -0.360 N 
HETATM   27  H           1     -23.700  -4.625 -11.589  0.00  0.00     0.166 HD
HETATM   28  C           1     -22.410  -4.545  -9.857  0.00  0.00     0.114 A 
ENDBRANCH  21  22
ENDBRANCH  20  21
BRANCH  20  29
HETATM   29  N           1     -22.582  -5.568  -5.607  0.00  0.00    -0.066 N 
HETATM   30  H           1     -22.433  -6.473  -5.105  0.00  0.00     0.275 HD
HETATM   31  H           1     -22.357  -4.774  -4.965  0.00  0.00     0.275 HD
HETATM   32  H           1     -23.579  -5.499  -5.912  0.00  0.00     0.275 HD
ENDBRANCH  20  29
ENDBRANCH   3  20
TORSDOF 8
ENDMDL
MODEL 2
REMARK VINA RESULT:      -7.9      1.427      2.078
REMARK  8 active torsions:
REMARK  status: ('A' for Active; 'I' for Inactive)
REMARK    1  A    between atoms: C_2  and  C_26 
REMARK    2  A    between atoms: C_2  and  C_3 
REMARK    3  A    between atoms: C_2  and  N_14 
REMARK    4  A    between atoms: C_3  and  C_24 
REMARK       I    between atoms: N_14  and  C_22 
REMARK    5  A    between atoms: C_21  and  C_22 
REMARK    6  A    between atoms: C_21  and  C_27 
REMARK    7  A    between atoms: C_21  and  N_23 
REMARK    8  A    between atoms: C_27  and  C_28 
ROOT
HETATM    1  N           1     -20.846  -7.474  -6.087  0.00  0.00    -0.344 N 
HETATM    2  O           1     -19.324  -6.450  -7.361  0.00  0.00    -0.271 OA
HETATM    3  C           1     -20.290  -6.353  -6.642  0.00  0.00     0.249 C 
HETATM    4  H           1     -21.579  -7.971  -6.578  0.00  0.00     0.163 HD
ENDROOT
BRANCH   1   5
HETATM    5  C           1     -20.387  -7.947  -4.796  0.00  0.00     0.190 C 
BRANCH   5   6
HETATM    6  C           1     -19.268  -8.940  -4.996  0.00  0.00     0.197 C 
HETATM    7  O           1     -18.411  -9.104  -4.101  0.00  0.00    -0.646 OA
HETATM    8  O           1     -19.200  -9.601  -6.056  0.00  0.00    -0.646 OA
ENDBRANCH   5   6
BRANCH   5   9
HETATM    9  C           1     -21.540  -8.622  -4.064  0.00  0.00     0.077 C 
BRANCH   9  10
HETATM   10  C           1     -21.734  -7.968  -2.731  0.00  0.00    -0.028 A 
HETATM   11  C           1     -22.179  -6.684  -2.514  0.00  0.00     0.096 A 
HETATM   12  N           1     -22.217  -6.477  -1.160  0.00  0.00    -0.365 N 
HETATM   13  C           1     -21.803  -7.609  -0.494  0.00  0.00     0.042 A 
HETATM   14  H           1     -22.517  -5.584  -0.697  0.00  0.00     0.165 HD
HETATM   15  C           1     -21.682  -7.857   0.878  0.00  0.00     0.030 A 
HETATM   16  C           1     -21.493  -8.564  -1.462  0.00  0.00    -0.002 A 
HETATM   17  C           1     -21.230  -9.121   1.270  0.00  0.00     0.002 A 
HETATM   18  C           1     -20.913 -10.095   0.325  0.00  0.00     0.001 A 
HETATM   19  C           1     -21.040  -9.831  -1.044  0.00  0.00     0.014 A 
ENDBRANCH   9  10
ENDBRANCH   5   9
ENDBRANCH   1   5
BRANCH   3  20
HETATM   20  C           1     -20.884  -4.995  -6.356  0.00  0.00     0.280 C 
BRANCH  20  21
HETATM   21  C           1     -20.635  -4.072  -7.542  0.00  0.00     0.101 C 
BRANCH  21  22
HETATM   22  C           1     -21.826  -4.089  -8.448  0.00  0.00     0.028 A 
HETATM   23  N           1     -23.110  -3.821  -8.051  0.00  0.00    -0.355 N 
HETATM   24  C           1     -23.841  -3.942  -9.136  0.00  0.00     0.180 A 
ATOM     25  HN          1     -23.431  -3.580  -7.113  1.00  0.00     0.166 HD
HETATM   26  N           1     -23.077  -4.279 -10.217  0.00  0.00    -0.360 N 
HETATM   27  H           1     -23.422  -4.434 -11.197  0.00  0.00     0.166 HD
HETATM   28  C           1     -21.782  -4.377  -9.791  0.00  0.00     0.114 A 
ENDBRANCH  21  22
ENDBRANCH  20  21
BRANCH  20  29
HETATM   29  N           1     -20.241  -4.418  -5.130  0.00  0.00    -0.066 N 
HETATM   30  H           1     -19.688  -3.570  -5.392  0.00  0.00     0.275 HD
HETATM   31  H           1     -20.981  -4.151  -4.442  0.00  0.00     0.275 HD
HETATM   32  H           1     -19.607  -5.130  -4.702  0.00  0.00     0.275 HD
ENDBRANCH  20  29
ENDBRANCH   3  20
TORSDOF 8
ENDMDL
MODEL 3
REMARK VINA RESULT:      -7.7      1.874      7.931
REMARK  8 active torsions:
REMARK  status: ('A' for Active; 'I' for Inactive)
REMARK    1  A    between atoms: C_2  and  C_26 
REMARK    2  A    between atoms: C_2  and  C_3 
REMARK    3  A    between atoms: C_2  and  N_14 
REMARK    4  A    between atoms: C_3  and  C_24 
REMARK       I    between atoms: N_14  and  C_22 
REMARK    5  A    between atoms: C_21  and  C_22 
REMARK    6  A    between atoms: C_21  and  C_27 
REMARK    7  A    between atoms: C_21  and  N_23 
REMARK    8  A    between atoms: C_27  and  C_28 
ROOT
HETATM    1  N           1     -22.427  -6.381  -4.332  0.00  0.00    -0.344 N 
HETATM    2  O           1     -20.935  -5.642  -2.843  0.00  0.00    -0.271 OA
HETATM    3  C           1     -21.585  -6.568  -3.269  0.00  0.00     0.249 C 
HETATM    4  H           1     -23.389  -6.109  -4.173  0.00  0.00     0.163 HD
ENDROOT
BRANCH   1   5
HETATM    5  C           1     -21.941  -6.574  -5.684  0.00  0.00     0.190 C 
BRANCH   5   6
HETATM    6  C           1     -20.939  -7.702  -5.701  0.00  0.00     0.197 C 
HETATM    7  O           1     -21.332  -8.888  -5.699  0.00  0.00    -0.646 OA
HETATM    8  O           1     -19.714  -7.450  -5.719  0.00  0.00    -0.646 OA
ENDBRANCH   5   6
BRANCH   5   9
HETATM    9  C           1     -21.274  -5.294  -6.171  0.00  0.00     0.077 C 
BRANCH   9  10
HETATM   10  C           1     -22.051  -4.732  -7.321  0.00  0.00    -0.028 A 
HETATM   11  C           1     -23.371  -4.344  -7.295  0.00  0.00     0.096 A 
HETATM   12  N           1     -23.697  -3.888  -8.546  0.00  0.00    -0.365 N 
HETATM   13  C           1     -22.608  -3.974  -9.383  0.00  0.00     0.042 A 
HETATM   14  H           1     -24.642  -3.526  -8.825  0.00  0.00     0.165 HD
HETATM   15  C           1     -22.474  -3.627 -10.733  0.00  0.00     0.030 A 
HETATM   16  C           1     -21.556  -4.504  -8.635  0.00  0.00    -0.002 A 
HETATM   17  C           1     -21.227  -3.828 -11.332  0.00  0.00     0.002 A 
HETATM   18  C           1     -20.158  -4.355 -10.609  0.00  0.00     0.001 A 
HETATM   19  C           1     -20.309  -4.697  -9.260  0.00  0.00     0.014 A 
ENDBRANCH   9  10
ENDBRANCH   5   9
ENDBRANCH   1   5
BRANCH   3  20
HETATM   20  C           1     -21.468  -7.929  -2.628  0.00  0.00     0.280 C 
BRANCH  20  21
HETATM   21  C           1     -21.870  -7.837  -1.163  0.00  0.00     0.101 C 
BRANCH  21  22
HETATM   22  C           1     -21.885  -9.208  -0.561  0.00  0.00     0.028 A 
HETATM   23  N           1     -20.981  -9.663   0.364  0.00  0.00    -0.355 N 
HETATM   24  C           1     -21.345 -10.897   0.627  0.00  0.00     0.180 A 
ATOM     25  HN          1     -20.194  -9.152   0.763  1.00  0.00     0.166 HD
HETATM   26  N           1     -22.449 -11.257  -0.094  0.00  0.00    -0.360 N 
HETATM   27  H           1     -22.933 -12.188  -0.065  0.00  0.00     0.166 HD
HETATM   28  C           1     -22.806 -10.183  -0.861  0.00  0.00     0.114 A 
ENDBRANCH  21  22
ENDBRANCH  20  21
BRANCH  20  29
HETATM   29  N           1     -20.050  -8.408  -2.729  0.00  0.00    -0.066 N 
HETATM   30  H           1     -19.946  -9.014  -3.575  0.00  0.00     0.275 HD
HETATM   31  H           1     -19.411  -7.586  -2.811  0.00  0.00     0.275 HD
HETATM   32  H           1     -19.806  -8.958  -1.875  0.00  0.00     0.275 HD
ENDBRANCH  20  29
ENDBRANCH   3  20
TORSDOF 8
ENDMDL
MODEL 4
REMARK VINA RESULT:      -7.6      2.045      2.551
REMARK  8 active torsions:
REMARK  status: ('A' for Active; 'I' for Inactive)
REMARK    1  A    between atoms: C_2  and  C_26 
REMARK    2  A    between atoms: C_2  and  C_3 
REMARK    3  A    between atoms: C_2  and  N_14 
REMARK    4  A    between atoms: C_3  and  C_24 
REMARK       I    between atoms: N_14  and  C_22 
REMARK    5  A    between atoms: C_21  and  C_22 
REMARK    6  A    between atoms: C_21  and  C_27 
REMARK    7  A    between atoms: C_21  and  N_23 
REMARK    8  A    between atoms: C_27  and  C_28 
ROOT
HETATM    1  N           1     -20.256  -6.836  -6.097  0.00  0.00    -0.344 N 
HETATM    2  O           1     -19.903  -4.668  -5.691  0.00  0.00    -0.271 OA
HETATM    3  C           1     -20.404  -5.509  -6.399  0.00  0.00     0.249 C 
HETATM    4  H           1     -19.470  -7.354  -6.469  0.00  0.00     0.163 HD
ENDROOT
BRANCH   1   5
HETATM    5  C           1     -21.223  -7.498  -5.244  0.00  0.00     0.190 C 
BRANCH   5   6
HETATM    6  C           1     -22.082  -6.461  -4.561  0.00  0.00     0.197 C 
HETATM    7  O           1     -23.166  -6.111  -5.074  0.00  0.00    -0.646 OA
HETATM    8  O           1     -21.709  -5.955  -3.480  0.00  0.00    -0.646 OA
ENDBRANCH   5   6
BRANCH   5   9
HETATM    9  C           1     -20.492  -8.324  -4.194  0.00  0.00     0.077 C 
BRANCH   9  10
HETATM   10  C           1     -21.354  -9.475  -3.776  0.00  0.00    -0.028 A 
HETATM   11  C           1     -21.671 -10.572  -4.544  0.00  0.00     0.096 A 
HETATM   12  N           1     -22.478 -11.388  -3.795  0.00  0.00    -0.365 N 
HETATM   13  C           1     -22.690 -10.837  -2.551  0.00  0.00     0.042 A 
HETATM   14  H           1     -22.877 -12.302  -4.122  0.00  0.00     0.165 HD
HETATM   15  C           1     -23.439 -11.310  -1.468  0.00  0.00     0.030 A 
HETATM   16  C           1     -21.992  -9.629  -2.514  0.00  0.00    -0.002 A 
HETATM   17  C           1     -23.473 -10.524  -0.312  0.00  0.00     0.002 A 
HETATM   18  C           1     -22.786  -9.313  -0.246  0.00  0.00     0.001 A 
HETATM   19  C           1     -22.042  -8.854  -1.339  0.00  0.00     0.014 A 
ENDBRANCH   9  10
ENDBRANCH   5   9
ENDBRANCH   1   5
BRANCH   3  20
HETATM   20  C           1     -21.195  -5.097  -7.618  0.00  0.00     0.280 C 
BRANCH  20  21
HETATM   21  C           1     -20.259  -4.469  -8.642  0.00  0.00     0.101 C 
BRANCH  21  22
HETATM   22  C           1     -20.973  -4.324  -9.949  0.00  0.00     0.028 A 
HETATM   23  N           1     -22.260  -4.736 -10.183  0.00  0.00    -0.355 N 
HETATM   24  C           1     -22.499  -4.428 -11.437  0.00  0.00     0.180 A 
ATOM     25  HN          1     -22.895  -5.185  -9.524  1.00  0.00     0.166 HD
HETATM   26  N           1     -21.416  -3.836 -12.022  0.00  0.00    -0.360 N 
HETATM   27  H           1     -21.353  -3.498 -13.014  0.00  0.00     0.166 HD
HETATM   28  C           1     -20.429  -3.762 -11.079  0.00  0.00     0.114 A 
ENDBRANCH  21  22
ENDBRANCH  20  21
BRANCH  20  29
HETATM   29  N           1     -22.241  -4.099  -7.219  0.00  0.00    -0.066 N 
HETATM   30  H           1     -21.884  -3.517  -6.426  0.00  0.00     0.275 HD
HETATM   31  H           1     -22.460  -3.481  -8.032  0.00  0.00     0.275 HD
HETATM   32  H           1     -23.106  -4.603  -6.919  0.00  0.00     0.275 HD
ENDBRANCH  20  29
ENDBRANCH   3  20
TORSDOF 8
ENDMDL
MODEL 5
REMARK VINA RESULT:      -7.5      2.803      4.824
REMARK  8 active torsions:
REMARK  status: ('A' for Active; 'I' for Inactive)
REMARK    1  A    between atoms: C_2  and  C_26 
REMARK    2  A    between atoms: C_2  and  C_3 
REMARK    3  A    between atoms: C_2  and  N_14 
REMARK    4  A    between atoms: C_3  and  C_24 
REMARK       I    between atoms: N_14  and  C_22 
REMARK    5  A    between atoms: C_21  and  C_22 
REMARK    6  A    between atoms: C_21  and  C_27 
REMARK    7  A    between atoms: C_21  and  N_23 
REMARK    8  A    between atoms: C_27  and  C_28 
ROOT
HETATM    1  N           1     -20.863  -7.430  -2.272  0.00  0.00    -0.344 N 
HETATM    2  O           1     -22.396  -5.810  -2.378  0.00  0.00    -0.271 OA
HETATM    3  C           1     -21.620  -6.526  -2.966  0.00  0.00     0.249 C 
HETATM    4  H           1     -19.954  -7.163  -1.917  0.00  0.00     0.163 HD
ENDROOT
BRANCH   1   5
HETATM    5  C           1     -21.364  -8.772  -2.045  0.00  0.00     0.190 C 
BRANCH   5   6
HETATM    6  C           1     -22.052  -8.830  -0.702  0.00  0.00     0.197 C 
HETATM    7  O           1     -23.035  -9.584  -0.536  0.00  0.00    -0.646 OA
HETATM    8  O           1     -21.637  -8.125   0.244  0.00  0.00    -0.646 OA
ENDBRANCH   5   6
BRANCH   5   9
HETATM    9  C           1     -20.202  -9.757  -2.063  0.00  0.00     0.077 C 
BRANCH   9  10
HETATM   10  C           1     -19.628  -9.825  -3.444  0.00  0.00    -0.028 A 
HETATM   11  C           1     -20.342  -9.946  -4.614  0.00  0.00     0.096 A 
HETATM   12  N           1     -19.445  -9.973  -5.650  0.00  0.00    -0.365 N 
HETATM   13  C           1     -18.159  -9.871  -5.170  0.00  0.00     0.042 A 
HETATM   14  H           1     -19.703 -10.060  -6.664  0.00  0.00     0.165 HD
HETATM   15  C           1     -16.938  -9.855  -5.853  0.00  0.00     0.030 A 
HETATM   16  C           1     -18.247  -9.776  -3.781  0.00  0.00    -0.002 A 
HETATM   17  C           1     -15.771  -9.738  -5.090  0.00  0.00     0.002 A 
HETATM   18  C           1     -15.828  -9.641  -3.701  0.00  0.00     0.001 A 
HETATM   19  C           1     -17.059  -9.659  -3.033  0.00  0.00     0.014 A 
ENDBRANCH   9  10
ENDBRANCH   5   9
ENDBRANCH   1   5
BRANCH   3  20
HETATM   20  C           1     -21.486  -6.422  -4.466  0.00  0.00     0.280 C 
BRANCH  20  21
HETATM   21  C           1     -20.565  -5.260  -4.814  0.00  0.00     0.101 C 
BRANCH  21  22
HETATM   22  C           1     -20.549  -5.062  -6.298  0.00  0.00     0.028 A 
HETATM   23  N           1     -20.126  -6.000  -7.204  0.00  0.00    -0.355 N 
HETATM   24  C           1     -20.273  -5.436  -8.380  0.00  0.00     0.180 A 
ATOM     25  HN          1     -19.772  -6.937  -7.006  1.00  0.00     0.166 HD
HETATM   26  N           1     -20.772  -4.170  -8.269  0.00  0.00    -0.360 N 
HETATM   27  H           1     -20.979  -3.511  -9.060  0.00  0.00     0.166 HD
HETATM   28  C           1     -20.955  -3.917  -6.938  0.00  0.00     0.114 A 
ENDBRANCH  21  22
ENDBRANCH  20  21
BRANCH  20  29
HETATM   29  N           1     -22.838  -6.188  -5.072  0.00  0.00    -0.066 N 
HETATM   30  H           1     -23.383  -5.534  -4.465  0.00  0.00     0.275 HD
HETATM   31  H           1     -22.725  -5.767  -6.022  0.00  0.00     0.275 HD
HETATM   32  H           1     -23.346  -7.097  -5.150  0.00  0.00     0.275 HD
ENDBRANCH  20  29
ENDBRANCH   3  20
TORSDOF 8
ENDMDL
MODEL 6
REMARK VINA RESULT:      -7.5     12.570     15.523
REMARK  8 active torsions:
REMARK  status: ('A' for Active; 'I' for Inactive)
REMARK    1  A    between atoms: C_2  and  C_26 
REMARK    2  A    between atoms: C_2  and  C_3 
REMARK    3  A    between atoms: C_2  and  N_14 
REMARK    4  A    between atoms: C_3  and  C_24 
REMARK       I    between atoms: N_14  and  C_22 
REMARK    5  A    between atoms: C_21  and  C_22 
REMARK    6  A    between atoms: C_21  and  C_27 
REMARK    7  A    between atoms: C_21  and  N_23 
REMARK    8  A    between atoms: C_27  and  C_28 
ROOT
HETATM    1  N           1     -25.664  -7.211 -18.135  0.00  0.00    -0.344 N 
HETATM    2  O           1     -23.869  -6.274 -19.077  0.00  0.00    -0.271 OA
HETATM    3  C           1     -24.990  -6.704 -19.213  0.00  0.00     0.249 C 
HETATM    4  H           1     -25.587  -8.194 -17.906  0.00  0.00     0.163 HD
ENDROOT
BRANCH   1   5
HETATM    5  C           1     -26.488  -6.340 -17.320  0.00  0.00     0.190 C 
BRANCH   5   6
HETATM    6  C           1     -26.134  -6.530 -15.865  0.00  0.00     0.197 C 
HETATM    7  O           1     -25.183  -5.891 -15.365  0.00  0.00    -0.646 OA
HETATM    8  O           1     -26.793  -7.325 -15.160  0.00  0.00    -0.646 OA
ENDBRANCH   5   6
BRANCH   5   9
HETATM    9  C           1     -27.956  -6.684 -17.535  0.00  0.00     0.077 C 
BRANCH   9  10
HETATM   10  C           1     -28.770  -5.427 -17.530  0.00  0.00    -0.028 A 
HETATM   11  C           1     -28.291  -4.151 -17.723  0.00  0.00     0.096 A 
HETATM   12  N           1     -29.354  -3.290 -17.643  0.00  0.00    -0.365 N 
HETATM   13  C           1     -30.516  -3.988 -17.403  0.00  0.00     0.042 A 
HETATM   14  H           1     -29.292  -2.247 -17.751  0.00  0.00     0.165 HD
HETATM   15  C           1     -31.830  -3.532 -17.248  0.00  0.00     0.030 A 
HETATM   16  C           1     -30.175  -5.338 -17.327  0.00  0.00    -0.002 A 
HETATM   17  C           1     -32.823  -4.487 -17.009  0.00  0.00     0.002 A 
HETATM   18  C           1     -32.511  -5.843 -16.928  0.00  0.00     0.001 A 
HETATM   19  C           1     -31.191  -6.283 -17.085  0.00  0.00     0.014 A 
ENDBRANCH   9  10
ENDBRANCH   5   9
ENDBRANCH   1   5
BRANCH   3  20
HETATM   20  C           1     -25.646  -6.683 -20.572  0.00  0.00     0.280 C 
BRANCH  20  21
HETATM   21  C           1     -25.541  -8.062 -21.209  0.00  0.00     0.101 C 
BRANCH  21  22
HETATM   22  C           1     -24.122  -8.320 -21.611  0.00  0.00     0.028 A 
HETATM   23  N           1     -23.116  -8.660 -20.744  0.00  0.00    -0.355 N 
HETATM   24  C           1     -22.045  -8.795 -21.491  0.00  0.00     0.180 A 
ATOM     25  HN          1     -23.185  -8.783 -19.734  1.00  0.00     0.166 HD
HETATM   26  N           1     -22.320  -8.552 -22.807  0.00  0.00    -0.360 N 
HETATM   27  H           1     -21.635  -8.593 -23.603  0.00  0.00     0.166 HD
HETATM   28  C           1     -23.649  -8.246 -22.899  0.00  0.00     0.114 A 
ENDBRANCH  21  22
ENDBRANCH  20  21
BRANCH  20  29
HETATM   29  N           1     -24.957  -5.676 -21.443  0.00  0.00    -0.066 N 
HETATM   30  H           1     -24.219  -5.183 -20.890  0.00  0.00     0.275 HD
HETATM   31  H           1     -24.514  -6.163 -22.255  0.00  0.00     0.275 HD
HETATM   32  H           1     -25.654  -4.980 -21.790  0.00  0.00     0.275 HD
ENDBRANCH  20  29
ENDBRANCH   3  20
TORSDOF 8
ENDMDL
MODEL 7
REMARK VINA RESULT:      -7.3     12.550     15.572
REMARK  8 active torsions:
REMARK  status: ('A' for Active; 'I' for Inactive)
REMARK    1  A    between atoms: C_2  and  C_26 
REMARK    2  A    between atoms: C_2  and  C_3 
REMARK    3  A    between atoms: C_2  and  N_14 
REMARK    4  A    between atoms: C_3  and  C_24 
REMARK       I    between atoms: N_14  and  C_22 
REMARK    5  A    between atoms: C_21  and  C_22 
REMARK    6  A    between atoms: C_21  and  C_27 
REMARK    7  A    between atoms: C_21  and  N_23 
REMARK    8  A    between atoms: C_27  and  C_28 
ROOT
HETATM    1  N           1     -26.685  -5.626 -17.876  0.00  0.00    -0.344 N 
HETATM    2  O           1     -27.896  -4.654 -16.271  0.00  0.00    -0.271 OA
HETATM    3  C           1     -27.875  -5.348 -17.260  0.00  0.00     0.249 C 
HETATM    4  H           1     -26.339  -5.017 -18.606  0.00  0.00     0.163 HD
ENDROOT
BRANCH   1   5
HETATM    5  C           1     -25.921  -6.794 -17.483  0.00  0.00     0.190 C 
BRANCH   5   6
HETATM    6  C           1     -25.730  -6.788 -15.985  0.00  0.00     0.197 C 
HETATM    7  O           1     -24.953  -5.964 -15.457  0.00  0.00    -0.646 OA
HETATM    8  O           1     -26.352  -7.606 -15.273  0.00  0.00    -0.646 OA
ENDBRANCH   5   6
BRANCH   5   9
HETATM    9  C           1     -24.561  -6.763 -18.167  0.00  0.00     0.077 C 
BRANCH   9  10
HETATM   10  C           1     -24.717  -7.152 -19.605  0.00  0.00    -0.028 A 
HETATM   11  C           1     -25.853  -6.999 -20.368  0.00  0.00     0.096 A 
HETATM   12  N           1     -25.581  -7.478 -21.623  0.00  0.00    -0.365 N 
HETATM   13  C           1     -24.286  -7.940 -21.686  0.00  0.00     0.042 A 
HETATM   14  H           1     -26.263  -7.492 -22.420  0.00  0.00     0.165 HD
HETATM   15  C           1     -23.579  -8.508 -22.753  0.00  0.00     0.030 A 
HETATM   16  C           1     -23.719  -7.746 -20.427  0.00  0.00    -0.002 A 
HETATM   17  C           1     -22.254  -8.888 -22.522  0.00  0.00     0.002 A 
HETATM   18  C           1     -21.661  -8.706 -21.273  0.00  0.00     0.001 A 
HETATM   19  C           1     -22.382  -8.136 -20.217  0.00  0.00     0.014 A 
ENDBRANCH   9  10
ENDBRANCH   5   9
ENDBRANCH   1   5
BRANCH   3  20
HETATM   20  C           1     -29.162  -5.909 -17.815  0.00  0.00     0.280 C 
BRANCH  20  21
HETATM   21  C           1     -30.204  -5.984 -16.707  0.00  0.00     0.101 C 
BRANCH  21  22
HETATM   22  C           1     -31.262  -4.952 -16.945  0.00  0.00     0.028 A 
HETATM   23  N           1     -32.569  -5.073 -16.551  0.00  0.00    -0.355 N 
HETATM   24  C           1     -33.154  -3.966 -16.946  0.00  0.00     0.180 A 
ATOM     25  HN          1     -32.997  -5.855 -16.055  1.00  0.00     0.166 HD
HETATM   26  N           1     -32.275  -3.136 -17.583  0.00  0.00    -0.360 N 
HETATM   27  H           1     -32.495  -2.194 -17.991  0.00  0.00     0.166 HD
HETATM   28  C           1     -31.057  -3.756 -17.588  0.00  0.00     0.114 A 
ENDBRANCH  21  22
ENDBRANCH  20  21
BRANCH  20  29
HETATM   29  N           1     -28.912  -7.284 -18.360  0.00  0.00    -0.066 N 
HETATM   30  H           1     -27.968  -7.614 -18.053  0.00  0.00     0.275 HD
HETATM   31  H           1     -29.642  -7.939 -17.999  0.00  0.00     0.275 HD
HETATM   32  H           1     -28.950  -7.258 -19.403  0.00  0.00     0.275 HD
ENDBRANCH  20  29
ENDBRANCH   3  20
TORSDOF 8
ENDMDL
MODEL 8
REMARK VINA RESULT:      -7.2      1.678      2.363
REMARK  8 active torsions:
REMARK  status: ('A' for Active; 'I' for Inactive)
REMARK    1  A    between atoms: C_2  and  C_26 
REMARK    2  A    between atoms: C_2  and  C_3 
REMARK    3  A    between atoms: C_2  and  N_14 
REMARK    4  A    between atoms: C_3  and  C_24 
REMARK       I    between atoms: N_14  and  C_22 
REMARK    5  A    between atoms: C_21  and  C_22 
REMARK    6  A    between atoms: C_21  and  C_27 
REMARK    7  A    between atoms: C_21  and  N_23 
REMARK    8  A    between atoms: C_27  and  C_28 
ROOT
HETATM    1  N           1     -21.079  -8.309  -6.046  0.00  0.00    -0.344 N 
HETATM    2  O           1     -19.809  -6.701  -6.934  0.00  0.00    -0.271 OA
HETATM    3  C           1     -20.819  -6.998  -6.340  0.00  0.00     0.249 C 
HETATM    4  H           1     -21.599  -8.881  -6.700  0.00  0.00     0.163 HD
ENDROOT
BRANCH   1   5
HETATM    5  C           1     -20.611  -8.878  -4.797  0.00  0.00     0.190 C 
BRANCH   5   6
HETATM    6  C           1     -19.226  -9.446  -4.992  0.00  0.00     0.197 C 
HETATM    7  O           1     -19.013 -10.276  -5.902  0.00  0.00    -0.646 OA
HETATM    8  O           1     -18.292  -9.084  -4.244  0.00  0.00    -0.646 OA
ENDBRANCH   5   6
BRANCH   5   9
HETATM    9  C           1     -21.558  -9.988  -4.360  0.00  0.00     0.077 C 
BRANCH   9  10
HETATM   10  C           1     -21.880  -9.826  -2.906  0.00  0.00    -0.028 A 
HETATM   11  C           1     -21.577  -8.734  -2.126  0.00  0.00     0.096 A 
HETATM   12  N           1     -22.042  -8.982  -0.861  0.00  0.00    -0.365 N 
HETATM   13  C           1     -22.644 -10.219  -0.809  0.00  0.00     0.042 A 
HETATM   14  H           1     -21.953  -8.323  -0.049  0.00  0.00     0.165 HD
HETATM   15  C           1     -23.254 -10.884   0.261  0.00  0.00     0.030 A 
HETATM   16  C           1     -22.555 -10.772  -2.086  0.00  0.00    -0.002 A 
HETATM   17  C           1     -23.789 -12.152   0.015  0.00  0.00     0.002 A 
HETATM   18  C           1     -23.715 -12.729  -1.251  0.00  0.00     0.001 A 
HETATM   19  C           1     -23.101 -12.051  -2.311  0.00  0.00     0.014 A 
ENDBRANCH   9  10
ENDBRANCH   5   9
ENDBRANCH   1   5
BRANCH   3  20
HETATM   20  C           1     -21.792  -5.922  -5.923  0.00  0.00     0.280 C 
BRANCH  20  21
HETATM   21  C           1     -21.355  -4.587  -6.509  0.00  0.00     0.101 C 
BRANCH  21  22
HETATM   22  C           1     -22.140  -4.305  -7.753  0.00  0.00     0.028 A 
HETATM   23  N           1     -23.495  -4.106  -7.789  0.00  0.00    -0.355 N 
HETATM   24  C           1     -23.781  -3.892  -9.052  0.00  0.00     0.180 A 
ATOM     25  HN          1     -24.145  -4.120  -7.002  1.00  0.00     0.166 HD
HETATM   26  N           1     -22.661  -3.947  -9.834  0.00  0.00    -0.360 N 
HETATM   27  H           1     -22.622  -3.812 -10.874  0.00  0.00     0.166 HD
HETATM   28  C           1     -21.601  -4.211  -9.013  0.00  0.00     0.114 A 
ENDBRANCH  21  22
ENDBRANCH  20  21
BRANCH  20  29
HETATM   29  N           1     -21.819  -5.828  -4.427  0.00  0.00    -0.066 N 
HETATM   30  H           1     -20.895  -6.129  -4.042  0.00  0.00     0.275 HD
HETATM   31  H           1     -22.007  -4.839  -4.144  0.00  0.00     0.275 HD
HETATM   32  H           1     -22.572  -6.448  -4.052  0.00  0.00     0.275 HD
ENDBRANCH  20  29
ENDBRANCH   3  20
TORSDOF 8
ENDMDL
MODEL 9
REMARK VINA RESULT:      -7.1      2.774      7.346
REMARK  8 active torsions:
REMARK  status: ('A' for Active; 'I' for Inactive)
REMARK    1  A    between atoms: C_2  and  C_26 
REMARK    2  A    between atoms: C_2  and  C_3 
REMARK    3  A    between atoms: C_2  and  N_14 
REMARK    4  A    between atoms: C_3  and  C_24 
REMARK       I    between atoms: N_14  and  C_22 
REMARK    5  A    between atoms: C_21  and  C_22 
REMARK    6  A    between atoms: C_21  and  C_27 
REMARK    7  A    between atoms: C_21  and  N_23 
REMARK    8  A    between atoms: C_27  and  C_28 
ROOT
HETATM    1  N           1     -21.639  -8.726  -3.484  0.00  0.00    -0.344 N 
HETATM    2  O           1     -20.222  -9.815  -2.145  0.00  0.00    -0.271 OA
HETATM    3  C           1     -20.568  -9.551  -3.272  0.00  0.00     0.249 C 
HETATM    4  H           1     -22.570  -9.116  -3.561  0.00  0.00     0.163 HD
ENDROOT
BRANCH   1   5
HETATM    5  C           1     -21.441  -7.295  -3.599  0.00  0.00     0.190 C 
BRANCH   5   6
HETATM    6  C           1     -21.845  -6.627  -2.308  0.00  0.00     0.197 C 
HETATM    7  O           1     -21.773  -5.384  -2.197  0.00  0.00    -0.646 OA
HETATM    8  O           1     -22.254  -7.318  -1.348  0.00  0.00    -0.646 OA
ENDBRANCH   5   6
BRANCH   5   9
HETATM    9  C           1     -22.294  -6.755  -4.739  0.00  0.00     0.077 C 
BRANCH   9  10
HETATM   10  C           1     -21.406  -6.314  -5.862  0.00  0.00    -0.028 A 
HETATM   11  C           1     -20.093  -6.682  -6.050  0.00  0.00     0.096 A 
HETATM   12  N           1     -19.644  -6.063  -7.188  0.00  0.00    -0.365 N 
HETATM   13  C           1     -20.647  -5.300  -7.742  0.00  0.00     0.042 A 
HETATM   14  H           1     -18.676  -6.158  -7.580  0.00  0.00     0.165 HD
HETATM   15  C           1     -20.646  -4.503  -8.892  0.00  0.00     0.030 A 
HETATM   16  C           1     -21.769  -5.440  -6.924  0.00  0.00    -0.002 A 
HETATM   17  C           1     -21.830  -3.832  -9.216  0.00  0.00     0.002 A 
HETATM   18  C           1     -22.966  -3.954  -8.418  0.00  0.00     0.001 A 
HETATM   19  C           1     -22.950  -4.754  -7.269  0.00  0.00     0.014 A 
ENDBRANCH   9  10
ENDBRANCH   5   9
ENDBRANCH   1   5
BRANCH   3  20
HETATM   20  C           1     -19.818 -10.132  -4.447  0.00  0.00     0.280 C 
BRANCH  20  21
HETATM   21  C           1     -18.602  -9.267  -4.750  0.00  0.00     0.101 C 
BRANCH  21  22
HETATM   22  C           1     -17.403  -9.824  -4.047  0.00  0.00     0.028 A 
HETATM   23  N           1     -17.012  -9.474  -2.781  0.00  0.00    -0.355 N 
HETATM   24  C           1     -15.931 -10.181  -2.544  0.00  0.00     0.180 A 
ATOM     25  HN          1     -17.464  -8.806  -2.155  1.00  0.00     0.166 HD
HETATM   26  N           1     -15.609 -10.973  -3.610  0.00  0.00    -0.360 N 
HETATM   27  H           1     -14.792 -11.629  -3.671  0.00  0.00     0.166 HD
HETATM   28  C           1     -16.545 -10.754  -4.581  0.00  0.00     0.114 A 
ENDBRANCH  21  22
ENDBRANCH  20  21
BRANCH  20  29
HETATM   29  N           1     -20.718 -10.167  -5.645  0.00  0.00    -0.066 N 
HETATM   30  H           1     -20.806 -11.152  -5.986  0.00  0.00     0.275 HD
HETATM   31  H           1     -21.663  -9.806  -5.382  0.00  0.00     0.275 HD
HETATM   32  H           1     -20.314  -9.571  -6.402  0.00  0.00     0.275 HD
ENDBRANCH  20  29
ENDBRANCH   3  20
TORSDOF 8
ENDMDL
