MODEL 1
REMARK VINA RESULT:      -6.8      0.000      0.000
REMARK  8 active torsions:
REMARK  status: ('A' for Active; 'I' for Inactive)
REMARK    1  A    between atoms: N_2  and  C_17 
REMARK       I    between atoms: N_2  and  C_14 
REMARK       I    between atoms: N_4  and  C_8 
REMARK    2  A    between atoms: C_7  and  C_13 
REMARK    3  A    between atoms: C_8  and  C_21 
REMARK    4  A    between atoms: C_13  and  C_14 
REMARK    5  A    between atoms: C_13  and  N_16 
REMARK    6  A    between atoms: C_17  and  C_22 
REMARK    7  A    between atoms: C_17  and  C_20 
REMARK    8  A    between atoms: C_21  and  C_22 
ROOT
HETATM    1  N           1     -35.038  -1.565 -13.072  0.00  0.00    -0.345 N 
HETATM    2  O           1     -33.946  -1.905 -11.154  0.00  0.00    -0.271 OA
HETATM    3  H           1     -35.406  -1.957 -13.930  0.00  0.00     0.163 HD
HETATM    4  C           1     -34.386  -2.371 -12.178  0.00  0.00     0.249 C 
ENDROOT
BRANCH   1   5
HETATM    5  C           1     -35.201  -0.153 -12.790  0.00  0.00     0.186 C 
BRANCH   5   6
HETATM    6  C           1     -35.350   0.612 -14.099  0.00  0.00     0.045 C 
BRANCH   6   7
HETATM    7  C           1     -35.545  -0.373 -15.244  0.00  0.00     0.105 C 
BRANCH   7   8
HETATM    8  C           1     -36.897  -0.150 -15.875  0.00  0.00     0.215 C 
HETATM    9  N           1     -37.787   0.716 -15.298  0.00  0.00    -0.370 N 
HETATM   10  H           1     -37.539   1.206 -14.449  0.00  0.00     0.159 HD
HETATM   11  H           1     -38.694   0.865 -15.722  0.00  0.00     0.159 HD
HETATM   12  O           1     -37.194  -0.735 -16.889  0.00  0.00    -0.274 OA
ENDBRANCH   7   8
ENDBRANCH   6   7
ENDBRANCH   5   6
BRANCH   5  13
HETATM   13  C           1     -36.433   0.052 -11.944  0.00  0.00     0.196 C 
HETATM   14  O           1     -36.328   0.535 -10.795  0.00  0.00    -0.646 OA
HETATM   15  O           1     -37.558  -0.261 -12.389  0.00  0.00    -0.646 OA
ENDBRANCH   5  13
ENDBRANCH   1   5
BRANCH   4  16
HETATM   16  C           1     -34.217  -3.842 -12.471  0.00  0.00     0.278 C 
BRANCH  16  17
HETATM   17  C           1     -33.231  -4.448 -11.480  0.00  0.00     0.017 C 
HETATM   18  C           1     -33.808  -5.738 -10.913  0.00  0.00     0.012 C 
HETATM   19  C           1     -31.918  -4.749 -12.191  0.00  0.00     0.012 C 
ENDBRANCH  16  17
BRANCH  16  20
HETATM   20  N           1     -33.692  -4.015 -13.866  0.00  0.00    -0.066 N 
HETATM   21  H           1     -34.247  -3.422 -14.522  0.00  0.00     0.275 HD
HETATM   22  H           1     -33.775  -5.018 -14.147  0.00  0.00     0.275 HD
HETATM   23  H           1     -32.688  -3.727 -13.898  0.00  0.00     0.275 HD
ENDBRANCH  16  20
ENDBRANCH   4  16
TORSDOF 8
ENDMDL
MODEL 2
REMARK VINA RESULT:      -6.5      8.726     10.586
REMARK  8 active torsions:
REMARK  status: ('A' for Active; 'I' for Inactive)
REMARK    1  A    between atoms: N_2  and  C_17 
REMARK       I    between atoms: N_2  and  C_14 
REMARK       I    between atoms: N_4  and  C_8 
REMARK    2  A    between atoms: C_7  and  C_13 
REMARK    3  A    between atoms: C_8  and  C_21 
REMARK    4  A    between atoms: C_13  and  C_14 
REMARK    5  A    between atoms: C_13  and  N_16 
REMARK    6  A    between atoms: C_17  and  C_22 
REMARK    7  A    between atoms: C_17  and  C_20 
REMARK    8  A    between atoms: C_21  and  C_22 
ROOT
HETATM    1  N           1     -27.562  -6.594 -18.743  0.00  0.00    -0.345 N 
HETATM    2  O           1     -26.326  -5.812 -17.056  0.00  0.00    -0.271 OA
HETATM    3  H           1     -27.588  -7.013 -19.665  0.00  0.00     0.163 HD
HETATM    4  C           1     -26.359  -6.312 -18.155  0.00  0.00     0.249 C 
ENDROOT
BRANCH   1   5
HETATM    5  C           1     -28.797  -6.293 -18.047  0.00  0.00     0.186 C 
BRANCH   5   6
HETATM    6  C           1     -29.374  -4.987 -18.579  0.00  0.00     0.045 C 
BRANCH   6   7
HETATM    7  C           1     -29.691  -4.059 -17.413  0.00  0.00     0.105 C 
BRANCH   7   8
HETATM    8  C           1     -31.185  -3.904 -17.286  0.00  0.00     0.215 C 
HETATM    9  N           1     -31.911  -4.819 -16.572  0.00  0.00    -0.370 N 
HETATM   10  H           1     -31.444  -5.600 -16.129  0.00  0.00     0.159 HD
HETATM   11  H           1     -32.914  -4.714 -16.486  0.00  0.00     0.159 HD
HETATM   12  O           1     -31.743  -2.971 -17.814  0.00  0.00    -0.274 OA
ENDBRANCH   7   8
ENDBRANCH   6   7
ENDBRANCH   5   6
BRANCH   5  13
HETATM   13  C           1     -29.787  -7.409 -18.273  0.00  0.00     0.196 C 
HETATM   14  O           1     -30.919  -7.357 -17.745  0.00  0.00    -0.646 OA
HETATM   15  O           1     -29.476  -8.387 -18.988  0.00  0.00    -0.646 OA
ENDBRANCH   5  13
ENDBRANCH   1   5
BRANCH   4  16
HETATM   16  C           1     -25.072  -6.625 -18.880  0.00  0.00     0.278 C 
BRANCH  16  17
HETATM   17  C           1     -25.390  -7.164 -20.269  0.00  0.00     0.017 C 
HETATM   18  C           1     -25.493  -6.006 -21.252  0.00  0.00     0.012 C 
HETATM   19  C           1     -24.280  -8.109 -20.712  0.00  0.00     0.012 C 
ENDBRANCH  16  17
BRANCH  16  20
HETATM   20  N           1     -24.303  -7.657 -18.108  0.00  0.00    -0.066 N 
HETATM   21  H           1     -24.088  -8.467 -18.732  0.00  0.00     0.275 HD
HETATM   22  H           1     -24.876  -7.983 -17.298  0.00  0.00     0.275 HD
HETATM   23  H           1     -23.413  -7.238 -17.760  0.00  0.00     0.275 HD
ENDBRANCH  16  20
ENDBRANCH   4  16
TORSDOF 8
ENDMDL
MODEL 3
REMARK VINA RESULT:      -6.1      8.749     10.721
REMARK  8 active torsions:
REMARK  status: ('A' for Active; 'I' for Inactive)
REMARK    1  A    between atoms: N_2  and  C_17 
REMARK       I    between atoms: N_2  and  C_14 
REMARK       I    between atoms: N_4  and  C_8 
REMARK    2  A    between atoms: C_7  and  C_13 
REMARK    3  A    between atoms: C_8  and  C_21 
REMARK    4  A    between atoms: C_13  and  C_14 
REMARK    5  A    between atoms: C_13  and  N_16 
REMARK    6  A    between atoms: C_17  and  C_22 
REMARK    7  A    between atoms: C_17  and  C_20 
REMARK    8  A    between atoms: C_21  and  C_22 
ROOT
HETATM    1  N           1     -27.563  -6.094 -18.274  0.00  0.00    -0.345 N 
HETATM    2  O           1     -25.357  -6.439 -18.266  0.00  0.00    -0.271 OA
HETATM    3  H           1     -28.418  -6.024 -18.811  0.00  0.00     0.163 HD
HETATM    4  C           1     -26.378  -6.356 -18.907  0.00  0.00     0.249 C 
ENDROOT
BRANCH   1   5
HETATM    5  C           1     -27.593  -5.917 -16.835  0.00  0.00     0.186 C 
BRANCH   5   6
HETATM    6  C           1     -28.363  -4.647 -16.497  0.00  0.00     0.045 C 
BRANCH   6   7
HETATM    7  C           1     -29.213  -4.234 -17.691  0.00  0.00     0.105 C 
BRANCH   7   8
HETATM    8  C           1     -30.659  -4.144 -17.272  0.00  0.00     0.215 C 
HETATM    9  N           1     -31.240  -5.179 -16.590  0.00  0.00    -0.370 N 
HETATM   10  H           1     -30.699  -6.004 -16.366  0.00  0.00     0.159 HD
HETATM   11  H           1     -32.210  -5.119 -16.309  0.00  0.00     0.159 HD
HETATM   12  O           1     -31.306  -3.159 -17.540  0.00  0.00    -0.274 OA
ENDBRANCH   7   8
ENDBRANCH   6   7
ENDBRANCH   5   6
BRANCH   5  13
HETATM   13  C           1     -28.272  -7.103 -16.197  0.00  0.00     0.196 C 
HETATM   14  O           1     -27.866  -7.537 -15.097  0.00  0.00    -0.646 OA
HETATM   15  O           1     -29.240  -7.653 -16.767  0.00  0.00    -0.646 OA
ENDBRANCH   5  13
ENDBRANCH   1   5
BRANCH   4  16
HETATM   16  C           1     -26.347  -6.540 -20.404  0.00  0.00     0.278 C 
BRANCH  16  17
HETATM   17  C           1     -25.996  -7.986 -20.731  0.00  0.00     0.017 C 
HETATM   18  C           1     -27.213  -8.683 -21.325  0.00  0.00     0.012 C 
HETATM   19  C           1     -24.853  -8.016 -21.738  0.00  0.00     0.012 C 
ENDBRANCH  16  17
BRANCH  16  20
HETATM   20  N           1     -25.312  -5.630 -20.998  0.00  0.00    -0.066 N 
HETATM   21  H           1     -24.568  -6.202 -21.455  0.00  0.00     0.275 HD
HETATM   22  H           1     -24.889  -5.046 -20.242  0.00  0.00     0.275 HD
HETATM   23  H           1     -25.761  -5.010 -21.708  0.00  0.00     0.275 HD
ENDBRANCH  16  20
ENDBRANCH   4  16
TORSDOF 8
ENDMDL
MODEL 4
REMARK VINA RESULT:      -6.1      9.740     12.064
REMARK  8 active torsions:
REMARK  status: ('A' for Active; 'I' for Inactive)
REMARK    1  A    between atoms: N_2  and  C_17 
REMARK       I    between atoms: N_2  and  C_14 
REMARK       I    between atoms: N_4  and  C_8 
REMARK    2  A    between atoms: C_7  and  C_13 
REMARK    3  A    between atoms: C_8  and  C_21 
REMARK    4  A    between atoms: C_13  and  C_14 
REMARK    5  A    between atoms: C_13  and  N_16 
REMARK    6  A    between atoms: C_17  and  C_22 
REMARK    7  A    between atoms: C_17  and  C_20 
REMARK    8  A    between atoms: C_21  and  C_22 
ROOT
HETATM    1  N           1     -26.263  -6.812 -18.277  0.00  0.00    -0.345 N 
HETATM    2  O           1     -24.058  -6.504 -18.452  0.00  0.00    -0.271 OA
HETATM    3  H           1     -27.107  -7.210 -18.671  0.00  0.00     0.163 HD
HETATM    4  C           1     -25.065  -6.977 -18.920  0.00  0.00     0.249 C 
ENDROOT
BRANCH   1   5
HETATM    5  C           1     -26.321  -6.070 -17.034  0.00  0.00     0.186 C 
BRANCH   5   6
HETATM    6  C           1     -27.656  -5.342 -16.941  0.00  0.00     0.045 C 
BRANCH   6   7
HETATM    7  C           1     -28.565  -5.797 -18.075  0.00  0.00     0.105 C 
BRANCH   7   8
HETATM    8  C           1     -29.659  -6.675 -17.522  0.00  0.00     0.215 C 
HETATM    9  N           1     -29.476  -8.029 -17.440  0.00  0.00    -0.370 N 
HETATM   10  H           1     -28.606  -8.441 -17.752  0.00  0.00     0.159 HD
HETATM   11  H           1     -30.211  -8.618 -17.069  0.00  0.00     0.159 HD
HETATM   12  O           1     -30.698  -6.183 -17.150  0.00  0.00    -0.274 OA
ENDBRANCH   7   8
ENDBRANCH   6   7
ENDBRANCH   5   6
BRANCH   5  13
HETATM   13  C           1     -26.186  -7.022 -15.872  0.00  0.00     0.196 C 
HETATM   14  O           1     -25.052  -7.315 -15.434  0.00  0.00    -0.646 OA
HETATM   15  O           1     -27.206  -7.521 -15.349  0.00  0.00    -0.646 OA
ENDBRANCH   5  13
ENDBRANCH   1   5
BRANCH   4  16
HETATM   16  C           1     -25.004  -7.751 -20.215  0.00  0.00     0.278 C 
BRANCH  16  17
HETATM   17  C           1     -24.334  -6.898 -21.285  0.00  0.00     0.017 C 
HETATM   18  C           1     -24.037  -7.756 -22.507  0.00  0.00     0.012 C 
HETATM   19  C           1     -25.264  -5.758 -21.680  0.00  0.00     0.012 C 
ENDBRANCH  16  17
BRANCH  16  20
HETATM   20  N           1     -26.396  -8.100 -20.654  0.00  0.00    -0.066 N 
HETATM   21  H           1     -26.493  -9.139 -20.704  0.00  0.00     0.275 HD
HETATM   22  H           1     -26.577  -7.687 -21.596  0.00  0.00     0.275 HD
HETATM   23  H           1     -27.083  -7.718 -19.967  0.00  0.00     0.275 HD
ENDBRANCH  16  20
ENDBRANCH   4  16
TORSDOF 8
ENDMDL
MODEL 5
REMARK VINA RESULT:      -6.0     11.725     14.133
REMARK  8 active torsions:
REMARK  status: ('A' for Active; 'I' for Inactive)
REMARK    1  A    between atoms: N_2  and  C_17 
REMARK       I    between atoms: N_2  and  C_14 
REMARK       I    between atoms: N_4  and  C_8 
REMARK    2  A    between atoms: C_7  and  C_13 
REMARK    3  A    between atoms: C_8  and  C_21 
REMARK    4  A    between atoms: C_13  and  C_14 
REMARK    5  A    between atoms: C_13  and  N_16 
REMARK    6  A    between atoms: C_17  and  C_22 
REMARK    7  A    between atoms: C_17  and  C_20 
REMARK    8  A    between atoms: C_21  and  C_22 
ROOT
HETATM    1  N           1     -23.176  -4.544  -8.776  0.00  0.00    -0.345 N 
HETATM    2  O           1     -21.479  -3.261  -8.096  0.00  0.00    -0.271 OA
HETATM    3  H           1     -23.808  -5.309  -8.572  0.00  0.00     0.163 HD
HETATM    4  C           1     -22.234  -4.173  -7.855  0.00  0.00     0.249 C 
ENDROOT
BRANCH   1   5
HETATM    5  C           1     -23.269  -3.843 -10.040  0.00  0.00     0.186 C 
BRANCH   5   6
HETATM    6  C           1     -22.980  -4.811 -11.180  0.00  0.00     0.045 C 
BRANCH   6   7
HETATM    7  C           1     -21.914  -4.220 -12.092  0.00  0.00     0.105 C 
BRANCH   7   8
HETATM    8  C           1     -20.678  -3.909 -11.286  0.00  0.00     0.215 C 
HETATM    9  N           1     -20.239  -2.616 -11.176  0.00  0.00    -0.370 N 
HETATM   10  H           1     -20.744  -1.870 -11.637  0.00  0.00     0.159 HD
HETATM   11  H           1     -19.410  -2.407 -10.635  0.00  0.00     0.159 HD
HETATM   12  O           1     -20.075  -4.799 -10.736  0.00  0.00    -0.274 OA
ENDBRANCH   7   8
ENDBRANCH   6   7
ENDBRANCH   5   6
BRANCH   5  13
HETATM   13  C           1     -24.658  -3.277 -10.201  0.00  0.00     0.196 C 
HETATM   14  O           1     -25.245  -3.364 -11.301  0.00  0.00    -0.646 OA
HETATM   15  O           1     -25.223  -2.719  -9.234  0.00  0.00    -0.646 OA
ENDBRANCH   5  13
ENDBRANCH   1   5
BRANCH   4  16
HETATM   16  C           1     -22.137  -4.904  -6.537  0.00  0.00     0.278 C 
BRANCH  16  17
HETATM   17  C           1     -21.318  -6.175  -6.721  0.00  0.00     0.017 C 
HETATM   18  C           1     -19.842  -5.819  -6.834  0.00  0.00     0.012 C 
HETATM   19  C           1     -21.528  -7.090  -5.521  0.00  0.00     0.012 C 
ENDBRANCH  16  17
BRANCH  16  20
HETATM   20  N           1     -23.514  -5.261  -6.062  0.00  0.00    -0.066 N 
HETATM   21  H           1     -23.849  -6.108  -6.574  0.00  0.00     0.275 HD
HETATM   22  H           1     -24.163  -4.463  -6.246  0.00  0.00     0.275 HD
HETATM   23  H           1     -23.488  -5.459  -5.037  0.00  0.00     0.275 HD
ENDBRANCH  16  20
ENDBRANCH   4  16
TORSDOF 8
ENDMDL
MODEL 6
REMARK VINA RESULT:      -6.0      1.980      5.974
REMARK  8 active torsions:
REMARK  status: ('A' for Active; 'I' for Inactive)
REMARK    1  A    between atoms: N_2  and  C_17 
REMARK       I    between atoms: N_2  and  C_14 
REMARK       I    between atoms: N_4  and  C_8 
REMARK    2  A    between atoms: C_7  and  C_13 
REMARK    3  A    between atoms: C_8  and  C_21 
REMARK    4  A    between atoms: C_13  and  C_14 
REMARK    5  A    between atoms: C_13  and  N_16 
REMARK    6  A    between atoms: C_17  and  C_22 
REMARK    7  A    between atoms: C_17  and  C_20 
REMARK    8  A    between atoms: C_21  and  C_22 
ROOT
HETATM    1  N           1     -34.878  -1.797 -12.926  0.00  0.00    -0.345 N 
HETATM    2  O           1     -36.735  -0.797 -12.193  0.00  0.00    -0.271 OA
HETATM    3  H           1     -34.166  -1.864 -13.643  0.00  0.00     0.163 HD
HETATM    4  C           1     -35.885  -0.877 -13.047  0.00  0.00     0.249 C 
ENDROOT
BRANCH   1   5
HETATM    5  C           1     -34.832  -2.673 -11.772  0.00  0.00     0.186 C 
BRANCH   5   6
HETATM    6  C           1     -34.861  -4.124 -12.236  0.00  0.00     0.045 C 
BRANCH   6   7
HETATM    7  C           1     -35.280  -5.020 -11.078  0.00  0.00     0.105 C 
BRANCH   7   8
HETATM    8  C           1     -34.292  -6.150 -10.933  0.00  0.00     0.215 C 
HETATM    9  N           1     -33.006  -5.997 -11.376  0.00  0.00    -0.370 N 
HETATM   10  H           1     -32.718  -5.125 -11.802  0.00  0.00     0.159 HD
HETATM   11  H           1     -32.343  -6.755 -11.279  0.00  0.00     0.159 HD
HETATM   12  O           1     -34.636  -7.191 -10.425  0.00  0.00    -0.274 OA
ENDBRANCH   7   8
ENDBRANCH   6   7
ENDBRANCH   5   6
BRANCH   5  13
HETATM   13  C           1     -33.563  -2.418 -10.997  0.00  0.00     0.196 C 
HETATM   14  O           1     -32.512  -3.021 -11.304  0.00  0.00    -0.646 OA
HETATM   15  O           1     -33.563  -1.604 -10.048  0.00  0.00    -0.646 OA
ENDBRANCH   5  13
ENDBRANCH   1   5
BRANCH   4  16
HETATM   16  C           1     -35.933   0.035 -14.249  0.00  0.00     0.278 C 
BRANCH  16  17
HETATM   17  C           1     -36.853  -0.564 -15.305  0.00  0.00     0.017 C 
HETATM   18  C           1     -37.969   0.421 -15.625  0.00  0.00     0.012 C 
HETATM   19  C           1     -36.053  -0.851 -16.569  0.00  0.00     0.012 C 
ENDBRANCH  16  17
BRANCH  16  20
HETATM   20  N           1     -34.553   0.186 -14.817  0.00  0.00    -0.066 N 
HETATM   21  H           1     -34.025  -0.707 -14.688  0.00  0.00     0.275 HD
HETATM   22  H           1     -34.055   0.959 -14.321  0.00  0.00     0.275 HD
HETATM   23  H           1     -34.618   0.409 -15.835  0.00  0.00     0.275 HD
ENDBRANCH  16  20
ENDBRANCH   4  16
TORSDOF 8
ENDMDL
MODEL 7
REMARK VINA RESULT:      -5.7      9.159     11.657
REMARK  8 active torsions:
REMARK  status: ('A' for Active; 'I' for Inactive)
REMARK    1  A    between atoms: N_2  and  C_17 
REMARK       I    between atoms: N_2  and  C_14 
REMARK       I    between atoms: N_4  and  C_8 
REMARK    2  A    between atoms: C_7  and  C_13 
REMARK    3  A    between atoms: C_8  and  C_21 
REMARK    4  A    between atoms: C_13  and  C_14 
REMARK    5  A    between atoms: C_13  and  N_16 
REMARK    6  A    between atoms: C_17  and  C_22 
REMARK    7  A    between atoms: C_17  and  C_20 
REMARK    8  A    between atoms: C_21  and  C_22 
ROOT
HETATM    1  N           1     -27.009  -5.916 -17.731  0.00  0.00    -0.345 N 
HETATM    2  O           1     -28.322  -7.006 -16.291  0.00  0.00    -0.271 OA
HETATM    3  H           1     -26.885  -5.120 -18.345  0.00  0.00     0.163 HD
HETATM    4  C           1     -28.172  -6.057 -17.023  0.00  0.00     0.249 C 
ENDROOT
BRANCH   1   5
HETATM    5  C           1     -25.958  -6.905 -17.603  0.00  0.00     0.186 C 
BRANCH   5   6
HETATM    6  C           1     -24.942  -6.714 -18.722  0.00  0.00     0.045 C 
BRANCH   6   7
HETATM    7  C           1     -25.656  -6.739 -20.067  0.00  0.00     0.105 C 
BRANCH   7   8
HETATM    8  C           1     -25.202  -7.942 -20.855  0.00  0.00     0.215 C 
HETATM    9  N           1     -23.911  -8.384 -20.748  0.00  0.00    -0.370 N 
HETATM   10  H           1     -23.261  -7.903 -20.140  0.00  0.00     0.159 HD
HETATM   11  H           1     -23.607  -9.191 -21.277  0.00  0.00     0.159 HD
HETATM   12  O           1     -25.979  -8.516 -21.581  0.00  0.00    -0.274 OA
ENDBRANCH   7   8
ENDBRANCH   6   7
ENDBRANCH   5   6
BRANCH   5  13
HETATM   13  C           1     -25.273  -6.741 -16.268  0.00  0.00     0.196 C 
HETATM   14  O           1     -25.005  -7.747 -15.576  0.00  0.00    -0.646 OA
HETATM   15  O           1     -24.976  -5.599 -15.853  0.00  0.00    -0.646 OA
ENDBRANCH   5  13
ENDBRANCH   1   5
BRANCH   4  16
HETATM   16  C           1     -29.267  -5.027 -17.157  0.00  0.00     0.278 C 
BRANCH  16  17
HETATM   17  C           1     -30.604  -5.654 -16.782  0.00  0.00     0.017 C 
HETATM   18  C           1     -31.690  -4.587 -16.799  0.00  0.00     0.012 C 
HETATM   19  C           1     -30.950  -6.746 -17.787  0.00  0.00     0.012 C 
ENDBRANCH  16  17
BRANCH  16  20
HETATM   20  N           1     -29.324  -4.540 -18.575  0.00  0.00    -0.066 N 
HETATM   21  H           1     -29.979  -5.142 -19.122  0.00  0.00     0.275 HD
HETATM   22  H           1     -28.370  -4.589 -18.998  0.00  0.00     0.275 HD
HETATM   23  H           1     -29.663  -3.552 -18.591  0.00  0.00     0.275 HD
ENDBRANCH  16  20
ENDBRANCH   4  16
TORSDOF 8
ENDMDL
MODEL 8
REMARK VINA RESULT:      -5.7     13.239     15.957
REMARK  8 active torsions:
REMARK  status: ('A' for Active; 'I' for Inactive)
REMARK    1  A    between atoms: N_2  and  C_17 
REMARK       I    between atoms: N_2  and  C_14 
REMARK       I    between atoms: N_4  and  C_8 
REMARK    2  A    between atoms: C_7  and  C_13 
REMARK    3  A    between atoms: C_8  and  C_21 
REMARK    4  A    between atoms: C_13  and  C_14 
REMARK    5  A    between atoms: C_13  and  N_16 
REMARK    6  A    between atoms: C_17  and  C_22 
REMARK    7  A    between atoms: C_17  and  C_20 
REMARK    8  A    between atoms: C_21  and  C_22 
ROOT
HETATM    1  N           1     -21.730  -5.858  -5.761  0.00  0.00    -0.345 N 
HETATM    2  O           1     -21.004  -7.921  -6.213  0.00  0.00    -0.271 OA
HETATM    3  H           1     -22.174  -5.231  -5.102  0.00  0.00     0.163 HD
HETATM    4  C           1     -21.534  -7.172  -5.428  0.00  0.00     0.249 C 
ENDROOT
BRANCH   1   5
HETATM    5  C           1     -21.301  -5.367  -7.055  0.00  0.00     0.186 C 
BRANCH   5   6
HETATM    6  C           1     -22.356  -4.419  -7.612  0.00  0.00     0.045 C 
BRANCH   6   7
HETATM    7  C           1     -22.583  -4.721  -9.088  0.00  0.00     0.105 C 
BRANCH   7   8
HETATM    8  C           1     -23.485  -3.670  -9.684  0.00  0.00     0.215 C 
HETATM    9  N           1     -24.627  -3.295  -9.028  0.00  0.00    -0.370 N 
HETATM   10  H           1     -24.865  -3.723  -8.142  0.00  0.00     0.159 HD
HETATM   11  H           1     -25.232  -2.590  -9.428  0.00  0.00     0.159 HD
HETATM   12  O           1     -23.201  -3.158 -10.740  0.00  0.00    -0.274 OA
ENDBRANCH   7   8
ENDBRANCH   6   7
ENDBRANCH   5   6
BRANCH   5  13
HETATM   13  C           1     -19.992  -4.632  -6.906  0.00  0.00     0.196 C 
HETATM   14  O           1     -19.397  -4.206  -7.919  0.00  0.00    -0.646 OA
HETATM   15  O           1     -19.502  -4.450  -5.771  0.00  0.00    -0.646 OA
ENDBRANCH   5  13
ENDBRANCH   1   5
BRANCH   4  16
HETATM   16  C           1     -21.980  -7.683  -4.080  0.00  0.00     0.278 C 
BRANCH  16  17
HETATM   17  C           1     -21.194  -6.977  -2.983  0.00  0.00     0.017 C 
HETATM   18  C           1     -22.152  -6.200  -2.090  0.00  0.00     0.012 C 
HETATM   19  C           1     -20.448  -8.010  -2.148  0.00  0.00     0.012 C 
ENDBRANCH  16  17
BRANCH  16  20
HETATM   20  N           1     -21.731  -9.160  -3.999  0.00  0.00    -0.066 N 
HETATM   21  H           1     -21.895  -9.487  -3.021  0.00  0.00     0.275 HD
HETATM   22  H           1     -20.744  -9.363  -4.274  0.00  0.00     0.275 HD
HETATM   23  H           1     -22.382  -9.659  -4.647  0.00  0.00     0.275 HD
ENDBRANCH  16  20
ENDBRANCH   4  16
TORSDOF 8
ENDMDL
MODEL 9
REMARK VINA RESULT:      -5.7      2.760      4.777
REMARK  8 active torsions:
REMARK  status: ('A' for Active; 'I' for Inactive)
REMARK    1  A    between atoms: N_2  and  C_17 
REMARK       I    between atoms: N_2  and  C_14 
REMARK       I    between atoms: N_4  and  C_8 
REMARK    2  A    between atoms: C_7  and  C_13 
REMARK    3  A    between atoms: C_8  and  C_21 
REMARK    4  A    between atoms: C_13  and  C_14 
REMARK    5  A    between atoms: C_13  and  N_16 
REMARK    6  A    between atoms: C_17  and  C_22 
REMARK    7  A    between atoms: C_17  and  C_20 
REMARK    8  A    between atoms: C_21  and  C_22 
ROOT
HETATM    1  N           1     -35.503  -1.275 -10.875  0.00  0.00    -0.345 N 
HETATM    2  O           1     -37.729  -1.106 -10.827  0.00  0.00    -0.271 OA
HETATM    3  H           1     -34.629  -1.231 -10.366  0.00  0.00     0.163 HD
HETATM    4  C           1     -36.685  -1.054 -10.221  0.00  0.00     0.249 C 
ENDROOT
BRANCH   1   5
HETATM    5  C           1     -35.504  -1.573 -12.293  0.00  0.00     0.186 C 
BRANCH   5   6
HETATM    6  C           1     -35.153  -0.314 -13.076  0.00  0.00     0.045 C 
BRANCH   6   7
HETATM    7  C           1     -36.354   0.121 -13.904  0.00  0.00     0.105 C 
BRANCH   7   8
HETATM    8  C           1     -36.004   0.059 -15.370  0.00  0.00     0.215 C 
HETATM    9  N           1     -35.142  -0.901 -15.829  0.00  0.00    -0.370 N 
HETATM   10  H           1     -34.740  -1.569 -15.184  0.00  0.00     0.159 HD
HETATM   11  H           1     -34.907  -0.941 -16.812  0.00  0.00     0.159 HD
HETATM   12  O           1     -36.484   0.858 -16.140  0.00  0.00    -0.274 OA
ENDBRANCH   7   8
ENDBRANCH   6   7
ENDBRANCH   5   6
BRANCH   5  13
HETATM   13  C           1     -34.484  -2.646 -12.582  0.00  0.00     0.196 C 
HETATM   14  O           1     -33.699  -3.020 -11.684  0.00  0.00    -0.646 OA
HETATM   15  O           1     -34.422  -3.162 -13.719  0.00  0.00    -0.646 OA
ENDBRANCH   5  13
ENDBRANCH   1   5
BRANCH   4  16
HETATM   16  C           1     -36.685  -0.743  -8.744  0.00  0.00     0.278 C 
BRANCH  16  17
HETATM   17  C           1     -37.916   0.084  -8.398  0.00  0.00     0.017 C 
HETATM   18  C           1     -38.075   0.153  -6.885  0.00  0.00     0.012 C 
HETATM   19  C           1     -37.752   1.493  -8.955  0.00  0.00     0.012 C 
ENDBRANCH  16  17
BRANCH  16  20
HETATM   20  N           1     -35.448   0.033  -8.397  0.00  0.00    -0.066 N 
HETATM   21  H           1     -34.734  -0.615  -7.996  0.00  0.00     0.275 HD
HETATM   22  H           1     -35.685   0.770  -7.696  0.00  0.00     0.275 HD
HETATM   23  H           1     -35.067   0.482  -9.259  0.00  0.00     0.275 HD
ENDBRANCH  16  20
ENDBRANCH   4  16
TORSDOF 8
ENDMDL
