MODEL 1
REMARK VINA RESULT:      -6.3      0.000      0.000
REMARK  10 active torsions:
REMARK  status: ('A' for Active; 'I' for Inactive)
REMARK    1  A    between atoms: C_1  and  C_6 
REMARK    2  A    between atoms: N_5  and  C_20 
REMARK       I    between atoms: N_5  and  C_24 
REMARK    3  A    between atoms: C_6  and  C_12 
REMARK    4  A    between atoms: C_7  and  C_16 
REMARK    5  A    between atoms: C_7  and  C_20 
REMARK    6  A    between atoms: C_8  and  N_15 
REMARK    7  A    between atoms: C_8  and  C_16 
REMARK    8  A    between atoms: C_12  and  C_24 
REMARK    9  A    between atoms: C_12  and  N_17 
REMARK   10  A    between atoms: C_14  and  C_20 
ROOT
HETATM    1  N           1     -35.005  -1.611 -13.257  0.00  0.00    -0.345 N 
HETATM    2  O           1     -33.801  -1.867 -11.393  0.00  0.00    -0.271 OA
HETATM    3  H           1     -35.431  -2.040 -14.068  0.00  0.00     0.163 HD
HETATM    4  C           1     -34.309  -2.379 -12.362  0.00  0.00     0.249 C 
ENDROOT
BRANCH   1   5
HETATM    5  C           1     -35.130  -0.182 -13.043  0.00  0.00     0.185 C 
BRANCH   5   6
HETATM    6  C           1     -35.299   0.518 -14.385  0.00  0.00     0.038 C 
BRANCH   6   7
HETATM    7  C           1     -35.492  -0.523 -15.480  0.00  0.00     0.030 C 
BRANCH   7   8
HETATM    8  C           1     -36.871  -0.354 -16.104  0.00  0.00     0.230 C 
BRANCH   8   9
HETATM    9  N           1     -37.453   0.962 -15.683  0.00  0.00    -0.079 N 
HETATM   10  H           1     -36.889   1.357 -14.897  0.00  0.00     0.274 HD
HETATM   11  H           1     -38.439   0.822 -15.366  0.00  0.00     0.274 HD
HETATM   12  H           1     -37.438   1.624 -16.491  0.00  0.00     0.274 HD
ENDBRANCH   8   9
ENDBRANCH   7   8
ENDBRANCH   6   7
ENDBRANCH   5   6
BRANCH   5  13
HETATM   13  C           1     -36.334   0.092 -12.176  0.00  0.00     0.196 C 
HETATM   14  O           1     -36.181   0.414 -10.978  0.00  0.00    -0.646 OA
HETATM   15  O           1     -37.483  -0.001 -12.657  0.00  0.00    -0.646 OA
ENDBRANCH   5  13
ENDBRANCH   1   5
BRANCH   4  16
HETATM   16  C           1     -34.180  -3.866 -12.584  0.00  0.00     0.275 C 
BRANCH  16  17
HETATM   17  C           1     -33.265  -4.461 -11.522  0.00  0.00     0.046 C 
BRANCH  17  18
HETATM   18  C           1     -34.103  -5.188 -10.479  0.00  0.00    -0.020 C 
HETATM   19  C           1     -35.570  -4.817 -10.658  0.00  0.00     0.009 C 
HETATM   20  C           1     -33.936  -6.692 -10.652  0.00  0.00     0.009 C 
ENDBRANCH  17  18
ENDBRANCH  16  17
BRANCH  16  21
HETATM   21  N           1     -33.598  -4.118 -13.943  0.00  0.00    -0.066 N 
HETATM   22  H           1     -32.783  -4.768 -13.859  0.00  0.00     0.275 HD
HETATM   23  H           1     -34.323  -4.549 -14.558  0.00  0.00     0.275 HD
HETATM   24  H           1     -33.279  -3.213 -14.359  0.00  0.00     0.275 HD
ENDBRANCH  16  21
ENDBRANCH   4  16
TORSDOF 10
ENDMDL
MODEL 2
REMARK VINA RESULT:      -6.1      2.211      3.232
REMARK  10 active torsions:
REMARK  status: ('A' for Active; 'I' for Inactive)
REMARK    1  A    between atoms: C_1  and  C_6 
REMARK    2  A    between atoms: N_5  and  C_20 
REMARK       I    between atoms: N_5  and  C_24 
REMARK    3  A    between atoms: C_6  and  C_12 
REMARK    4  A    between atoms: C_7  and  C_16 
REMARK    5  A    between atoms: C_7  and  C_20 
REMARK    6  A    between atoms: C_8  and  N_15 
REMARK    7  A    between atoms: C_8  and  C_16 
REMARK    8  A    between atoms: C_12  and  C_24 
REMARK    9  A    between atoms: C_12  and  N_17 
REMARK   10  A    between atoms: C_14  and  C_20 
ROOT
HETATM    1  N           1     -35.406  -1.128 -12.096  0.00  0.00    -0.345 N 
HETATM    2  O           1     -34.733  -2.718 -13.512  0.00  0.00    -0.271 OA
HETATM    3  H           1     -35.328  -0.707 -11.179  0.00  0.00     0.163 HD
HETATM    4  C           1     -34.639  -2.215 -12.418  0.00  0.00     0.249 C 
ENDROOT
BRANCH   1   5
HETATM    5  C           1     -36.332  -0.580 -13.069  0.00  0.00     0.185 C 
BRANCH   5   6
HETATM    6  C           1     -37.542  -0.002 -12.347  0.00  0.00     0.038 C 
BRANCH   6   7
HETATM    7  C           1     -37.601  -0.556 -10.930  0.00  0.00     0.030 C 
BRANCH   7   8
HETATM    8  C           1     -37.823   0.585  -9.945  0.00  0.00     0.230 C 
BRANCH   8   9
HETATM    9  N           1     -36.499   1.156  -9.534  0.00  0.00    -0.079 N 
HETATM   10  H           1     -36.261   0.826  -8.572  0.00  0.00     0.274 HD
HETATM   11  H           1     -36.552   2.200  -9.540  0.00  0.00     0.274 HD
HETATM   12  H           1     -35.761   0.842 -10.204  0.00  0.00     0.274 HD
ENDBRANCH   8   9
ENDBRANCH   7   8
ENDBRANCH   6   7
ENDBRANCH   5   6
BRANCH   5  13
HETATM   13  C           1     -35.647   0.510 -13.855  0.00  0.00     0.196 C 
HETATM   14  O           1     -34.675   1.122 -13.359  0.00  0.00    -0.646 OA
HETATM   15  O           1     -36.049   0.801 -15.001  0.00  0.00    -0.646 OA
ENDBRANCH   5  13
ENDBRANCH   1   5
BRANCH   4  16
HETATM   16  C           1     -33.676  -2.785 -11.405  0.00  0.00     0.275 C 
BRANCH  16  17
HETATM   17  C           1     -34.346  -3.929 -10.655  0.00  0.00     0.046 C 
BRANCH  17  18
HETATM   18  C           1     -34.002  -5.250 -11.330  0.00  0.00    -0.020 C 
HETATM   19  C           1     -32.523  -5.264 -11.696  0.00  0.00     0.009 C 
HETATM   20  C           1     -34.299  -6.399 -10.376  0.00  0.00     0.009 C 
ENDBRANCH  17  18
ENDBRANCH  16  17
BRANCH  16  21
HETATM   21  N           1     -33.281  -1.714 -10.434  0.00  0.00    -0.066 N 
HETATM   22  H           1     -32.817  -2.148  -9.604  0.00  0.00     0.275 HD
HETATM   23  H           1     -32.619  -1.052 -10.896  0.00  0.00     0.275 HD
HETATM   24  H           1     -34.134  -1.194 -10.122  0.00  0.00     0.275 HD
ENDBRANCH  16  21
ENDBRANCH   4  16
TORSDOF 10
ENDMDL
MODEL 3
REMARK VINA RESULT:      -6.0      2.336      6.445
REMARK  10 active torsions:
REMARK  status: ('A' for Active; 'I' for Inactive)
REMARK    1  A    between atoms: C_1  and  C_6 
REMARK    2  A    between atoms: N_5  and  C_20 
REMARK       I    between atoms: N_5  and  C_24 
REMARK    3  A    between atoms: C_6  and  C_12 
REMARK    4  A    between atoms: C_7  and  C_16 
REMARK    5  A    between atoms: C_7  and  C_20 
REMARK    6  A    between atoms: C_8  and  N_15 
REMARK    7  A    between atoms: C_8  and  C_16 
REMARK    8  A    between atoms: C_12  and  C_24 
REMARK    9  A    between atoms: C_12  and  N_17 
REMARK   10  A    between atoms: C_14  and  C_20 
ROOT
HETATM    1  N           1     -35.244  -3.045 -11.444  0.00  0.00    -0.345 N 
HETATM    2  O           1     -33.886  -1.443 -10.686  0.00  0.00    -0.271 OA
HETATM    3  H           1     -36.146  -3.294 -11.830  0.00  0.00     0.163 HD
HETATM    4  C           1     -34.962  -1.739 -11.147  0.00  0.00     0.249 C 
ENDROOT
BRANCH   1   5
HETATM    5  C           1     -34.250  -4.074 -11.204  0.00  0.00     0.185 C 
BRANCH   5   6
HETATM    6  C           1     -34.943  -5.422 -11.049  0.00  0.00     0.038 C 
BRANCH   6   7
HETATM    7  C           1     -33.939  -6.456 -10.560  0.00  0.00     0.030 C 
BRANCH   7   8
HETATM    8  C           1     -34.671  -7.737 -10.182  0.00  0.00     0.230 C 
BRANCH   8   9
HETATM    9  N           1     -33.700  -8.880 -10.160  0.00  0.00    -0.079 N 
HETATM   10  H           1     -33.836  -9.436  -9.286  0.00  0.00     0.274 HD
HETATM   11  H           1     -32.723  -8.509 -10.188  0.00  0.00     0.274 HD
HETATM   12  H           1     -33.863  -9.492 -10.991  0.00  0.00     0.274 HD
ENDBRANCH   8   9
ENDBRANCH   7   8
ENDBRANCH   6   7
ENDBRANCH   5   6
BRANCH   5  13
HETATM   13  C           1     -33.295  -4.131 -12.370  0.00  0.00     0.196 C 
HETATM   14  O           1     -32.087  -4.387 -12.176  0.00  0.00    -0.646 OA
HETATM   15  O           1     -33.711  -3.923 -13.529  0.00  0.00    -0.646 OA
ENDBRANCH   5  13
ENDBRANCH   1   5
BRANCH   4  16
HETATM   16  C           1     -35.997  -0.669 -11.397  0.00  0.00     0.275 C 
BRANCH  16  17
HETATM   17  C           1     -35.442   0.354 -12.380  0.00  0.00     0.046 C 
BRANCH  17  18
HETATM   18  C           1     -35.778  -0.075 -13.802  0.00  0.00    -0.020 C 
HETATM   19  C           1     -37.291  -0.098 -13.982  0.00  0.00     0.009 C 
HETATM   20  C           1     -35.166   0.912 -14.787  0.00  0.00     0.009 C 
ENDBRANCH  17  18
ENDBRANCH  16  17
BRANCH  16  21
HETATM   21  N           1     -36.332   0.013 -10.104  0.00  0.00    -0.066 N 
HETATM   22  H           1     -35.492   0.016  -9.482  0.00  0.00     0.275 HD
HETATM   23  H           1     -36.627   0.996 -10.295  0.00  0.00     0.275 HD
HETATM   24  H           1     -37.111  -0.501  -9.632  0.00  0.00     0.275 HD
ENDBRANCH  16  21
ENDBRANCH   4  16
TORSDOF 10
ENDMDL
MODEL 4
REMARK VINA RESULT:      -5.8     12.326     14.337
REMARK  10 active torsions:
REMARK  status: ('A' for Active; 'I' for Inactive)
REMARK    1  A    between atoms: C_1  and  C_6 
REMARK    2  A    between atoms: N_5  and  C_20 
REMARK       I    between atoms: N_5  and  C_24 
REMARK    3  A    between atoms: C_6  and  C_12 
REMARK    4  A    between atoms: C_7  and  C_16 
REMARK    5  A    between atoms: C_7  and  C_20 
REMARK    6  A    between atoms: C_8  and  N_15 
REMARK    7  A    between atoms: C_8  and  C_16 
REMARK    8  A    between atoms: C_12  and  C_24 
REMARK    9  A    between atoms: C_12  and  N_17 
REMARK   10  A    between atoms: C_14  and  C_20 
ROOT
HETATM    1  N           1     -22.633  -4.737  -8.671  0.00  0.00    -0.345 N 
HETATM    2  O           1     -21.612  -3.446  -7.160  0.00  0.00    -0.271 OA
HETATM    3  H           1     -22.789  -5.666  -9.039  0.00  0.00     0.163 HD
HETATM    4  C           1     -21.799  -4.556  -7.600  0.00  0.00     0.249 C 
ENDROOT
BRANCH   1   5
HETATM    5  C           1     -23.291  -3.596  -9.278  0.00  0.00     0.185 C 
BRANCH   5   6
HETATM    6  C           1     -22.543  -3.194 -10.542  0.00  0.00     0.038 C 
BRANCH   6   7
HETATM    7  C           1     -21.944  -4.433 -11.194  0.00  0.00     0.030 C 
BRANCH   7   8
HETATM    8  C           1     -20.430  -4.284 -11.274  0.00  0.00     0.230 C 
BRANCH   8   9
HETATM    9  N           1     -20.069  -2.828 -11.274  0.00  0.00    -0.079 N 
HETATM   10  H           1     -20.804  -2.288 -10.763  0.00  0.00     0.274 HD
HETATM   11  H           1     -20.007  -2.484 -12.259  0.00  0.00     0.274 HD
HETATM   12  H           1     -19.147  -2.698 -10.800  0.00  0.00     0.274 HD
ENDBRANCH   8   9
ENDBRANCH   7   8
ENDBRANCH   6   7
ENDBRANCH   5   6
BRANCH   5  13
HETATM   13  C           1     -24.711  -3.965  -9.629  0.00  0.00     0.196 C 
HETATM   14  O           1     -25.027  -5.166  -9.774  0.00  0.00    -0.646 OA
HETATM   15  O           1     -25.571  -3.070  -9.774  0.00  0.00    -0.646 OA
ENDBRANCH   5  13
ENDBRANCH   1   5
BRANCH   4  16
HETATM   16  C           1     -21.114  -5.743  -6.968  0.00  0.00     0.275 C 
BRANCH  16  17
HETATM   17  C           1     -20.950  -5.499  -5.473  0.00  0.00     0.046 C 
BRANCH  17  18
HETATM   18  C           1     -21.822  -6.479  -4.700  0.00  0.00    -0.020 C 
HETATM   19  C           1     -21.473  -7.904  -5.112  0.00  0.00     0.009 C 
HETATM   20  C           1     -21.575  -6.308  -3.207  0.00  0.00     0.009 C 
ENDBRANCH  17  18
ENDBRANCH  16  17
BRANCH  16  21
HETATM   21  N           1     -19.765  -5.933  -7.594  0.00  0.00    -0.066 N 
HETATM   22  H           1     -19.171  -5.095  -7.404  0.00  0.00     0.275 HD
HETATM   23  H           1     -19.310  -6.782  -7.190  0.00  0.00     0.275 HD
HETATM   24  H           1     -19.874  -6.054  -8.627  0.00  0.00     0.275 HD
ENDBRANCH  16  21
ENDBRANCH   4  16
TORSDOF 10
ENDMDL
MODEL 5
REMARK VINA RESULT:      -5.5     14.371     17.152
REMARK  10 active torsions:
REMARK  status: ('A' for Active; 'I' for Inactive)
REMARK    1  A    between atoms: C_1  and  C_6 
REMARK    2  A    between atoms: N_5  and  C_20 
REMARK       I    between atoms: N_5  and  C_24 
REMARK    3  A    between atoms: C_6  and  C_12 
REMARK    4  A    between atoms: C_7  and  C_16 
REMARK    5  A    between atoms: C_7  and  C_20 
REMARK    6  A    between atoms: C_8  and  N_15 
REMARK    7  A    between atoms: C_8  and  C_16 
REMARK    8  A    between atoms: C_12  and  C_24 
REMARK    9  A    between atoms: C_12  and  N_17 
REMARK   10  A    between atoms: C_14  and  C_20 
ROOT
HETATM    1  N           1     -21.806  -5.933  -5.564  0.00  0.00    -0.345 N 
HETATM    2  O           1     -20.042  -4.595  -5.855  0.00  0.00    -0.271 OA
HETATM    3  H           1     -22.710  -6.245  -5.895  0.00  0.00     0.163 HD
HETATM    4  C           1     -21.121  -4.967  -6.251  0.00  0.00     0.249 C 
ENDROOT
BRANCH   1   5
HETATM    5  C           1     -21.235  -6.511  -4.362  0.00  0.00     0.185 C 
BRANCH   5   6
HETATM    6  C           1     -22.337  -6.729  -3.333  0.00  0.00     0.038 C 
BRANCH   6   7
HETATM    7  C           1     -21.933  -6.087  -2.013  0.00  0.00     0.030 C 
BRANCH   7   8
HETATM    8  C           1     -22.211  -7.055  -0.870  0.00  0.00     0.230 C 
BRANCH   8   9
HETATM    9  N           1     -21.523  -8.360  -1.141  0.00  0.00    -0.079 N 
HETATM   10  H           1     -21.986  -8.837  -1.948  0.00  0.00     0.274 HD
HETATM   11  H           1     -21.587  -8.970  -0.295  0.00  0.00     0.274 HD
HETATM   12  H           1     -20.519  -8.184  -1.369  0.00  0.00     0.274 HD
ENDBRANCH   8   9
ENDBRANCH   7   8
ENDBRANCH   6   7
ENDBRANCH   5   6
BRANCH   5  13
HETATM   13  C           1     -20.591  -7.833  -4.698  0.00  0.00     0.196 C 
HETATM   14  O           1     -19.888  -8.419  -3.846  0.00  0.00    -0.646 OA
HETATM   15  O           1     -20.761  -8.343  -5.825  0.00  0.00    -0.646 OA
ENDBRANCH   5  13
ENDBRANCH   1   5
BRANCH   4  16
HETATM   16  C           1     -21.715  -4.366  -7.502  0.00  0.00     0.275 C 
BRANCH  16  17
HETATM   17  C           1     -20.856  -4.743  -8.702  0.00  0.00     0.046 C 
BRANCH  17  18
HETATM   18  C           1     -21.357  -4.004  -9.936  0.00  0.00    -0.020 C 
HETATM   19  C           1     -20.346  -4.158 -11.065  0.00  0.00     0.009 C 
HETATM   20  C           1     -22.694  -4.589 -10.370  0.00  0.00     0.009 C 
ENDBRANCH  17  18
ENDBRANCH  16  17
BRANCH  16  21
HETATM   21  N           1     -21.758  -2.873  -7.366  0.00  0.00    -0.066 N 
HETATM   22  H           1     -20.907  -2.458  -7.808  0.00  0.00     0.275 HD
HETATM   23  H           1     -22.612  -2.505  -7.843  0.00  0.00     0.275 HD
HETATM   24  H           1     -21.784  -2.616  -6.353  0.00  0.00     0.275 HD
ENDBRANCH  16  21
ENDBRANCH   4  16
TORSDOF 10
ENDMDL
MODEL 6
REMARK VINA RESULT:      -5.3     14.677     17.616
REMARK  10 active torsions:
REMARK  status: ('A' for Active; 'I' for Inactive)
REMARK    1  A    between atoms: C_1  and  C_6 
REMARK    2  A    between atoms: N_5  and  C_20 
REMARK       I    between atoms: N_5  and  C_24 
REMARK    3  A    between atoms: C_6  and  C_12 
REMARK    4  A    between atoms: C_7  and  C_16 
REMARK    5  A    between atoms: C_7  and  C_20 
REMARK    6  A    between atoms: C_8  and  N_15 
REMARK    7  A    between atoms: C_8  and  C_16 
REMARK    8  A    between atoms: C_12  and  C_24 
REMARK    9  A    between atoms: C_12  and  N_17 
REMARK   10  A    between atoms: C_14  and  C_20 
ROOT
HETATM    1  N           1     -20.983  -6.537  -4.847  0.00  0.00    -0.345 N 
HETATM    2  O           1     -22.934  -5.763  -5.609  0.00  0.00    -0.271 OA
HETATM    3  H           1     -19.972  -6.500  -4.883  0.00  0.00     0.163 HD
HETATM    4  C           1     -21.728  -5.719  -5.653  0.00  0.00     0.249 C 
ENDROOT
BRANCH   1   5
HETATM    5  C           1     -21.642  -7.457  -3.940  0.00  0.00     0.185 C 
BRANCH   5   6
HETATM    6  C           1     -20.922  -8.799  -3.968  0.00  0.00     0.038 C 
BRANCH   6   7
HETATM    7  C           1     -19.688  -8.695  -4.856  0.00  0.00     0.030 C 
BRANCH   7   8
HETATM    8  C           1     -18.492  -9.307  -4.139  0.00  0.00     0.230 C 
BRANCH   8   9
HETATM    9  N           1     -18.736  -9.295  -2.659  0.00  0.00    -0.079 N 
HETATM   10  H           1     -18.300  -8.442  -2.241  0.00  0.00     0.274 HD
HETATM   11  H           1     -18.313 -10.148  -2.228  0.00  0.00     0.274 HD
HETATM   12  H           1     -19.765  -9.286  -2.475  0.00  0.00     0.274 HD
ENDBRANCH   8   9
ENDBRANCH   7   8
ENDBRANCH   6   7
ENDBRANCH   5   6
BRANCH   5  13
HETATM   13  C           1     -21.606  -6.895  -2.541  0.00  0.00     0.196 C 
HETATM   14  O           1     -20.837  -7.390  -1.689  0.00  0.00    -0.646 OA
HETATM   15  O           1     -22.344  -5.935  -2.234  0.00  0.00    -0.646 OA
ENDBRANCH   5  13
ENDBRANCH   1   5
BRANCH   4  16
HETATM   16  C           1     -21.041  -4.761  -6.596  0.00  0.00     0.275 C 
BRANCH  16  17
HETATM   17  C           1     -21.192  -5.261  -8.027  0.00  0.00     0.046 C 
BRANCH  17  18
HETATM   18  C           1     -21.314  -4.073  -8.971  0.00  0.00    -0.020 C 
HETATM   19  C           1     -20.484  -4.330 -10.222  0.00  0.00     0.009 C 
HETATM   20  C           1     -22.774  -3.884  -9.362  0.00  0.00     0.009 C 
ENDBRANCH  17  18
ENDBRANCH  16  17
BRANCH  16  21
HETATM   21  N           1     -19.585  -4.675  -6.248  0.00  0.00    -0.066 N 
HETATM   22  H           1     -19.426  -5.099  -5.307  0.00  0.00     0.275 HD
HETATM   23  H           1     -19.025  -5.191  -6.962  0.00  0.00     0.275 HD
HETATM   24  H           1     -19.290  -3.672  -6.231  0.00  0.00     0.275 HD
ENDBRANCH  16  21
ENDBRANCH   4  16
TORSDOF 10
ENDMDL
MODEL 7
REMARK VINA RESULT:      -5.3     13.930     16.052
REMARK  10 active torsions:
REMARK  status: ('A' for Active; 'I' for Inactive)
REMARK    1  A    between atoms: C_1  and  C_6 
REMARK    2  A    between atoms: N_5  and  C_20 
REMARK       I    between atoms: N_5  and  C_24 
REMARK    3  A    between atoms: C_6  and  C_12 
REMARK    4  A    between atoms: C_7  and  C_16 
REMARK    5  A    between atoms: C_7  and  C_20 
REMARK    6  A    between atoms: C_8  and  N_15 
REMARK    7  A    between atoms: C_8  and  C_16 
REMARK    8  A    between atoms: C_12  and  C_24 
REMARK    9  A    between atoms: C_12  and  N_17 
REMARK   10  A    between atoms: C_14  and  C_20 
ROOT
HETATM    1  N           1     -21.204  -5.217  -6.120  0.00  0.00    -0.345 N 
HETATM    2  O           1     -21.300  -7.440  -6.320  0.00  0.00    -0.271 OA
HETATM    3  H           1     -21.122  -4.414  -5.511  0.00  0.00     0.163 HD
HETATM    4  C           1     -21.203  -6.480  -5.592  0.00  0.00     0.249 C 
ENDROOT
BRANCH   1   5
HETATM    5  C           1     -21.323  -5.031  -7.554  0.00  0.00     0.185 C 
BRANCH   5   6
HETATM    6  C           1     -22.216  -3.830  -7.835  0.00  0.00     0.038 C 
BRANCH   6   7
HETATM    7  C           1     -23.567  -4.311  -8.349  0.00  0.00     0.030 C 
BRANCH   7   8
HETATM    8  C           1     -23.974  -3.484  -9.562  0.00  0.00     0.230 C 
BRANCH   8   9
HETATM    9  N           1     -25.466  -3.513  -9.709  0.00  0.00    -0.079 N 
HETATM   10  H           1     -25.905  -2.991  -8.917  0.00  0.00     0.274 HD
HETATM   11  H           1     -25.798  -4.504  -9.699  0.00  0.00     0.274 HD
HETATM   12  H           1     -25.736  -3.065 -10.614  0.00  0.00     0.274 HD
ENDBRANCH   8   9
ENDBRANCH   7   8
ENDBRANCH   6   7
ENDBRANCH   5   6
BRANCH   5  13
HETATM   13  C           1     -19.955  -4.791  -8.144  0.00  0.00     0.196 C 
HETATM   14  O           1     -18.992  -4.516  -7.396  0.00  0.00    -0.646 OA
HETATM   15  O           1     -19.786  -4.867  -9.379  0.00  0.00    -0.646 OA
ENDBRANCH   5  13
ENDBRANCH   1   5
BRANCH   4  16
HETATM   16  C           1     -21.078  -6.674  -4.101  0.00  0.00     0.275 C 
BRANCH  16  17
HETATM   17  C           1     -20.979  -8.162  -3.788  0.00  0.00     0.046 C 
BRANCH  17  18
HETATM   18  C           1     -20.261  -8.355  -2.460  0.00  0.00    -0.020 C 
HETATM   19  C           1     -21.177  -9.090  -1.489  0.00  0.00     0.009 C 
HETATM   20  C           1     -18.996  -9.174  -2.681  0.00  0.00     0.009 C 
ENDBRANCH  17  18
ENDBRANCH  16  17
BRANCH  16  21
HETATM   21  N           1     -22.285  -6.101  -3.420  0.00  0.00    -0.066 N 
HETATM   22  H           1     -22.563  -6.716  -2.623  0.00  0.00     0.275 HD
HETATM   23  H           1     -22.062  -5.146  -3.061  0.00  0.00     0.275 HD
HETATM   24  H           1     -23.075  -6.041  -4.104  0.00  0.00     0.275 HD
ENDBRANCH  16  21
ENDBRANCH   4  16
TORSDOF 10
ENDMDL
MODEL 8
REMARK VINA RESULT:      -5.3     13.416     15.472
REMARK  10 active torsions:
REMARK  status: ('A' for Active; 'I' for Inactive)
REMARK    1  A    between atoms: C_1  and  C_6 
REMARK    2  A    between atoms: N_5  and  C_20 
REMARK       I    between atoms: N_5  and  C_24 
REMARK    3  A    between atoms: C_6  and  C_12 
REMARK    4  A    between atoms: C_7  and  C_16 
REMARK    5  A    between atoms: C_7  and  C_20 
REMARK    6  A    between atoms: C_8  and  N_15 
REMARK    7  A    between atoms: C_8  and  C_16 
REMARK    8  A    between atoms: C_12  and  C_24 
REMARK    9  A    between atoms: C_12  and  N_17 
REMARK   10  A    between atoms: C_14  and  C_20 
ROOT
HETATM    1  N           1     -22.030  -5.698  -6.758  0.00  0.00    -0.345 N 
HETATM    2  O           1     -20.097  -6.784  -7.029  0.00  0.00    -0.271 OA
HETATM    3  H           1     -22.875  -5.574  -6.216  0.00  0.00     0.163 HD
HETATM    4  C           1     -21.106  -6.636  -6.382  0.00  0.00     0.249 C 
ENDROOT
BRANCH   1   5
HETATM    5  C           1     -21.798  -4.883  -7.935  0.00  0.00     0.185 C 
BRANCH   5   6
HETATM    6  C           1     -23.122  -4.312  -8.425  0.00  0.00     0.038 C 
BRANCH   6   7
HETATM    7  C           1     -22.958  -3.801  -9.851  0.00  0.00     0.030 C 
BRANCH   7   8
HETATM    8  C           1     -24.292  -3.891 -10.580  0.00  0.00     0.230 C 
BRANCH   8   9
HETATM    9  N           1     -25.404  -3.558  -9.631  0.00  0.00    -0.079 N 
HETATM   10  H           1     -25.893  -2.693  -9.957  0.00  0.00     0.274 HD
HETATM   11  H           1     -25.012  -3.395  -8.676  0.00  0.00     0.274 HD
HETATM   12  H           1     -26.083  -4.351  -9.598  0.00  0.00     0.274 HD
ENDBRANCH   8   9
ENDBRANCH   7   8
ENDBRANCH   6   7
ENDBRANCH   5   6
BRANCH   5  13
HETATM   13  C           1     -20.860  -3.753  -7.586  0.00  0.00     0.196 C 
HETATM   14  O           1     -21.217  -2.875  -6.770  0.00  0.00    -0.646 OA
HETATM   15  O           1     -19.728  -3.696  -8.110  0.00  0.00    -0.646 OA
ENDBRANCH   5  13
ENDBRANCH   1   5
BRANCH   4  16
HETATM   16  C           1     -21.349  -7.484  -5.157  0.00  0.00     0.275 C 
BRANCH  16  17
HETATM   17  C           1     -20.851  -6.745  -3.921  0.00  0.00     0.046 C 
BRANCH  17  18
HETATM   18  C           1     -21.519  -7.323  -2.681  0.00  0.00    -0.020 C 
HETATM   19  C           1     -20.464  -7.972  -1.792  0.00  0.00     0.009 C 
HETATM   20  C           1     -22.213  -6.207  -1.912  0.00  0.00     0.009 C 
ENDBRANCH  17  18
ENDBRANCH  16  17
BRANCH  16  21
HETATM   21  N           1     -20.610  -8.782  -5.294  0.00  0.00    -0.066 N 
HETATM   22  H           1     -21.149  -9.542  -4.823  0.00  0.00     0.275 HD
HETATM   23  H           1     -20.496  -9.012  -6.307  0.00  0.00     0.275 HD
HETATM   24  H           1     -19.668  -8.696  -4.848  0.00  0.00     0.275 HD
ENDBRANCH  16  21
ENDBRANCH   4  16
TORSDOF 10
ENDMDL
MODEL 9
REMARK VINA RESULT:      -5.3     17.251     18.732
REMARK  10 active torsions:
REMARK  status: ('A' for Active; 'I' for Inactive)
REMARK    1  A    between atoms: C_1  and  C_6 
REMARK    2  A    between atoms: N_5  and  C_20 
REMARK       I    between atoms: N_5  and  C_24 
REMARK    3  A    between atoms: C_6  and  C_12 
REMARK    4  A    between atoms: C_7  and  C_16 
REMARK    5  A    between atoms: C_7  and  C_20 
REMARK    6  A    between atoms: C_8  and  N_15 
REMARK    7  A    between atoms: C_8  and  C_16 
REMARK    8  A    between atoms: C_12  and  C_24 
REMARK    9  A    between atoms: C_12  and  N_17 
REMARK   10  A    between atoms: C_14  and  C_20 
ROOT
HETATM    1  N           1     -20.826  -9.048  -3.338  0.00  0.00    -0.345 N 
HETATM    2  O           1     -22.297 -10.728  -3.385  0.00  0.00    -0.271 OA
HETATM    3  H           1     -20.343  -8.346  -2.792  0.00  0.00     0.163 HD
HETATM    4  C           1     -21.720  -9.890  -2.733  0.00  0.00     0.249 C 
ENDROOT
BRANCH   1   5
HETATM    5  C           1     -20.572  -9.161  -4.761  0.00  0.00     0.185 C 
BRANCH   5   6
HETATM    6  C           1     -21.225  -7.992  -5.487  0.00  0.00     0.038 C 
BRANCH   6   7
HETATM    7  C           1     -20.891  -6.694  -4.763  0.00  0.00     0.030 C 
BRANCH   7   8
HETATM    8  C           1     -20.410  -5.658  -5.771  0.00  0.00     0.230 C 
BRANCH   8   9
HETATM    9  N           1     -20.011  -6.346  -7.043  0.00  0.00    -0.079 N 
HETATM   10  H           1     -18.996  -6.590  -7.002  0.00  0.00     0.274 HD
HETATM   11  H           1     -20.183  -5.708  -7.853  0.00  0.00     0.274 HD
HETATM   12  H           1     -20.576  -7.217  -7.159  0.00  0.00     0.274 HD
ENDBRANCH   8   9
ENDBRANCH   7   8
ENDBRANCH   6   7
ENDBRANCH   5   6
BRANCH   5  13
HETATM   13  C           1     -19.083  -9.138  -5.008  0.00  0.00     0.196 C 
HETATM   14  O           1     -18.646  -9.030  -6.175  0.00  0.00    -0.646 OA
HETATM   15  O           1     -18.289  -9.226  -4.048  0.00  0.00    -0.646 OA
ENDBRANCH   5  13
ENDBRANCH   1   5
BRANCH   4  16
HETATM   16  C           1     -21.985  -9.773  -1.252  0.00  0.00     0.275 C 
BRANCH  16  17
HETATM   17  C           1     -21.106  -8.676  -0.665  0.00  0.00     0.046 C 
BRANCH  17  18
HETATM   18  C           1     -21.985  -7.561  -0.115  0.00  0.00    -0.020 C 
HETATM   19  C           1     -22.348  -6.599  -1.239  0.00  0.00     0.009 C 
HETATM   20  C           1     -23.257  -8.159   0.470  0.00  0.00     0.009 C 
ENDBRANCH  17  18
ENDBRANCH  16  17
BRANCH  16  21
HETATM   21  N           1     -21.669 -11.078  -0.584  0.00  0.00    -0.066 N 
HETATM   22  H           1     -22.478 -11.729  -0.691  0.00  0.00     0.275 HD
HETATM   23  H           1     -20.822 -11.499  -1.026  0.00  0.00     0.275 HD
HETATM   24  H           1     -21.487 -10.913   0.433  0.00  0.00     0.275 HD
ENDBRANCH  16  21
ENDBRANCH   4  16
TORSDOF 10
ENDMDL
