MODEL 1
REMARK VINA RESULT:      -7.0      0.000      0.000
REMARK  15 active torsions:
REMARK  status: ('A' for Active; 'I' for Inactive)
REMARK       I    between atoms: C_1  and  N_2 
REMARK    1  A    between atoms: C_1  and  C_33 
REMARK    2  A    between atoms: N_2  and  C_6 
REMARK    3  A    between atoms: C_5  and  C_6 
REMARK    4  A    between atoms: C_6  and  C_7 
REMARK    5  A    between atoms: C_7  and  C_8 
REMARK    6  A    between atoms: C_8  and  N_9 
REMARK    7  A    between atoms: N_9  and  C_13 
REMARK    8  A    between atoms: C_12  and  C_13 
REMARK    9  A    between atoms: C_13  and  C_15 
REMARK   10  A    between atoms: O_14  and  C_15 
REMARK   11  A    between atoms: N_25  and  C_33 
REMARK       I    between atoms: N_26  and  C_28 
REMARK       I    between atoms: N_27  and  C_28 
REMARK   12  A    between atoms: N_29  and  C_30 
REMARK   13  A    between atoms: C_30  and  C_31 
REMARK   14  A    between atoms: C_31  and  C_32 
REMARK   15  A    between atoms: C_32  and  C_33 
ROOT
HETATM    1  C           1     -21.474  -6.551  -4.241  0.00  0.00     0.249 C 
HETATM    2  N           1     -21.013  -5.461  -4.929  0.00  0.00    -0.345 N 
HETATM    3  H           1     -20.569  -4.699  -4.432  0.00  0.00     0.163 HD
HETATM    4  O           1     -22.004  -7.459  -4.835  0.00  0.00    -0.271 OA
ENDROOT
BRANCH   1   5
HETATM    5  C           1     -21.319  -6.617  -2.741  0.00  0.00     0.274 C 
BRANCH   5   6
HETATM    6  N           1     -22.400  -5.807  -2.091  0.00  0.00    -0.067 N 
HETATM    7  H           1     -22.214  -4.790  -2.245  0.00  0.00     0.275 HD
HETATM    8  H           1     -23.323  -6.058  -2.510  0.00  0.00     0.275 HD
HETATM    9  H           1     -22.416  -6.007  -1.066  0.00  0.00     0.275 HD
ENDBRANCH   5   6
BRANCH   5  10
HETATM   10  C           1     -21.427  -8.066  -2.284  0.00  0.00     0.044 C 
BRANCH  10  11
HETATM   11  C           1     -20.031  -8.652  -2.120  0.00  0.00     0.023 C 
BRANCH  11  12
HETATM   12  C           1     -19.890  -9.886  -3.001  0.00  0.00     0.138 C 
BRANCH  12  13
HETATM   13  N           1     -18.813  -9.671  -3.978  0.00  0.00    -0.227 N 
HETATM   14  H           1     -17.821  -9.566  -3.650  0.00  0.00     0.177 HD
HETATM   15  C           1     -19.080  -9.612  -5.214  0.00  0.00     0.665 C 
HETATM   16  N           1     -20.309  -9.741  -5.619  0.00  0.00    -0.235 N 
HETATM   17  N           1     -18.152  -9.426  -6.055  0.00  0.00    -0.235 N 
HETATM   18  H           1     -20.530  -9.693  -6.639  0.00  0.00     0.174 HD
HETATM   19  H           1     -21.075  -9.895  -4.925  0.00  0.00     0.174 HD
HETATM   20  H           1     -17.160  -9.321  -5.727  0.00  0.00     0.174 HD
HETATM   21  H           1     -18.375  -9.377  -7.080  0.00  0.00     0.174 HD
ENDBRANCH  12  13
ENDBRANCH  11  12
ENDBRANCH  10  11
ENDBRANCH   5  10
ENDBRANCH   1   5
BRANCH   2  22
HETATM   22  C           1     -21.163  -5.395  -6.369  0.00  0.00     0.187 C 
BRANCH  22  23
HETATM   23  C           1     -19.843  -5.722  -7.026  0.00  0.00     0.196 C 
HETATM   24  O           1     -19.182  -4.819  -7.583  0.00  0.00    -0.646 OA
HETATM   25  O           1     -19.412  -6.895  -7.013  0.00  0.00    -0.646 OA
ENDBRANCH  22  23
BRANCH  22  26
HETATM   26  C           1     -21.597  -3.992  -6.772  0.00  0.00     0.066 C 
BRANCH  26  27
HETATM   27  C           1     -22.672  -4.081  -7.847  0.00  0.00     0.273 C 
BRANCH  27  28
HETATM   28  N           1     -22.068  -4.456  -9.098  0.00  0.00     0.101 N 
HETATM   29  H           1     -22.309  -5.423  -9.315  0.00  0.00     0.317 HD
BRANCH  28  30
HETATM   30  C           1     -22.601  -3.591 -10.117  0.00  0.00     0.348 C 
BRANCH  30  31
HETATM   31  C           1     -23.930  -4.128 -10.588  0.00  0.00     0.210 C 
HETATM   32  O           1     -24.849  -3.339 -10.895  0.00  0.00    -0.646 OA
HETATM   33  O           1     -24.112  -5.362 -10.671  0.00  0.00    -0.646 OA
ENDBRANCH  30  31
BRANCH  30  34
HETATM   34  C           1     -21.632  -3.533 -11.290  0.00  0.00     0.158 C 
HETATM   35  C           1     -20.346  -4.262 -10.922  0.00  0.00     0.042 C 
BRANCH  34  36
HETATM   36  O           1     -22.215  -4.147 -12.408  0.00  0.00    -0.393 OA
HETATM   37  H           1     -22.443  -3.460 -13.010  0.00  0.00     0.210 HD
ENDBRANCH  34  36
ENDBRANCH  30  34
ENDBRANCH  28  30
ENDBRANCH  27  28
ENDBRANCH  26  27
ENDBRANCH  22  26
ENDBRANCH   2  22
TORSDOF 15
ENDMDL
MODEL 2
REMARK VINA RESULT:      -6.6      2.212      2.760
REMARK  15 active torsions:
REMARK  status: ('A' for Active; 'I' for Inactive)
REMARK       I    between atoms: C_1  and  N_2 
REMARK    1  A    between atoms: C_1  and  C_33 
REMARK    2  A    between atoms: N_2  and  C_6 
REMARK    3  A    between atoms: C_5  and  C_6 
REMARK    4  A    between atoms: C_6  and  C_7 
REMARK    5  A    between atoms: C_7  and  C_8 
REMARK    6  A    between atoms: C_8  and  N_9 
REMARK    7  A    between atoms: N_9  and  C_13 
REMARK    8  A    between atoms: C_12  and  C_13 
REMARK    9  A    between atoms: C_13  and  C_15 
REMARK   10  A    between atoms: O_14  and  C_15 
REMARK   11  A    between atoms: N_25  and  C_33 
REMARK       I    between atoms: N_26  and  C_28 
REMARK       I    between atoms: N_27  and  C_28 
REMARK   12  A    between atoms: N_29  and  C_30 
REMARK   13  A    between atoms: C_30  and  C_31 
REMARK   14  A    between atoms: C_31  and  C_32 
REMARK   15  A    between atoms: C_32  and  C_33 
ROOT
HETATM    1  C           1     -21.482  -6.622  -4.085  0.00  0.00     0.249 C 
HETATM    2  N           1     -21.044  -5.551  -4.816  0.00  0.00    -0.345 N 
HETATM    3  H           1     -20.606  -4.766  -4.353  0.00  0.00     0.163 HD
HETATM    4  O           1     -22.005  -7.559  -4.639  0.00  0.00    -0.271 OA
ENDROOT
BRANCH   1   5
HETATM    5  C           1     -21.312  -6.631  -2.585  0.00  0.00     0.274 C 
BRANCH   5   6
HETATM    6  N           1     -22.306  -5.696  -1.964  0.00  0.00    -0.067 N 
HETATM    7  H           1     -23.202  -6.205  -1.789  0.00  0.00     0.275 HD
HETATM    8  H           1     -21.928  -5.338  -1.058  0.00  0.00     0.275 HD
HETATM    9  H           1     -22.481  -4.894  -2.610  0.00  0.00     0.275 HD
ENDBRANCH   5   6
BRANCH   5  10
HETATM   10  C           1     -21.543  -8.041  -2.056  0.00  0.00     0.044 C 
BRANCH  10  11
HETATM   11  C           1     -22.216  -7.968  -0.693  0.00  0.00     0.023 C 
BRANCH  11  12
HETATM   12  C           1     -22.783  -9.335  -0.332  0.00  0.00     0.138 C 
BRANCH  12  13
HETATM   13  N           1     -21.683 -10.244   0.022  0.00  0.00    -0.227 N 
HETATM   14  H           1     -20.695  -9.889   0.044  0.00  0.00     0.177 HD
HETATM   15  C           1     -21.927 -11.455   0.299  0.00  0.00     0.665 C 
HETATM   16  N           1     -23.150 -11.894   0.270  0.00  0.00    -0.235 N 
HETATM   17  N           1     -20.980 -12.239   0.603  0.00  0.00    -0.235 N 
HETATM   18  H           1     -23.352 -12.894   0.499  0.00  0.00     0.174 HD
HETATM   19  H           1     -23.932 -11.248   0.019  0.00  0.00     0.174 HD
HETATM   20  H           1     -19.992 -11.883   0.625  0.00  0.00     0.174 HD
HETATM   21  H           1     -21.183 -13.243   0.833  0.00  0.00     0.174 HD
ENDBRANCH  12  13
ENDBRANCH  11  12
ENDBRANCH  10  11
ENDBRANCH   5  10
ENDBRANCH   1   5
BRANCH   2  22
HETATM   22  C           1     -21.208  -5.542  -6.257  0.00  0.00     0.187 C 
BRANCH  22  23
HETATM   23  C           1     -19.894  -5.886  -6.914  0.00  0.00     0.196 C 
HETATM   24  O           1     -19.266  -5.012  -7.551  0.00  0.00    -0.646 OA
HETATM   25  O           1     -19.433  -7.044  -6.822  0.00  0.00    -0.646 OA
ENDBRANCH  22  23
BRANCH  22  26
HETATM   26  C           1     -21.655  -4.157  -6.708  0.00  0.00     0.066 C 
BRANCH  26  27
HETATM   27  C           1     -22.768  -4.292  -7.738  0.00  0.00     0.273 C 
BRANCH  27  28
HETATM   28  N           1     -22.199  -4.624  -9.018  0.00  0.00     0.101 N 
HETATM   29  H           1     -22.509  -5.554  -9.297  0.00  0.00     0.317 HD
BRANCH  28  30
HETATM   30  C           1     -22.674  -3.656  -9.971  0.00  0.00     0.348 C 
BRANCH  30  31
HETATM   31  C           1     -24.052  -4.049 -10.442  0.00  0.00     0.210 C 
HETATM   32  O           1     -24.872  -3.168 -10.779  0.00  0.00    -0.646 OA
HETATM   33  O           1     -24.374  -5.256 -10.496  0.00  0.00    -0.646 OA
ENDBRANCH  30  31
BRANCH  30  34
HETATM   34  C           1     -21.724  -3.609 -11.160  0.00  0.00     0.158 C 
HETATM   35  C           1     -20.433  -4.335 -10.808  0.00  0.00     0.042 C 
BRANCH  34  36
HETATM   36  O           1     -22.326  -4.232 -12.263  0.00  0.00    -0.393 OA
HETATM   37  H           1     -22.149  -3.691 -13.013  0.00  0.00     0.210 HD
ENDBRANCH  34  36
ENDBRANCH  30  34
ENDBRANCH  28  30
ENDBRANCH  27  28
ENDBRANCH  26  27
ENDBRANCH  22  26
ENDBRANCH   2  22
TORSDOF 15
ENDMDL
MODEL 3
REMARK VINA RESULT:      -6.2      3.111      7.996
REMARK  15 active torsions:
REMARK  status: ('A' for Active; 'I' for Inactive)
REMARK       I    between atoms: C_1  and  N_2 
REMARK    1  A    between atoms: C_1  and  C_33 
REMARK    2  A    between atoms: N_2  and  C_6 
REMARK    3  A    between atoms: C_5  and  C_6 
REMARK    4  A    between atoms: C_6  and  C_7 
REMARK    5  A    between atoms: C_7  and  C_8 
REMARK    6  A    between atoms: C_8  and  N_9 
REMARK    7  A    between atoms: N_9  and  C_13 
REMARK    8  A    between atoms: C_12  and  C_13 
REMARK    9  A    between atoms: C_13  and  C_15 
REMARK   10  A    between atoms: O_14  and  C_15 
REMARK   11  A    between atoms: N_25  and  C_33 
REMARK       I    between atoms: N_26  and  C_28 
REMARK       I    between atoms: N_27  and  C_28 
REMARK   12  A    between atoms: N_29  and  C_30 
REMARK   13  A    between atoms: C_30  and  C_31 
REMARK   14  A    between atoms: C_31  and  C_32 
REMARK   15  A    between atoms: C_32  and  C_33 
ROOT
HETATM    1  C           1     -21.254  -6.782  -4.933  0.00  0.00     0.249 C 
HETATM    2  N           1     -20.805  -6.715  -3.642  0.00  0.00    -0.345 N 
HETATM    3  H           1     -20.146  -5.996  -3.371  0.00  0.00     0.163 HD
HETATM    4  O           1     -22.040  -7.641  -5.256  0.00  0.00    -0.271 OA
ENDROOT
BRANCH   1   5
HETATM    5  C           1     -20.767  -5.783  -5.954  0.00  0.00     0.274 C 
BRANCH   5   6
HETATM    6  N           1     -19.949  -6.489  -6.994  0.00  0.00    -0.067 N 
HETATM    7  H           1     -18.942  -6.233  -6.878  0.00  0.00     0.275 HD
HETATM    8  H           1     -20.060  -7.522  -6.882  0.00  0.00     0.275 HD
HETATM    9  H           1     -20.274  -6.204  -7.945  0.00  0.00     0.275 HD
ENDBRANCH   5   6
BRANCH   5  10
HETATM   10  C           1     -21.962  -5.111  -6.618  0.00  0.00     0.044 C 
BRANCH  10  11
HETATM   11  C           1     -21.491  -3.891  -7.397  0.00  0.00     0.023 C 
BRANCH  11  12
HETATM   12  C           1     -22.077  -3.927  -8.803  0.00  0.00     0.138 C 
BRANCH  12  13
HETATM   13  N           1     -23.494  -3.540  -8.754  0.00  0.00    -0.227 N 
HETATM   14  H           1     -23.854  -2.966  -7.951  0.00  0.00     0.177 HD
HETATM   15  C           1     -24.282  -3.898  -9.678  0.00  0.00     0.665 C 
HETATM   16  N           1     -23.836  -4.609 -10.671  0.00  0.00    -0.235 N 
HETATM   17  N           1     -25.502  -3.565  -9.636  0.00  0.00    -0.235 N 
HETATM   18  H           1     -24.485  -4.905 -11.435  0.00  0.00     0.174 HD
HETATM   19  H           1     -22.828  -4.884 -10.707  0.00  0.00     0.174 HD
HETATM   20  H           1     -25.862  -2.991  -8.833  0.00  0.00     0.174 HD
HETATM   21  H           1     -26.154  -3.862 -10.403  0.00  0.00     0.174 HD
ENDBRANCH  12  13
ENDBRANCH  11  12
ENDBRANCH  10  11
ENDBRANCH   5  10
ENDBRANCH   1   5
BRANCH   2  22
HETATM   22  C           1     -21.272  -7.676  -2.661  0.00  0.00     0.187 C 
BRANCH  22  23
HETATM   23  C           1     -22.042  -6.955  -1.581  0.00  0.00     0.196 C 
HETATM   24  O           1     -22.151  -7.467  -0.446  0.00  0.00    -0.646 OA
HETATM   25  O           1     -22.571  -5.849  -1.822  0.00  0.00    -0.646 OA
ENDBRANCH  22  23
BRANCH  22  26
HETATM   26  C           1     -20.078  -8.392  -2.044  0.00  0.00     0.066 C 
BRANCH  26  27
HETATM   27  C           1     -20.115  -9.865  -2.427  0.00  0.00     0.273 C 
BRANCH  27  28
HETATM   28  N           1     -18.772 -10.345  -2.617  0.00  0.00     0.101 N 
HETATM   29  H           1     -18.800 -11.282  -3.019  0.00  0.00     0.317 HD
BRANCH  28  30
HETATM   30  C           1     -18.115  -9.452  -3.534  0.00  0.00     0.348 C 
BRANCH  30  31
HETATM   31  C           1     -18.397  -9.888  -4.950  0.00  0.00     0.210 C 
HETATM   32  O           1     -18.668  -9.038  -5.825  0.00  0.00    -0.646 OA
HETATM   33  O           1     -18.359 -11.102  -5.250  0.00  0.00    -0.646 OA
ENDBRANCH  30  31
BRANCH  30  34
HETATM   34  C           1     -16.614  -9.482  -3.282  0.00  0.00     0.158 C 
HETATM   35  C           1     -16.286 -10.602  -2.304  0.00  0.00     0.042 C 
BRANCH  34  36
HETATM   36  O           1     -15.942  -9.705  -4.493  0.00  0.00    -0.393 OA
HETATM   37  H           1     -15.864 -10.639  -4.594  0.00  0.00     0.210 HD
ENDBRANCH  34  36
ENDBRANCH  30  34
ENDBRANCH  28  30
ENDBRANCH  27  28
ENDBRANCH  26  27
ENDBRANCH  22  26
ENDBRANCH   2  22
TORSDOF 15
ENDMDL
MODEL 4
REMARK VINA RESULT:      -6.1     11.536     15.701
REMARK  15 active torsions:
REMARK  status: ('A' for Active; 'I' for Inactive)
REMARK       I    between atoms: C_1  and  N_2 
REMARK    1  A    between atoms: C_1  and  C_33 
REMARK    2  A    between atoms: N_2  and  C_6 
REMARK    3  A    between atoms: C_5  and  C_6 
REMARK    4  A    between atoms: C_6  and  C_7 
REMARK    5  A    between atoms: C_7  and  C_8 
REMARK    6  A    between atoms: C_8  and  N_9 
REMARK    7  A    between atoms: N_9  and  C_13 
REMARK    8  A    between atoms: C_12  and  C_13 
REMARK    9  A    between atoms: C_13  and  C_15 
REMARK   10  A    between atoms: O_14  and  C_15 
REMARK   11  A    between atoms: N_25  and  C_33 
REMARK       I    between atoms: N_26  and  C_28 
REMARK       I    between atoms: N_27  and  C_28 
REMARK   12  A    between atoms: N_29  and  C_30 
REMARK   13  A    between atoms: C_30  and  C_31 
REMARK   14  A    between atoms: C_31  and  C_32 
REMARK   15  A    between atoms: C_32  and  C_33 
ROOT
HETATM    1  C           1     -32.240  -4.423 -16.954  0.00  0.00     0.249 C 
HETATM    2  N           1     -31.768  -5.699 -16.809  0.00  0.00    -0.345 N 
HETATM    3  H           1     -32.337  -6.401 -16.354  0.00  0.00     0.163 HD
HETATM    4  O           1     -31.560  -3.585 -17.497  0.00  0.00    -0.271 OA
ENDROOT
BRANCH   1   5
HETATM    5  C           1     -33.611  -4.062 -16.437  0.00  0.00     0.274 C 
BRANCH   5   6
HETATM    6  N           1     -33.602  -4.090 -14.937  0.00  0.00    -0.067 N 
HETATM    7  H           1     -34.166  -4.902 -14.599  0.00  0.00     0.275 HD
HETATM    8  H           1     -32.618  -4.185 -14.597  0.00  0.00     0.275 HD
HETATM    9  H           1     -34.014  -3.203 -14.570  0.00  0.00     0.275 HD
ENDBRANCH   5   6
BRANCH   5  10
HETATM   10  C           1     -33.984  -2.665 -16.916  0.00  0.00     0.044 C 
BRANCH  10  11
HETATM   11  C           1     -35.421  -2.358 -16.519  0.00  0.00     0.023 C 
BRANCH  11  12
HETATM   12  C           1     -35.597  -0.853 -16.367  0.00  0.00     0.138 C 
BRANCH  12  13
HETATM   13  N           1     -34.963  -0.409 -15.118  0.00  0.00    -0.227 N 
HETATM   14  H           1     -34.395  -1.084 -14.548  0.00  0.00     0.177 HD
HETATM   15  C           1     -35.101   0.788 -14.728  0.00  0.00     0.665 C 
HETATM   16  N           1     -35.804   1.623 -15.433  0.00  0.00    -0.235 N 
HETATM   17  N           1     -34.555   1.170 -13.651  0.00  0.00    -0.235 N 
HETATM   18  H           1     -35.918   2.611 -15.112  0.00  0.00     0.174 HD
HETATM   19  H           1     -36.255   1.308 -16.322  0.00  0.00     0.174 HD
HETATM   20  H           1     -33.988   0.495 -13.082  0.00  0.00     0.174 HD
HETATM   21  H           1     -34.670   2.163 -13.329  0.00  0.00     0.174 HD
ENDBRANCH  12  13
ENDBRANCH  11  12
ENDBRANCH  10  11
ENDBRANCH   5  10
ENDBRANCH   1   5
BRANCH   2  22
HETATM   22  C           1     -30.451  -6.046 -17.306  0.00  0.00     0.187 C 
BRANCH  22  23
HETATM   23  C           1     -30.515  -7.381 -18.009  0.00  0.00     0.196 C 
HETATM   24  O           1     -31.395  -7.590 -18.871  0.00  0.00    -0.646 OA
HETATM   25  O           1     -29.690  -8.276 -17.728  0.00  0.00    -0.646 OA
ENDBRANCH  22  23
BRANCH  22  26
HETATM   26  C           1     -29.475  -6.132 -16.139  0.00  0.00     0.066 C 
BRANCH  26  27
HETATM   27  C           1     -28.644  -4.858 -16.076  0.00  0.00     0.273 C 
BRANCH  27  28
HETATM   28  N           1     -27.511  -4.979 -16.954  0.00  0.00     0.101 N 
HETATM   29  H           1     -26.755  -4.383 -16.617  0.00  0.00     0.317 HD
BRANCH  28  30
HETATM   30  C           1     -27.084  -6.353 -16.928  0.00  0.00     0.348 C 
BRANCH  30  31
HETATM   31  C           1     -25.894  -6.492 -16.012  0.00  0.00     0.210 C 
HETATM   32  O           1     -25.686  -7.571 -15.417  0.00  0.00    -0.646 OA
HETATM   33  O           1     -25.114  -5.528 -15.849  0.00  0.00    -0.646 OA
ENDBRANCH  30  31
BRANCH  30  34
HETATM   34  C           1     -26.697  -6.789 -18.334  0.00  0.00     0.158 C 
HETATM   35  C           1     -27.420  -5.918 -19.353  0.00  0.00     0.042 C 
BRANCH  34  36
HETATM   36  O           1     -25.311  -6.652 -18.501  0.00  0.00    -0.393 OA
HETATM   37  H           1     -25.166  -6.417 -19.401  0.00  0.00     0.210 HD
ENDBRANCH  34  36
ENDBRANCH  30  34
ENDBRANCH  28  30
ENDBRANCH  27  28
ENDBRANCH  26  27
ENDBRANCH  22  26
ENDBRANCH   2  22
TORSDOF 15
ENDMDL
MODEL 5
REMARK VINA RESULT:      -6.1     14.585     16.759
REMARK  15 active torsions:
REMARK  status: ('A' for Active; 'I' for Inactive)
REMARK       I    between atoms: C_1  and  N_2 
REMARK    1  A    between atoms: C_1  and  C_33 
REMARK    2  A    between atoms: N_2  and  C_6 
REMARK    3  A    between atoms: C_5  and  C_6 
REMARK    4  A    between atoms: C_6  and  C_7 
REMARK    5  A    between atoms: C_7  and  C_8 
REMARK    6  A    between atoms: C_8  and  N_9 
REMARK    7  A    between atoms: N_9  and  C_13 
REMARK    8  A    between atoms: C_12  and  C_13 
REMARK    9  A    between atoms: C_13  and  C_15 
REMARK   10  A    between atoms: O_14  and  C_15 
REMARK   11  A    between atoms: N_25  and  C_33 
REMARK       I    between atoms: N_26  and  C_28 
REMARK       I    between atoms: N_27  and  C_28 
REMARK   12  A    between atoms: N_29  and  C_30 
REMARK   13  A    between atoms: C_30  and  C_31 
REMARK   14  A    between atoms: C_31  and  C_32 
REMARK   15  A    between atoms: C_32  and  C_33 
ROOT
HETATM    1  C           1     -34.306  -2.887 -16.109  0.00  0.00     0.249 C 
HETATM    2  N           1     -34.769  -1.639 -16.427  0.00  0.00    -0.345 N 
HETATM    3  H           1     -34.556  -1.234 -17.330  0.00  0.00     0.163 HD
HETATM    4  O           1     -34.560  -3.370 -15.032  0.00  0.00    -0.271 OA
ENDROOT
BRANCH   1   5
HETATM    5  C           1     -33.479  -3.661 -17.107  0.00  0.00     0.274 C 
BRANCH   5   6
HETATM    6  N           1     -32.321  -2.821 -17.554  0.00  0.00    -0.067 N 
HETATM    7  H           1     -31.427  -3.256 -17.230  0.00  0.00     0.275 HD
HETATM    8  H           1     -32.318  -2.759 -18.598  0.00  0.00     0.275 HD
HETATM    9  H           1     -32.408  -1.862 -17.148  0.00  0.00     0.275 HD
ENDBRANCH   5   6
BRANCH   5  10
HETATM   10  C           1     -32.958  -4.936 -16.454  0.00  0.00     0.044 C 
BRANCH  10  11
HETATM   11  C           1     -31.438  -4.965 -16.538  0.00  0.00     0.023 C 
BRANCH  11  12
HETATM   12  C           1     -30.993  -6.235 -17.251  0.00  0.00     0.138 C 
BRANCH  12  13
HETATM   13  N           1     -29.689  -6.007 -17.892  0.00  0.00    -0.227 N 
HETATM   14  H           1     -29.299  -5.034 -17.956  0.00  0.00     0.177 HD
HETATM   15  C           1     -29.037  -6.982 -18.367  0.00  0.00     0.665 C 
HETATM   16  N           1     -29.521  -8.186 -18.288  0.00  0.00    -0.235 N 
HETATM   17  N           1     -27.915  -6.786 -18.919  0.00  0.00    -0.235 N 
HETATM   18  H           1     -28.983  -8.992 -18.680  0.00  0.00     0.174 HD
HETATM   19  H           1     -30.447  -8.349 -17.833  0.00  0.00     0.174 HD
HETATM   20  H           1     -27.525  -5.813 -18.983  0.00  0.00     0.174 HD
HETATM   21  H           1     -27.375  -7.595 -19.313  0.00  0.00     0.174 HD
ENDBRANCH  12  13
ENDBRANCH  11  12
ENDBRANCH  10  11
ENDBRANCH   5  10
ENDBRANCH   1   5
BRANCH   2  22
HETATM   22  C           1     -35.563  -0.894 -15.469  0.00  0.00     0.187 C 
BRANCH  22  23
HETATM   23  C           1     -36.691  -0.195 -16.189  0.00  0.00     0.196 C 
HETATM   24  O           1     -37.569  -0.866 -16.774  0.00  0.00    -0.646 OA
HETATM   25  O           1     -36.746   1.053 -16.201  0.00  0.00    -0.646 OA
ENDBRANCH  22  23
BRANCH  22  26
HETATM   26  C           1     -34.684   0.138 -14.775  0.00  0.00     0.066 C 
BRANCH  26  27
HETATM   27  C           1     -35.294   0.501 -13.428  0.00  0.00     0.273 C 
BRANCH  27  28
HETATM   28  N           1     -34.763  -0.368 -12.412  0.00  0.00     0.101 N 
HETATM   29  H           1     -34.564   0.174 -11.571  0.00  0.00     0.317 HD
BRANCH  28  30
HETATM   30  C           1     -35.764  -1.358 -12.117  0.00  0.00     0.348 C 
BRANCH  30  31
HETATM   31  C           1     -36.648  -0.863 -11.000  0.00  0.00     0.210 C 
HETATM   32  O           1     -37.887  -1.014 -11.069  0.00  0.00    -0.646 OA
HETATM   33  O           1     -36.142  -0.300 -10.005  0.00  0.00    -0.646 OA
ENDBRANCH  30  31
BRANCH  30  34
HETATM   34  C           1     -35.085  -2.653 -11.691  0.00  0.00     0.158 C 
HETATM   35  C           1     -33.762  -2.332 -11.009  0.00  0.00     0.042 C 
BRANCH  34  36
HETATM   36  O           1     -35.917  -3.344 -10.797  0.00  0.00    -0.393 OA
HETATM   37  H           1     -35.762  -4.263 -10.934  0.00  0.00     0.210 HD
ENDBRANCH  34  36
ENDBRANCH  30  34
ENDBRANCH  28  30
ENDBRANCH  27  28
ENDBRANCH  26  27
ENDBRANCH  22  26
ENDBRANCH   2  22
TORSDOF 15
ENDMDL
MODEL 6
REMARK VINA RESULT:      -6.1      3.040      8.251
REMARK  15 active torsions:
REMARK  status: ('A' for Active; 'I' for Inactive)
REMARK       I    between atoms: C_1  and  N_2 
REMARK    1  A    between atoms: C_1  and  C_33 
REMARK    2  A    between atoms: N_2  and  C_6 
REMARK    3  A    between atoms: C_5  and  C_6 
REMARK    4  A    between atoms: C_6  and  C_7 
REMARK    5  A    between atoms: C_7  and  C_8 
REMARK    6  A    between atoms: C_8  and  N_9 
REMARK    7  A    between atoms: N_9  and  C_13 
REMARK    8  A    between atoms: C_12  and  C_13 
REMARK    9  A    between atoms: C_13  and  C_15 
REMARK   10  A    between atoms: O_14  and  C_15 
REMARK   11  A    between atoms: N_25  and  C_33 
REMARK       I    between atoms: N_26  and  C_28 
REMARK       I    between atoms: N_27  and  C_28 
REMARK   12  A    between atoms: N_29  and  C_30 
REMARK   13  A    between atoms: C_30  and  C_31 
REMARK   14  A    between atoms: C_31  and  C_32 
REMARK   15  A    between atoms: C_32  and  C_33 
ROOT
HETATM    1  C           1     -20.415  -7.069  -5.839  0.00  0.00     0.249 C 
HETATM    2  N           1     -20.499  -8.005  -4.844  0.00  0.00    -0.345 N 
HETATM    3  H           1     -21.228  -7.938  -4.146  0.00  0.00     0.163 HD
HETATM    4  O           1     -19.545  -7.149  -6.673  0.00  0.00    -0.271 OA
ENDROOT
BRANCH   1   5
HETATM    5  C           1     -21.411  -5.936  -5.895  0.00  0.00     0.274 C 
BRANCH   5   6
HETATM    6  N           1     -22.157  -5.862  -4.596  0.00  0.00    -0.067 N 
HETATM    7  H           1     -21.533  -6.173  -3.817  0.00  0.00     0.275 HD
HETATM    8  H           1     -22.461  -4.877  -4.425  0.00  0.00     0.275 HD
HETATM    9  H           1     -22.995  -6.484  -4.640  0.00  0.00     0.275 HD
ENDBRANCH   5   6
BRANCH   5  10
HETATM   10  C           1     -20.674  -4.624  -6.132  0.00  0.00     0.044 C 
BRANCH  10  11
HETATM   11  C           1     -21.506  -3.732  -7.044  0.00  0.00     0.023 C 
BRANCH  11  12
HETATM   12  C           1     -22.317  -4.597  -8.000  0.00  0.00     0.138 C 
BRANCH  12  13
HETATM   13  N           1     -23.611  -3.951  -8.267  0.00  0.00    -0.227 N 
HETATM   14  H           1     -24.055  -3.343  -7.536  0.00  0.00     0.177 HD
HETATM   15  C           1     -24.190  -4.129  -9.379  0.00  0.00     0.665 C 
HETATM   16  N           1     -23.639  -4.883 -10.284  0.00  0.00    -0.235 N 
HETATM   17  N           1     -25.304  -3.575  -9.610  0.00  0.00    -0.235 N 
HETATM   18  H           1     -24.116  -5.030 -11.202  0.00  0.00     0.174 HD
HETATM   19  H           1     -22.719  -5.342 -10.095  0.00  0.00     0.174 HD
HETATM   20  H           1     -25.748  -2.966  -8.878  0.00  0.00     0.174 HD
HETATM   21  H           1     -25.783  -3.722 -10.532  0.00  0.00     0.174 HD
ENDBRANCH  12  13
ENDBRANCH  11  12
ENDBRANCH  10  11
ENDBRANCH   5  10
ENDBRANCH   1   5
BRANCH   2  22
HETATM   22  C           1     -19.542  -9.093  -4.790  0.00  0.00     0.187 C 
BRANCH  22  23
HETATM   23  C           1     -20.205 -10.367  -5.255  0.00  0.00     0.196 C 
HETATM   24  O           1     -19.814 -10.928  -6.301  0.00  0.00    -0.646 OA
HETATM   25  O           1     -21.144 -10.861  -4.594  0.00  0.00    -0.646 OA
ENDBRANCH  22  23
BRANCH  22  26
HETATM   26  C           1     -19.053  -9.267  -3.358  0.00  0.00     0.066 C 
BRANCH  26  27
HETATM   27  C           1     -19.932  -8.453  -2.417  0.00  0.00     0.273 C 
BRANCH  27  28
HETATM   28  N           1     -20.523  -9.326  -1.438  0.00  0.00     0.101 N 
HETATM   29  H           1     -20.091  -9.160  -0.530  0.00  0.00     0.317 HD
BRANCH  28  30
HETATM   30  C           1     -21.925  -9.013  -1.364  0.00  0.00     0.348 C 
BRANCH  30  31
HETATM   31  C           1     -22.140  -7.898  -0.371  0.00  0.00     0.210 C 
HETATM   32  O           1     -22.820  -6.899  -0.689  0.00  0.00    -0.646 OA
HETATM   33  O           1     -21.638  -7.974   0.772  0.00  0.00    -0.646 OA
ENDBRANCH  30  31
BRANCH  30  34
HETATM   34  C           1     -22.698 -10.247  -0.918  0.00  0.00     0.158 C 
HETATM   35  C           1     -21.749 -11.214  -0.222  0.00  0.00     0.042 C 
BRANCH  34  36
HETATM   36  O           1     -23.713  -9.866  -0.029  0.00  0.00    -0.393 OA
HETATM   37  H           1     -23.818 -10.572   0.585  0.00  0.00     0.210 HD
ENDBRANCH  34  36
ENDBRANCH  30  34
ENDBRANCH  28  30
ENDBRANCH  27  28
ENDBRANCH  26  27
ENDBRANCH  22  26
ENDBRANCH   2  22
TORSDOF 15
ENDMDL
MODEL 7
REMARK VINA RESULT:      -6.1      2.972      7.613
REMARK  15 active torsions:
REMARK  status: ('A' for Active; 'I' for Inactive)
REMARK       I    between atoms: C_1  and  N_2 
REMARK    1  A    between atoms: C_1  and  C_33 
REMARK    2  A    between atoms: N_2  and  C_6 
REMARK    3  A    between atoms: C_5  and  C_6 
REMARK    4  A    between atoms: C_6  and  C_7 
REMARK    5  A    between atoms: C_7  and  C_8 
REMARK    6  A    between atoms: C_8  and  N_9 
REMARK    7  A    between atoms: N_9  and  C_13 
REMARK    8  A    between atoms: C_12  and  C_13 
REMARK    9  A    between atoms: C_13  and  C_15 
REMARK   10  A    between atoms: O_14  and  C_15 
REMARK   11  A    between atoms: N_25  and  C_33 
REMARK       I    between atoms: N_26  and  C_28 
REMARK       I    between atoms: N_27  and  C_28 
REMARK   12  A    between atoms: N_29  and  C_30 
REMARK   13  A    between atoms: C_30  and  C_31 
REMARK   14  A    between atoms: C_31  and  C_32 
REMARK   15  A    between atoms: C_32  and  C_33 
ROOT
HETATM    1  C           1     -21.188  -6.758  -5.094  0.00  0.00     0.249 C 
HETATM    2  N           1     -20.907  -6.690  -3.757  0.00  0.00    -0.345 N 
HETATM    3  H           1     -20.419  -5.887  -3.381  0.00  0.00     0.163 HD
HETATM    4  O           1     -21.769  -7.717  -5.542  0.00  0.00    -0.271 OA
ENDROOT
BRANCH   1   5
HETATM    5  C           1     -20.770  -5.633  -6.010  0.00  0.00     0.274 C 
BRANCH   5   6
HETATM    6  N           1     -19.883  -6.172  -7.092  0.00  0.00    -0.067 N 
HETATM    7  H           1     -20.262  -7.085  -7.432  0.00  0.00     0.275 HD
HETATM    8  H           1     -19.849  -5.493  -7.886  0.00  0.00     0.275 HD
HETATM    9  H           1     -18.919  -6.314  -6.713  0.00  0.00     0.275 HD
ENDBRANCH   5   6
BRANCH   5  10
HETATM   10  C           1     -22.008  -5.003  -6.637  0.00  0.00     0.044 C 
BRANCH  10  11
HETATM   11  C           1     -21.601  -3.773  -7.438  0.00  0.00     0.023 C 
BRANCH  11  12
HETATM   12  C           1     -22.197  -3.857  -8.837  0.00  0.00     0.138 C 
BRANCH  12  13
HETATM   13  N           1     -23.627  -3.518  -8.783  0.00  0.00    -0.227 N 
HETATM   14  H           1     -24.012  -3.001  -7.954  0.00  0.00     0.177 HD
HETATM   15  C           1     -24.393  -3.850  -9.735  0.00  0.00     0.665 C 
HETATM   16  N           1     -23.914  -4.490 -10.760  0.00  0.00    -0.235 N 
HETATM   17  N           1     -25.624  -3.559  -9.688  0.00  0.00    -0.235 N 
HETATM   18  H           1     -24.546  -4.763 -11.547  0.00  0.00     0.174 HD
HETATM   19  H           1     -22.898  -4.731 -10.799  0.00  0.00     0.174 HD
HETATM   20  H           1     -26.010  -3.042  -8.859  0.00  0.00     0.174 HD
HETATM   21  H           1     -26.258  -3.834 -10.478  0.00  0.00     0.174 HD
ENDBRANCH  12  13
ENDBRANCH  11  12
ENDBRANCH  10  11
ENDBRANCH   5  10
ENDBRANCH   1   5
BRANCH   2  22
HETATM   22  C           1     -21.306  -7.771  -2.876  0.00  0.00     0.187 C 
BRANCH  22  23
HETATM   23  C           1     -21.956  -7.197  -1.641  0.00  0.00     0.196 C 
HETATM   24  O           1     -22.002  -7.871  -0.589  0.00  0.00    -0.646 OA
HETATM   25  O           1     -22.448  -6.048  -1.669  0.00  0.00    -0.646 OA
ENDBRANCH  22  23
BRANCH  22  26
HETATM   26  C           1     -20.079  -8.580  -2.477  0.00  0.00     0.066 C 
BRANCH  26  27
HETATM   27  C           1     -20.256 -10.025  -2.924  0.00  0.00     0.273 C 
BRANCH  27  28
HETATM   28  N           1     -20.444 -10.066  -4.350  0.00  0.00     0.101 N 
HETATM   29  H           1     -20.426  -9.117  -4.723  0.00  0.00     0.317 HD
BRANCH  28  30
HETATM   30  C           1     -19.357 -10.822  -4.912  0.00  0.00     0.348 C 
BRANCH  30  31
HETATM   31  C           1     -18.320  -9.876  -5.465  0.00  0.00     0.210 C 
HETATM   32  O           1     -17.105 -10.118  -5.303  0.00  0.00    -0.646 OA
HETATM   33  O           1     -18.676  -8.851  -6.085  0.00  0.00    -0.646 OA
ENDBRANCH  30  31
BRANCH  30  34
HETATM   34  C           1     -19.884 -11.710  -6.032  0.00  0.00     0.158 C 
HETATM   35  C           1     -21.348 -11.383  -6.293  0.00  0.00     0.042 C 
BRANCH  34  36
HETATM   36  O           1     -19.138 -11.482  -7.198  0.00  0.00    -0.393 OA
HETATM   37  H           1     -19.665 -10.938  -7.757  0.00  0.00     0.210 HD
ENDBRANCH  34  36
ENDBRANCH  30  34
ENDBRANCH  28  30
ENDBRANCH  27  28
ENDBRANCH  26  27
ENDBRANCH  22  26
ENDBRANCH   2  22
TORSDOF 15
ENDMDL
MODEL 8
REMARK VINA RESULT:      -6.0      3.035      8.593
REMARK  15 active torsions:
REMARK  status: ('A' for Active; 'I' for Inactive)
REMARK       I    between atoms: C_1  and  N_2 
REMARK    1  A    between atoms: C_1  and  C_33 
REMARK    2  A    between atoms: N_2  and  C_6 
REMARK    3  A    between atoms: C_5  and  C_6 
REMARK    4  A    between atoms: C_6  and  C_7 
REMARK    5  A    between atoms: C_7  and  C_8 
REMARK    6  A    between atoms: C_8  and  N_9 
REMARK    7  A    between atoms: N_9  and  C_13 
REMARK    8  A    between atoms: C_12  and  C_13 
REMARK    9  A    between atoms: C_13  and  C_15 
REMARK   10  A    between atoms: O_14  and  C_15 
REMARK   11  A    between atoms: N_25  and  C_33 
REMARK       I    between atoms: N_26  and  C_28 
REMARK       I    between atoms: N_27  and  C_28 
REMARK   12  A    between atoms: N_29  and  C_30 
REMARK   13  A    between atoms: C_30  and  C_31 
REMARK   14  A    between atoms: C_31  and  C_32 
REMARK   15  A    between atoms: C_32  and  C_33 
ROOT
HETATM    1  C           1     -20.553  -6.918  -6.083  0.00  0.00     0.249 C 
HETATM    2  N           1     -20.850  -7.762  -5.047  0.00  0.00    -0.345 N 
HETATM    3  H           1     -21.690  -7.619  -4.501  0.00  0.00     0.163 HD
HETATM    4  O           1     -19.551  -7.090  -6.733  0.00  0.00    -0.271 OA
ENDROOT
BRANCH   1   5
HETATM    5  C           1     -21.480  -5.774  -6.412  0.00  0.00     0.274 C 
BRANCH   5   6
HETATM    6  N           1     -22.574  -5.706  -5.389  0.00  0.00    -0.067 N 
HETATM    7  H           1     -23.391  -5.187  -5.784  0.00  0.00     0.275 HD
HETATM    8  H           1     -22.870  -6.675  -5.131  0.00  0.00     0.275 HD
HETATM    9  H           1     -22.225  -5.210  -4.538  0.00  0.00     0.275 HD
ENDBRANCH   5   6
BRANCH   5  10
HETATM   10  C           1     -20.697  -4.467  -6.404  0.00  0.00     0.044 C 
BRANCH  10  11
HETATM   11  C           1     -21.404  -3.445  -7.283  0.00  0.00     0.023 C 
BRANCH  11  12
HETATM   12  C           1     -22.089  -4.158  -8.442  0.00  0.00     0.138 C 
BRANCH  12  13
HETATM   13  N           1     -23.444  -3.615  -8.620  0.00  0.00    -0.227 N 
HETATM   14  H           1     -23.796  -2.861  -7.979  0.00  0.00     0.177 HD
HETATM   15  C           1     -24.187  -4.056  -9.545  0.00  0.00     0.665 C 
HETATM   16  N           1     -23.751  -4.989 -10.338  0.00  0.00    -0.235 N 
HETATM   17  N           1     -25.354  -3.589  -9.698  0.00  0.00    -0.235 N 
HETATM   18  H           1     -24.364  -5.354 -11.102  0.00  0.00     0.174 HD
HETATM   19  H           1     -22.788  -5.375 -10.212  0.00  0.00     0.174 HD
HETATM   20  H           1     -25.706  -2.835  -9.057  0.00  0.00     0.174 HD
HETATM   21  H           1     -25.969  -3.955 -10.466  0.00  0.00     0.174 HD
ENDBRANCH  12  13
ENDBRANCH  11  12
ENDBRANCH  10  11
ENDBRANCH   5  10
ENDBRANCH   1   5
BRANCH   2  22
HETATM   22  C           1     -19.960  -8.861  -4.729  0.00  0.00     0.187 C 
BRANCH  22  23
HETATM   23  C           1     -20.604 -10.163  -5.140  0.00  0.00     0.196 C 
HETATM   24  O           1     -21.406 -10.734  -4.369  0.00  0.00    -0.646 OA
HETATM   25  O           1     -20.335 -10.671  -6.250  0.00  0.00    -0.646 OA
ENDBRANCH  22  23
BRANCH  22  26
HETATM   26  C           1     -19.689  -8.879  -3.230  0.00  0.00     0.066 C 
BRANCH  26  27
HETATM   27  C           1     -20.695  -7.982  -2.521  0.00  0.00     0.273 C 
BRANCH  27  28
HETATM   28  N           1     -21.698  -8.794  -1.886  0.00  0.00     0.101 N 
HETATM   29  H           1     -21.919  -9.590  -2.485  0.00  0.00     0.317 HD
BRANCH  28  30
HETATM   30  C           1     -21.153  -9.268  -0.642  0.00  0.00     0.348 C 
BRANCH  30  31
HETATM   31  C           1     -21.744 -10.618  -0.316  0.00  0.00     0.210 C 
HETATM   32  O           1     -22.635 -11.103  -1.045  0.00  0.00    -0.646 OA
HETATM   33  O           1     -21.340 -11.252   0.683  0.00  0.00    -0.646 OA
ENDBRANCH  30  31
BRANCH  30  34
HETATM   34  C           1     -21.494  -8.283   0.468  0.00  0.00     0.158 C 
HETATM   35  C           1     -23.006  -8.129   0.562  0.00  0.00     0.042 C 
BRANCH  34  36
HETATM   36  O           1     -20.996  -8.764   1.687  0.00  0.00    -0.393 OA
HETATM   37  H           1     -20.897  -8.019   2.255  0.00  0.00     0.210 HD
ENDBRANCH  34  36
ENDBRANCH  30  34
ENDBRANCH  28  30
ENDBRANCH  27  28
ENDBRANCH  26  27
ENDBRANCH  22  26
ENDBRANCH   2  22
TORSDOF 15
ENDMDL
MODEL 9
REMARK VINA RESULT:      -5.8      3.135      8.394
REMARK  15 active torsions:
REMARK  status: ('A' for Active; 'I' for Inactive)
REMARK       I    between atoms: C_1  and  N_2 
REMARK    1  A    between atoms: C_1  and  C_33 
REMARK    2  A    between atoms: N_2  and  C_6 
REMARK    3  A    between atoms: C_5  and  C_6 
REMARK    4  A    between atoms: C_6  and  C_7 
REMARK    5  A    between atoms: C_7  and  C_8 
REMARK    6  A    between atoms: C_8  and  N_9 
REMARK    7  A    between atoms: N_9  and  C_13 
REMARK    8  A    between atoms: C_12  and  C_13 
REMARK    9  A    between atoms: C_13  and  C_15 
REMARK   10  A    between atoms: O_14  and  C_15 
REMARK   11  A    between atoms: N_25  and  C_33 
REMARK       I    between atoms: N_26  and  C_28 
REMARK       I    between atoms: N_27  and  C_28 
REMARK   12  A    between atoms: N_29  and  C_30 
REMARK   13  A    between atoms: C_30  and  C_31 
REMARK   14  A    between atoms: C_31  and  C_32 
REMARK   15  A    between atoms: C_32  and  C_33 
ROOT
HETATM    1  C           1     -21.081  -6.911  -4.950  0.00  0.00     0.249 C 
HETATM    2  N           1     -20.833  -6.732  -3.616  0.00  0.00    -0.345 N 
HETATM    3  H           1     -20.444  -5.858  -3.286  0.00  0.00     0.163 HD
HETATM    4  O           1     -21.545  -7.954  -5.344  0.00  0.00    -0.271 OA
ENDROOT
BRANCH   1   5
HETATM    5  C           1     -20.774  -5.805  -5.930  0.00  0.00     0.274 C 
BRANCH   5   6
HETATM    6  N           1     -19.955  -6.351  -7.060  0.00  0.00    -0.067 N 
HETATM    7  H           1     -20.495  -6.276  -7.952  0.00  0.00     0.275 HD
HETATM    8  H           1     -19.069  -5.803  -7.144  0.00  0.00     0.275 HD
HETATM    9  H           1     -19.729  -7.354  -6.874  0.00  0.00     0.275 HD
ENDBRANCH   5   6
BRANCH   5  10
HETATM   10  C           1     -22.077  -5.235  -6.477  0.00  0.00     0.044 C 
BRANCH  10  11
HETATM   11  C           1     -21.786  -3.961  -7.258  0.00  0.00     0.023 C 
BRANCH  11  12
HETATM   12  C           1     -22.363  -4.082  -8.662  0.00  0.00     0.138 C 
BRANCH  12  13
HETATM   13  N           1     -23.784  -3.704  -8.642  0.00  0.00    -0.227 N 
HETATM   14  H           1     -24.208  -3.300  -7.771  0.00  0.00     0.177 HD
HETATM   15  C           1     -24.498  -3.867  -9.676  0.00  0.00     0.665 C 
HETATM   16  N           1     -23.973  -4.369 -10.754  0.00  0.00    -0.235 N 
HETATM   17  N           1     -25.721  -3.543  -9.658  0.00  0.00    -0.235 N 
HETATM   18  H           1     -24.561  -4.503 -11.608  0.00  0.00     0.174 HD
HETATM   19  H           1     -22.963  -4.637 -10.769  0.00  0.00     0.174 HD
HETATM   20  H           1     -26.145  -3.139  -8.787  0.00  0.00     0.174 HD
HETATM   21  H           1     -26.312  -3.678 -10.516  0.00  0.00     0.174 HD
ENDBRANCH  12  13
ENDBRANCH  11  12
ENDBRANCH  10  11
ENDBRANCH   5  10
ENDBRANCH   1   5
BRANCH   2  22
HETATM   22  C           1     -21.127  -7.795  -2.675  0.00  0.00     0.187 C 
BRANCH  22  23
HETATM   23  C           1     -21.866  -7.224  -1.489  0.00  0.00     0.196 C 
HETATM   24  O           1     -22.606  -6.227  -1.635  0.00  0.00    -0.646 OA
HETATM   25  O           1     -21.738  -7.748  -0.361  0.00  0.00    -0.646 OA
ENDBRANCH  22  23
BRANCH  22  26
HETATM   26  C           1     -19.825  -8.431  -2.205  0.00  0.00     0.066 C 
BRANCH  26  27
HETATM   27  C           1     -19.547  -9.684  -3.024  0.00  0.00     0.273 C 
BRANCH  27  28
HETATM   28  N           1     -18.378  -9.476  -3.837  0.00  0.00     0.101 N 
HETATM   29  H           1     -17.906  -8.622  -3.541  0.00  0.00     0.317 HD
BRANCH  28  30
HETATM   30  C           1     -17.502 -10.599  -3.638  0.00  0.00     0.348 C 
BRANCH  30  31
HETATM   31  C           1     -16.425 -10.229  -2.649  0.00  0.00     0.210 C 
HETATM   32  O           1     -15.878  -9.107  -2.712  0.00  0.00    -0.646 OA
HETATM   33  O           1     -16.080 -11.044  -1.766  0.00  0.00    -0.646 OA
ENDBRANCH  30  31
BRANCH  30  34
HETATM   34  C           1     -16.862 -10.984  -4.965  0.00  0.00     0.158 C 
HETATM   35  C           1     -17.129  -9.892  -5.993  0.00  0.00     0.042 C 
BRANCH  34  36
HETATM   36  O           1     -15.479 -11.134  -4.790  0.00  0.00    -0.393 OA
HETATM   37  H           1     -15.344 -11.405  -3.899  0.00  0.00     0.210 HD
ENDBRANCH  34  36
ENDBRANCH  30  34
ENDBRANCH  28  30
ENDBRANCH  27  28
ENDBRANCH  26  27
ENDBRANCH  22  26
ENDBRANCH   2  22
TORSDOF 15
ENDMDL
