MODEL 1
REMARK VINA RESULT:      -5.5      0.000      0.000
REMARK  8 active torsions:
REMARK  status: ('A' for Active; 'I' for Inactive)
REMARK    1  A    between atoms: C_1  and  C_9 
REMARK       I    between atoms: C_3  and  N_4 
REMARK    2  A    between atoms: C_3  and  C_15 
REMARK    3  A    between atoms: N_4  and  C_9 
REMARK    4  A    between atoms: O_8  and  C_10 
REMARK    5  A    between atoms: C_9  and  C_10 
REMARK    6  A    between atoms: S_13  and  C_14 
REMARK    7  A    between atoms: C_14  and  C_15 
REMARK    8  A    between atoms: C_15  and  N_16 
ROOT
HETATM    1  H           1     -34.004  -0.715 -14.195  0.00  0.00     0.163 HD
HETATM    2  C           1     -35.472  -1.285 -12.851  0.00  0.00     0.249 C 
HETATM    3  N           1     -34.998  -0.724 -14.006  0.00  0.00    -0.343 N 
HETATM    4  O           1     -36.659  -1.295 -12.626  0.00  0.00    -0.271 OA
ENDROOT
BRANCH   2   5
HETATM    5  C           1     -34.511  -1.892 -11.858  0.00  0.00     0.283 C 
BRANCH   5   6
HETATM    6  C           1     -34.610  -3.410 -11.917  0.00  0.00     0.113 C 
BRANCH   6   7
HETATM    7  S           1     -32.946  -4.131 -11.830  0.00  0.00    -0.180 SA
HETATM    8  H           1     -33.239  -5.045 -10.888  0.00  0.00     0.101 HD
ENDBRANCH   6   7
ENDBRANCH   5   6
BRANCH   5   9
HETATM    9  N           1     -34.859  -1.423 -10.476  0.00  0.00    -0.066 N 
HETATM   10  H           1     -35.692  -0.793 -10.523  0.00  0.00     0.275 HD
HETATM   11  H           1     -34.050  -0.901 -10.070  0.00  0.00     0.275 HD
HETATM   12  H           1     -35.080  -2.247  -9.873  0.00  0.00     0.275 HD
ENDBRANCH   5   9
ENDBRANCH   2   5
BRANCH   3  13
HETATM   13  C           1     -35.922  -0.141 -14.960  0.00  0.00     0.209 C 
BRANCH  13  14
HETATM   14  C           1     -35.936  -0.973 -16.219  0.00  0.00     0.198 C 
HETATM   15  O           1     -35.120  -1.910 -16.358  0.00  0.00    -0.646 OA
HETATM   16  O           1     -36.764  -0.726 -17.122  0.00  0.00    -0.646 OA
ENDBRANCH  13  14
BRANCH  13  17
HETATM   17  C           1     -35.479   1.278 -15.293  0.00  0.00     0.200 C 
BRANCH  17  18
HETATM   18  O           1     -36.469   1.910 -16.058  0.00  0.00    -0.398 OA
HETATM   19  H           1     -36.024   2.456 -16.684  0.00  0.00     0.209 HD
ENDBRANCH  17  18
ENDBRANCH  13  17
ENDBRANCH   3  13
TORSDOF 8
ENDMDL
MODEL 2
REMARK VINA RESULT:      -5.4     13.657     14.737
REMARK  8 active torsions:
REMARK  status: ('A' for Active; 'I' for Inactive)
REMARK    1  A    between atoms: C_1  and  C_9 
REMARK       I    between atoms: C_3  and  N_4 
REMARK    2  A    between atoms: C_3  and  C_15 
REMARK    3  A    between atoms: N_4  and  C_9 
REMARK    4  A    between atoms: O_8  and  C_10 
REMARK    5  A    between atoms: C_9  and  C_10 
REMARK    6  A    between atoms: S_13  and  C_14 
REMARK    7  A    between atoms: C_14  and  C_15 
REMARK    8  A    between atoms: C_15  and  N_16 
ROOT
HETATM    1  H           1     -22.142  -5.785  -9.426  0.00  0.00     0.163 HD
HETATM    2  C           1     -21.647  -4.567  -7.828  0.00  0.00     0.249 C 
HETATM    3  N           1     -22.107  -4.831  -9.090  0.00  0.00    -0.343 N 
HETATM    4  O           1     -21.604  -3.428  -7.427  0.00  0.00    -0.271 OA
ENDROOT
BRANCH   2   5
HETATM    5  C           1     -21.193  -5.697  -6.937  0.00  0.00     0.283 C 
BRANCH   5   6
HETATM    6  C           1     -20.947  -5.169  -5.530  0.00  0.00     0.113 C 
BRANCH   6   7
HETATM    7  S           1     -21.502  -6.398  -4.315  0.00  0.00    -0.180 SA
HETATM    8  H           1     -20.344  -6.451  -3.632  0.00  0.00     0.101 HD
ENDBRANCH   6   7
ENDBRANCH   5   6
BRANCH   5   9
HETATM    9  N           1     -19.922  -6.280  -7.480  0.00  0.00    -0.066 N 
HETATM   10  H           1     -19.813  -6.003  -8.482  0.00  0.00     0.275 HD
HETATM   11  H           1     -19.957  -7.322  -7.409  0.00  0.00     0.275 HD
HETATM   12  H           1     -19.110  -5.921  -6.929  0.00  0.00     0.275 HD
ENDBRANCH   5   9
ENDBRANCH   2   5
BRANCH   3  13
HETATM   13  C           1     -22.543  -3.745  -9.945  0.00  0.00     0.209 C 
BRANCH  13  14
HETATM   14  C           1     -24.020  -3.885 -10.221  0.00  0.00     0.198 C 
HETATM   15  O           1     -24.614  -4.945  -9.926  0.00  0.00    -0.646 OA
HETATM   16  O           1     -24.650  -2.940 -10.744  0.00  0.00    -0.646 OA
ENDBRANCH  13  14
BRANCH  13  17
HETATM   17  C           1     -21.774  -3.793 -11.259  0.00  0.00     0.200 C 
BRANCH  17  18
HETATM   18  O           1     -22.541  -4.457 -12.227  0.00  0.00    -0.398 OA
HETATM   19  H           1     -23.106  -5.052 -11.766  0.00  0.00     0.209 HD
ENDBRANCH  17  18
ENDBRANCH  13  17
ENDBRANCH   3  13
TORSDOF 8
ENDMDL
MODEL 3
REMARK VINA RESULT:      -5.0     10.526     11.745
REMARK  8 active torsions:
REMARK  status: ('A' for Active; 'I' for Inactive)
REMARK    1  A    between atoms: C_1  and  C_9 
REMARK       I    between atoms: C_3  and  N_4 
REMARK    2  A    between atoms: C_3  and  C_15 
REMARK    3  A    between atoms: N_4  and  C_9 
REMARK    4  A    between atoms: O_8  and  C_10 
REMARK    5  A    between atoms: C_9  and  C_10 
REMARK    6  A    between atoms: S_13  and  C_14 
REMARK    7  A    between atoms: C_14  and  C_15 
REMARK    8  A    between atoms: C_15  and  N_16 
ROOT
HETATM    1  H           1     -26.822  -7.445 -18.355  0.00  0.00     0.163 HD
HETATM    2  C           1     -27.462  -5.727 -17.394  0.00  0.00     0.249 C 
HETATM    3  N           1     -26.535  -6.648 -17.801  0.00  0.00    -0.343 N 
HETATM    4  O           1     -27.119  -4.776 -16.732  0.00  0.00    -0.271 OA
ENDROOT
BRANCH   2   5
HETATM    5  C           1     -28.913  -5.899 -17.772  0.00  0.00     0.283 C 
BRANCH   5   6
HETATM    6  C           1     -29.792  -5.195 -16.747  0.00  0.00     0.113 C 
BRANCH   6   7
HETATM    7  S           1     -30.618  -3.779 -17.527  0.00  0.00    -0.180 SA
HETATM    8  H           1     -31.866  -4.273 -17.428  0.00  0.00     0.101 HD
ENDBRANCH   6   7
ENDBRANCH   5   6
BRANCH   5   9
HETATM    9  N           1     -29.251  -7.360 -17.800  0.00  0.00    -0.066 N 
HETATM   10  H           1     -29.002  -7.793 -16.882  0.00  0.00     0.275 HD
HETATM   11  H           1     -28.713  -7.829 -18.563  0.00  0.00     0.275 HD
HETATM   12  H           1     -30.275  -7.477 -17.973  0.00  0.00     0.275 HD
ENDBRANCH   5   9
ENDBRANCH   2   5
BRANCH   3  13
HETATM   13  C           1     -25.141  -6.482 -17.438  0.00  0.00     0.209 C 
BRANCH  13  14
HETATM   14  C           1     -24.266  -6.969 -18.567  0.00  0.00     0.198 C 
HETATM   15  O           1     -23.027  -6.817 -18.508  0.00  0.00    -0.646 OA
HETATM   16  O           1     -24.781  -7.527 -19.560  0.00  0.00    -0.646 OA
ENDBRANCH  13  14
BRANCH  13  17
HETATM   17  C           1     -24.845  -7.290 -16.180  0.00  0.00     0.200 C 
BRANCH  17  18
HETATM   18  O           1     -24.182  -8.475 -16.530  0.00  0.00    -0.398 OA
HETATM   19  H           1     -23.407  -8.225 -17.003  0.00  0.00     0.209 HD
ENDBRANCH  17  18
ENDBRANCH  13  17
ENDBRANCH   3  13
TORSDOF 8
ENDMDL
MODEL 4
REMARK VINA RESULT:      -5.0     10.847     11.975
REMARK  8 active torsions:
REMARK  status: ('A' for Active; 'I' for Inactive)
REMARK    1  A    between atoms: C_1  and  C_9 
REMARK       I    between atoms: C_3  and  N_4 
REMARK    2  A    between atoms: C_3  and  C_15 
REMARK    3  A    between atoms: N_4  and  C_9 
REMARK    4  A    between atoms: O_8  and  C_10 
REMARK    5  A    between atoms: C_9  and  C_10 
REMARK    6  A    between atoms: S_13  and  C_14 
REMARK    7  A    between atoms: C_14  and  C_15 
REMARK    8  A    between atoms: C_15  and  N_16 
ROOT
HETATM    1  H           1     -25.670  -6.430 -17.242  0.00  0.00     0.163 HD
HETATM    2  C           1     -26.357  -6.668 -19.180  0.00  0.00     0.249 C 
HETATM    3  N           1     -26.490  -6.448 -17.835  0.00  0.00    -0.343 N 
HETATM    4  O           1     -27.335  -6.690 -19.888  0.00  0.00    -0.271 OA
ENDROOT
BRANCH   2   5
HETATM    5  C           1     -24.988  -6.881 -19.778  0.00  0.00     0.283 C 
BRANCH   5   6
HETATM    6  C           1     -25.101  -7.791 -20.994  0.00  0.00     0.113 C 
BRANCH   6   7
HETATM    7  S           1     -23.440  -8.253 -21.563  0.00  0.00    -0.180 SA
HETATM    8  H           1     -23.835  -9.297 -22.314  0.00  0.00     0.101 HD
ENDBRANCH   6   7
ENDBRANCH   5   6
BRANCH   5   9
HETATM    9  N           1     -24.092  -7.520 -18.759  0.00  0.00    -0.066 N 
HETATM   10  H           1     -23.417  -8.157 -19.239  0.00  0.00     0.275 HD
HETATM   11  H           1     -24.669  -8.069 -18.082  0.00  0.00     0.275 HD
HETATM   12  H           1     -23.565  -6.778 -18.245  0.00  0.00     0.275 HD
ENDBRANCH   5   9
ENDBRANCH   2   5
BRANCH   3  13
HETATM   13  C           1     -27.806  -6.243 -17.261  0.00  0.00     0.209 C 
BRANCH  13  14
HETATM   14  C           1     -28.134  -4.770 -17.271  0.00  0.00     0.198 C 
HETATM   15  O           1     -27.595  -4.005 -16.442  0.00  0.00    -0.646 OA
HETATM   16  O           1     -28.943  -4.316 -18.109  0.00  0.00    -0.646 OA
ENDBRANCH  13  14
BRANCH  13  17
HETATM   17  C           1     -27.819  -6.757 -15.827  0.00  0.00     0.200 C 
BRANCH  17  18
HETATM   18  O           1     -26.658  -7.505 -15.587  0.00  0.00    -0.398 OA
HETATM   19  H           1     -26.014  -6.908 -15.248  0.00  0.00     0.209 HD
ENDBRANCH  17  18
ENDBRANCH  13  17
ENDBRANCH   3  13
TORSDOF 8
ENDMDL
MODEL 5
REMARK VINA RESULT:      -4.8     10.352     11.246
REMARK  8 active torsions:
REMARK  status: ('A' for Active; 'I' for Inactive)
REMARK    1  A    between atoms: C_1  and  C_9 
REMARK       I    between atoms: C_3  and  N_4 
REMARK    2  A    between atoms: C_3  and  C_15 
REMARK    3  A    between atoms: N_4  and  C_9 
REMARK    4  A    between atoms: O_8  and  C_10 
REMARK    5  A    between atoms: C_9  and  C_10 
REMARK    6  A    between atoms: S_13  and  C_14 
REMARK    7  A    between atoms: C_14  and  C_15 
REMARK    8  A    between atoms: C_15  and  N_16 
ROOT
HETATM    1  H           1     -27.883  -6.814 -19.888  0.00  0.00     0.163 HD
HETATM    2  C           1     -26.402  -6.400 -18.503  0.00  0.00     0.249 C 
HETATM    3  N           1     -27.695  -6.521 -18.938  0.00  0.00    -0.343 N 
HETATM    4  O           1     -26.176  -6.050 -17.369  0.00  0.00    -0.271 OA
ENDROOT
BRANCH   2   5
HETATM    5  C           1     -25.258  -6.703 -19.440  0.00  0.00     0.283 C 
BRANCH   5   6
HETATM    6  C           1     -25.786  -7.441 -20.663  0.00  0.00     0.113 C 
BRANCH   6   7
HETATM    7  S           1     -24.396  -7.919 -21.729  0.00  0.00    -0.180 SA
HETATM    8  H           1     -24.581  -9.246 -21.613  0.00  0.00     0.101 HD
ENDBRANCH   6   7
ENDBRANCH   5   6
BRANCH   5   9
HETATM    9  N           1     -24.250  -7.561 -18.735  0.00  0.00    -0.066 N 
HETATM   10  H           1     -24.616  -8.538 -18.659  0.00  0.00     0.275 HD
HETATM   11  H           1     -24.076  -7.180 -17.778  0.00  0.00     0.275 HD
HETATM   12  H           1     -23.357  -7.566 -19.276  0.00  0.00     0.275 HD
ENDBRANCH   5   9
ENDBRANCH   2   5
BRANCH   3  13
HETATM   13  C           1     -28.793  -6.229 -18.037  0.00  0.00     0.209 C 
BRANCH  13  14
HETATM   14  C           1     -29.852  -7.295 -18.175  0.00  0.00     0.198 C 
HETATM   15  O           1     -29.650  -8.287 -18.908  0.00  0.00    -0.646 OA
HETATM   16  O           1     -30.932  -7.186 -17.555  0.00  0.00    -0.646 OA
ENDBRANCH  13  14
BRANCH  13  17
HETATM   17  C           1     -29.388  -4.872 -18.387  0.00  0.00     0.200 C 
BRANCH  17  18
HETATM   18  O           1     -30.186  -4.422 -17.324  0.00  0.00    -0.398 OA
HETATM   19  H           1     -29.619  -4.329 -16.578  0.00  0.00     0.209 HD
ENDBRANCH  17  18
ENDBRANCH  13  17
ENDBRANCH   3  13
TORSDOF 8
ENDMDL
MODEL 6
REMARK VINA RESULT:      -4.7     25.448     26.176
REMARK  8 active torsions:
REMARK  status: ('A' for Active; 'I' for Inactive)
REMARK    1  A    between atoms: C_1  and  C_9 
REMARK       I    between atoms: C_3  and  N_4 
REMARK    2  A    between atoms: C_3  and  C_15 
REMARK    3  A    between atoms: N_4  and  C_9 
REMARK    4  A    between atoms: O_8  and  C_10 
REMARK    5  A    between atoms: C_9  and  C_10 
REMARK    6  A    between atoms: S_13  and  C_14 
REMARK    7  A    between atoms: C_14  and  C_15 
REMARK    8  A    between atoms: C_15  and  N_16 
ROOT
HETATM    1  H           1     -10.868   5.990 -19.459  0.00  0.00     0.163 HD
HETATM    2  C           1     -12.627   6.188 -20.532  0.00  0.00     0.249 C 
HETATM    3  N           1     -11.411   6.601 -20.055  0.00  0.00    -0.343 N 
HETATM    4  O           1     -13.276   6.918 -21.243  0.00  0.00    -0.271 OA
ENDROOT
BRANCH   2   5
HETATM    5  C           1     -13.157   4.823 -20.169  0.00  0.00     0.283 C 
BRANCH   5   6
HETATM    6  C           1     -12.741   3.817 -21.234  0.00  0.00     0.113 C 
BRANCH   6   7
HETATM    7  S           1     -11.282   2.899 -20.665  0.00  0.00    -0.180 SA
HETATM    8  H           1     -11.941   1.769 -20.352  0.00  0.00     0.101 HD
ENDBRANCH   6   7
ENDBRANCH   5   6
BRANCH   5   9
HETATM    9  N           1     -14.653   4.874 -20.088  0.00  0.00    -0.066 N 
HETATM   10  H           1     -14.991   5.789 -20.465  0.00  0.00     0.275 HD
HETATM   11  H           1     -14.952   4.777 -19.091  0.00  0.00     0.275 HD
HETATM   12  H           1     -15.060   4.094 -20.651  0.00  0.00     0.275 HD
ENDBRANCH   5   9
ENDBRANCH   2   5
BRANCH   3  13
HETATM   13  C           1     -10.903   7.913 -20.404  0.00  0.00     0.209 C 
BRANCH  13  14
HETATM   14  C           1      -9.430   7.815 -20.713  0.00  0.00     0.198 C 
HETATM   15  O           1      -8.819   8.806 -21.170  0.00  0.00    -0.646 OA
HETATM   16  O           1      -8.819   6.743 -20.512  0.00  0.00    -0.646 OA
ENDBRANCH  13  14
BRANCH  13  17
HETATM   17  C           1     -11.115   8.866 -19.235  0.00  0.00     0.200 C 
BRANCH  17  18
HETATM   18  O           1     -10.099   8.678 -18.287  0.00  0.00    -0.398 OA
HETATM   19  H           1      -9.340   8.378 -18.756  0.00  0.00     0.209 HD
ENDBRANCH  17  18
ENDBRANCH  13  17
ENDBRANCH   3  13
TORSDOF 8
ENDMDL
MODEL 7
REMARK VINA RESULT:      -4.6      9.234     10.464
REMARK  8 active torsions:
REMARK  status: ('A' for Active; 'I' for Inactive)
REMARK    1  A    between atoms: C_1  and  C_9 
REMARK       I    between atoms: C_3  and  N_4 
REMARK    2  A    between atoms: C_3  and  C_15 
REMARK    3  A    between atoms: N_4  and  C_9 
REMARK    4  A    between atoms: O_8  and  C_10 
REMARK    5  A    between atoms: C_9  and  C_10 
REMARK    6  A    between atoms: S_13  and  C_14 
REMARK    7  A    between atoms: C_14  and  C_15 
REMARK    8  A    between atoms: C_15  and  N_16 
ROOT
HETATM    1  H           1     -28.197  -7.488 -16.633  0.00  0.00     0.163 HD
HETATM    2  C           1     -28.772  -6.392 -18.292  0.00  0.00     0.249 C 
HETATM    3  N           1     -27.978  -6.692 -17.218  0.00  0.00    -0.343 N 
HETATM    4  O           1     -28.510  -5.441 -18.990  0.00  0.00    -0.271 OA
ENDROOT
BRANCH   2   5
HETATM    5  C           1     -29.975  -7.248 -18.603  0.00  0.00     0.283 C 
BRANCH   5   6
HETATM    6  C           1     -30.978  -7.150 -17.462  0.00  0.00     0.113 C 
BRANCH   6   7
HETATM    7  S           1     -31.237  -5.406 -17.029  0.00  0.00    -0.180 SA
HETATM    8  H           1     -31.983  -5.642 -15.935  0.00  0.00     0.101 HD
ENDBRANCH   6   7
ENDBRANCH   5   6
BRANCH   5   9
HETATM    9  N           1     -29.543  -8.674 -18.768  0.00  0.00    -0.066 N 
HETATM   10  H           1     -30.327  -9.230 -19.180  0.00  0.00     0.275 HD
HETATM   11  H           1     -29.287  -9.071 -17.836  0.00  0.00     0.275 HD
HETATM   12  H           1     -28.715  -8.716 -19.404  0.00  0.00     0.275 HD
ENDBRANCH   5   9
ENDBRANCH   2   5
BRANCH   3  13
HETATM   13  C           1     -26.822  -5.869 -16.919  0.00  0.00     0.209 C 
BRANCH  13  14
HETATM   14  C           1     -25.723  -6.733 -16.351  0.00  0.00     0.198 C 
HETATM   15  O           1     -25.940  -7.435 -15.340  0.00  0.00    -0.646 OA
HETATM   16  O           1     -24.597  -6.748 -16.893  0.00  0.00    -0.646 OA
ENDBRANCH  13  14
BRANCH  13  17
HETATM   17  C           1     -27.208  -4.803 -15.901  0.00  0.00     0.200 C 
BRANCH  17  18
HETATM   18  O           1     -27.825  -3.729 -16.558  0.00  0.00    -0.398 OA
HETATM   19  H           1     -27.922  -3.981 -17.460  0.00  0.00     0.209 HD
ENDBRANCH  17  18
ENDBRANCH  13  17
ENDBRANCH   3  13
TORSDOF 8
ENDMDL
MODEL 8
REMARK VINA RESULT:      -4.5      9.970     10.948
REMARK  8 active torsions:
REMARK  status: ('A' for Active; 'I' for Inactive)
REMARK    1  A    between atoms: C_1  and  C_9 
REMARK       I    between atoms: C_3  and  N_4 
REMARK    2  A    between atoms: C_3  and  C_15 
REMARK    3  A    between atoms: N_4  and  C_9 
REMARK    4  A    between atoms: O_8  and  C_10 
REMARK    5  A    between atoms: C_9  and  C_10 
REMARK    6  A    between atoms: S_13  and  C_14 
REMARK    7  A    between atoms: C_14  and  C_15 
REMARK    8  A    between atoms: C_15  and  N_16 
ROOT
HETATM    1  H           1     -27.000  -6.061 -17.829  0.00  0.00     0.163 HD
HETATM    2  C           1     -26.040  -6.983 -16.244  0.00  0.00     0.249 C 
HETATM    3  N           1     -27.124  -6.494 -16.923  0.00  0.00    -0.343 N 
HETATM    4  O           1     -26.188  -7.499 -15.161  0.00  0.00    -0.271 OA
ENDROOT
BRANCH   2   5
HETATM    5  C           1     -24.661  -6.878 -16.847  0.00  0.00     0.283 C 
BRANCH   5   6
HETATM    6  C           1     -24.776  -6.758 -18.361  0.00  0.00     0.113 C 
BRANCH   6   7
HETATM    7  S           1     -23.192  -7.203 -19.127  0.00  0.00    -0.180 SA
HETATM    8  H           1     -22.617  -7.665 -18.001  0.00  0.00     0.101 HD
ENDBRANCH   6   7
ENDBRANCH   5   6
BRANCH   5   9
HETATM    9  N           1     -23.871  -8.105 -16.502  0.00  0.00    -0.066 N 
HETATM   10  H           1     -23.859  -8.754 -17.321  0.00  0.00     0.275 HD
HETATM   11  H           1     -24.310  -8.585 -15.684  0.00  0.00     0.275 HD
HETATM   12  H           1     -22.891  -7.832 -16.260  0.00  0.00     0.275 HD
ENDBRANCH   5   9
ENDBRANCH   2   5
BRANCH   3  13
HETATM   13  C           1     -28.449  -6.595 -16.342  0.00  0.00     0.209 C 
BRANCH  13  14
HETATM   14  C           1     -29.427  -7.048 -17.398  0.00  0.00     0.198 C 
HETATM   15  O           1     -29.903  -6.220 -18.206  0.00  0.00    -0.646 OA
HETATM   16  O           1     -29.760  -8.251 -17.467  0.00  0.00    -0.646 OA
ENDBRANCH  13  14
BRANCH  13  17
HETATM   17  C           1     -28.873  -5.234 -15.806  0.00  0.00     0.200 C 
BRANCH  17  18
HETATM   18  O           1     -30.255  -5.234 -15.568  0.00  0.00    -0.398 OA
HETATM   19  H           1     -30.385  -5.613 -14.716  0.00  0.00     0.209 HD
ENDBRANCH  17  18
ENDBRANCH  13  17
ENDBRANCH   3  13
TORSDOF 8
ENDMDL
MODEL 9
REMARK VINA RESULT:      -4.4     16.039     17.374
REMARK  8 active torsions:
REMARK  status: ('A' for Active; 'I' for Inactive)
REMARK    1  A    between atoms: C_1  and  C_9 
REMARK       I    between atoms: C_3  and  N_4 
REMARK    2  A    between atoms: C_3  and  C_15 
REMARK    3  A    between atoms: N_4  and  C_9 
REMARK    4  A    between atoms: O_8  and  C_10 
REMARK    5  A    between atoms: C_9  and  C_10 
REMARK    6  A    between atoms: S_13  and  C_14 
REMARK    7  A    between atoms: C_14  and  C_15 
REMARK    8  A    between atoms: C_15  and  N_16 
ROOT
HETATM    1  H           1     -20.606  -4.674  -4.876  0.00  0.00     0.163 HD
HETATM    2  C           1     -21.533  -6.474  -4.446  0.00  0.00     0.249 C 
HETATM    3  N           1     -21.109  -5.461  -5.265  0.00  0.00    -0.343 N 
HETATM    4  O           1     -22.134  -7.414  -4.910  0.00  0.00    -0.271 OA
ENDROOT
BRANCH   2   5
HETATM    5  C           1     -21.250  -6.417  -2.965  0.00  0.00     0.283 C 
BRANCH   5   6
HETATM    6  C           1     -20.954  -7.818  -2.450  0.00  0.00     0.113 C 
BRANCH   6   7
HETATM    7  S           1     -21.773  -8.061  -0.847  0.00  0.00    -0.180 SA
HETATM    8  H           1     -21.812  -6.758  -0.512  0.00  0.00     0.101 HD
ENDBRANCH   6   7
ENDBRANCH   5   6
BRANCH   5   9
HETATM    9  N           1     -22.447  -5.864  -2.250  0.00  0.00    -0.066 N 
HETATM   10  H           1     -22.908  -6.626  -1.703  0.00  0.00     0.275 HD
HETATM   11  H           1     -23.124  -5.478  -2.948  0.00  0.00     0.275 HD
HETATM   12  H           1     -22.145  -5.103  -1.601  0.00  0.00     0.275 HD
ENDBRANCH   5   9
ENDBRANCH   2   5
BRANCH   3  13
HETATM   13  C           1     -21.381  -5.518  -6.688  0.00  0.00     0.209 C 
BRANCH  13  14
HETATM   14  C           1     -20.146  -5.108  -7.452  0.00  0.00     0.198 C 
HETATM   15  O           1     -20.102  -5.252  -8.693  0.00  0.00    -0.646 OA
HETATM   16  O           1     -19.167  -4.624  -6.843  0.00  0.00    -0.646 OA
ENDBRANCH  13  14
BRANCH  13  17
HETATM   17  C           1     -22.524  -4.568  -7.023  0.00  0.00     0.200 C 
BRANCH  17  18
HETATM   18  O           1     -22.002  -3.337  -7.444  0.00  0.00    -0.398 OA
HETATM   19  H           1     -22.736  -2.767  -7.597  0.00  0.00     0.209 HD
ENDBRANCH  17  18
ENDBRANCH  13  17
ENDBRANCH   3  13
TORSDOF 8
ENDMDL
