MODEL 1
REMARK VINA RESULT:      -7.5      0.000      0.000
REMARK  10 active torsions:
REMARK  status: ('A' for Active; 'I' for Inactive)
REMARK    1  A    between atoms: N_4  and  C_27 
REMARK    2  A    between atoms: C_5  and  C_27 
REMARK    3  A    between atoms: C_5  and  C_13 
REMARK    4  A    between atoms: N_6  and  C_22 
REMARK    5  A    between atoms: C_12  and  C_14 
REMARK    6  A    between atoms: C_12  and  C_29 
REMARK    7  A    between atoms: C_12  and  N_23 
REMARK    8  A    between atoms: C_13  and  C_22 
REMARK       I    between atoms: C_16  and  N_23 
REMARK    9  A    between atoms: C_16  and  C_27 
REMARK   10  A    between atoms: C_24  and  C_29 
ROOT
HETATM    1  H           1     -23.472  -6.089  -4.212  0.00  0.00     0.163 HD
HETATM    2  C           1     -21.755  -6.314  -3.079  0.00  0.00     0.249 C 
HETATM    3  O           1     -21.161  -5.306  -2.778  0.00  0.00    -0.271 OA
HETATM    4  N           1     -22.496  -6.355  -4.229  0.00  0.00    -0.344 N 
ENDROOT
BRANCH   4   5
HETATM    5  C           1     -21.882  -6.780  -5.473  0.00  0.00     0.190 C 
BRANCH   5   6
HETATM    6  C           1     -20.949  -7.935  -5.204  0.00  0.00     0.197 C 
HETATM    7  O           1     -19.714  -7.748  -5.176  0.00  0.00    -0.646 OA
HETATM    8  O           1     -21.412  -9.081  -5.008  0.00  0.00    -0.646 OA
ENDBRANCH   5   6
BRANCH   5   9
HETATM    9  C           1     -21.097  -5.622  -6.071  0.00  0.00     0.077 C 
BRANCH   9  10
HETATM   10  C           1     -21.911  -4.966  -7.143  0.00  0.00    -0.021 A 
HETATM   11  C           1     -21.471  -4.653  -8.459  0.00  0.00     0.005 A 
HETATM   12  C           1     -22.544  -4.053  -9.119  0.00  0.00     0.132 A 
HETATM   13  C           1     -20.259  -4.824  -9.152  0.00  0.00     0.014 A 
HETATM   14  N           1     -23.593  -4.008  -8.228  0.00  0.00    -0.076 N 
HETATM   15  C           1     -22.464  -3.614 -10.445  0.00  0.00     0.037 A 
HETATM   16  C           1     -23.222  -4.558  -7.030  0.00  0.00     0.195 A 
HETATM   17  H           1     -24.542  -3.610  -8.437  0.00  0.00     0.272 HD
HETATM   18  C           1     -21.250  -3.794 -11.114  0.00  0.00     0.002 A 
HETATM   19  C           1     -20.161  -4.390 -10.480  0.00  0.00     0.001 A 
ENDBRANCH   9  10
ENDBRANCH   5   9
ENDBRANCH   4   5
BRANCH   2  20
HETATM   20  C           1     -21.679  -7.529  -2.186  0.00  0.00     0.274 C 
BRANCH  20  21
HETATM   21  N           1     -20.258  -8.001  -2.105  0.00  0.00    -0.067 N 
HETATM   22  H           1     -19.710  -7.354  -1.496  0.00  0.00     0.275 HD
HETATM   23  H           1     -20.234  -8.965  -1.700  0.00  0.00     0.275 HD
HETATM   24  H           1     -19.840  -8.015  -3.063  0.00  0.00     0.275 HD
ENDBRANCH  20  21
BRANCH  20  25
HETATM   25  C           1     -22.174  -7.167  -0.792  0.00  0.00     0.044 C 
BRANCH  25  26
HETATM   26  C           1     -22.457  -8.442  -0.007  0.00  0.00     0.033 C 
BRANCH  26  27
HETATM   27  C           1     -21.444  -8.578   1.123  0.00  0.00     0.619 C 
BRANCH  27  28
HETATM   28  N           1     -20.820  -9.941   1.075  0.00  0.00    -0.077 N 
HETATM   29  H           1     -20.002  -9.972   1.725  0.00  0.00     0.274 HD
HETATM   30  H           1     -21.523 -10.656   1.366  0.00  0.00     0.274 HD
HETATM   31  H           1     -20.501 -10.143   0.101  0.00  0.00     0.274 HD
ENDBRANCH  27  28
ENDBRANCH  26  27
ENDBRANCH  25  26
ENDBRANCH  20  25
ENDBRANCH   2  20
TORSDOF 10
ENDMDL
MODEL 2
REMARK VINA RESULT:      -7.3      2.185      7.790
REMARK  10 active torsions:
REMARK  status: ('A' for Active; 'I' for Inactive)
REMARK    1  A    between atoms: N_4  and  C_27 
REMARK    2  A    between atoms: C_5  and  C_27 
REMARK    3  A    between atoms: C_5  and  C_13 
REMARK    4  A    between atoms: N_6  and  C_22 
REMARK    5  A    between atoms: C_12  and  C_14 
REMARK    6  A    between atoms: C_12  and  C_29 
REMARK    7  A    between atoms: C_12  and  N_23 
REMARK    8  A    between atoms: C_13  and  C_22 
REMARK       I    between atoms: C_16  and  N_23 
REMARK    9  A    between atoms: C_16  and  C_27 
REMARK   10  A    between atoms: C_24  and  C_29 
ROOT
HETATM    1  H           1     -21.512  -8.248  -6.418  0.00  0.00     0.163 HD
HETATM    2  C           1     -20.387  -6.513  -6.494  0.00  0.00     0.249 C 
HETATM    3  O           1     -19.468  -6.490  -7.279  0.00  0.00    -0.271 OA
HETATM    4  N           1     -20.797  -7.702  -5.955  0.00  0.00    -0.344 N 
ENDROOT
BRANCH   4   5
HETATM    5  C           1     -20.206  -8.181  -4.720  0.00  0.00     0.190 C 
BRANCH   5   6
HETATM    6  C           1     -19.058  -9.107  -5.037  0.00  0.00     0.197 C 
HETATM    7  O           1     -19.011  -9.687  -6.143  0.00  0.00    -0.646 OA
HETATM    8  O           1     -18.154  -9.294  -4.194  0.00  0.00    -0.646 OA
ENDBRANCH   5   6
BRANCH   5   9
HETATM    9  C           1     -21.257  -8.933  -3.915  0.00  0.00     0.077 C 
BRANCH   9  10
HETATM   10  C           1     -21.564  -8.174  -2.661  0.00  0.00    -0.021 A 
HETATM   11  C           1     -21.400  -8.650  -1.330  0.00  0.00     0.005 A 
HETATM   12  C           1     -21.803  -7.625  -0.474  0.00  0.00     0.132 A 
HETATM   13  C           1     -20.944  -9.859  -0.772  0.00  0.00     0.014 A 
HETATM   14  N           1     -22.197  -6.569  -1.265  0.00  0.00    -0.076 N 
HETATM   15  C           1     -21.774  -7.749   0.919  0.00  0.00     0.037 A 
HETATM   16  C           1     -22.056  -6.890  -2.590  0.00  0.00     0.195 A 
HETATM   17  H           1     -22.554  -5.649  -0.906  0.00  0.00     0.272 HD
HETATM   18  C           1     -21.318  -8.959   1.451  0.00  0.00     0.002 A 
HETATM   19  C           1     -20.908 -10.001   0.621  0.00  0.00     0.001 A 
ENDBRANCH   9  10
ENDBRANCH   5   9
ENDBRANCH   4   5
BRANCH   2  20
HETATM   20  C           1     -21.081  -5.230  -6.108  0.00  0.00     0.274 C 
BRANCH  20  21
HETATM   21  N           1     -20.186  -4.427  -5.213  0.00  0.00    -0.067 N 
HETATM   22  H           1     -19.510  -5.063  -4.733  0.00  0.00     0.275 HD
HETATM   23  H           1     -19.659  -3.727  -5.784  0.00  0.00     0.275 HD
HETATM   24  H           1     -20.763  -3.930  -4.497  0.00  0.00     0.275 HD
ENDBRANCH  20  21
BRANCH  20  25
HETATM   25  C           1     -21.398  -4.426  -7.362  0.00  0.00     0.044 C 
BRANCH  25  26
HETATM   26  C           1     -22.908  -4.368  -7.560  0.00  0.00     0.033 C 
BRANCH  26  27
HETATM   27  C           1     -23.217  -3.918  -8.982  0.00  0.00     0.619 C 
BRANCH  27  28
HETATM   28  N           1     -24.561  -3.252  -9.016  0.00  0.00    -0.077 N 
HETATM   29  H           1     -24.774  -2.949  -9.993  0.00  0.00     0.274 HD
HETATM   30  H           1     -25.291  -3.924  -8.692  0.00  0.00     0.274 HD
HETATM   31  H           1     -24.551  -2.418  -8.386  0.00  0.00     0.274 HD
ENDBRANCH  27  28
ENDBRANCH  26  27
ENDBRANCH  25  26
ENDBRANCH  20  25
ENDBRANCH   2  20
TORSDOF 10
ENDMDL
MODEL 3
REMARK VINA RESULT:      -7.1      1.415      2.093
REMARK  10 active torsions:
REMARK  status: ('A' for Active; 'I' for Inactive)
REMARK    1  A    between atoms: N_4  and  C_27 
REMARK    2  A    between atoms: C_5  and  C_27 
REMARK    3  A    between atoms: C_5  and  C_13 
REMARK    4  A    between atoms: N_6  and  C_22 
REMARK    5  A    between atoms: C_12  and  C_14 
REMARK    6  A    between atoms: C_12  and  C_29 
REMARK    7  A    between atoms: C_12  and  N_23 
REMARK    8  A    between atoms: C_13  and  C_22 
REMARK       I    between atoms: C_16  and  N_23 
REMARK    9  A    between atoms: C_16  and  C_27 
REMARK   10  A    between atoms: C_24  and  C_29 
ROOT
HETATM    1  H           1     -23.546  -6.342  -4.010  0.00  0.00     0.163 HD
HETATM    2  C           1     -21.948  -6.394  -2.694  0.00  0.00     0.249 C 
HETATM    3  O           1     -21.626  -5.348  -2.183  0.00  0.00    -0.271 OA
HETATM    4  N           1     -22.538  -6.399  -3.929  0.00  0.00    -0.344 N 
ENDROOT
BRANCH   4   5
HETATM    5  C           1     -21.720  -6.486  -5.124  0.00  0.00     0.190 C 
BRANCH   5   6
HETATM    6  C           1     -20.930  -7.771  -5.100  0.00  0.00     0.197 C 
HETATM    7  O           1     -21.499  -8.859  -5.333  0.00  0.00    -0.646 OA
HETATM    8  O           1     -19.706  -7.748  -4.847  0.00  0.00    -0.646 OA
ENDBRANCH   5   6
BRANCH   5   9
HETATM    9  C           1     -20.764  -5.302  -5.170  0.00  0.00     0.077 C 
BRANCH   9  10
HETATM   10  C           1     -20.518  -4.912  -6.594  0.00  0.00    -0.021 A 
HETATM   11  C           1     -21.509  -4.547  -7.547  0.00  0.00     0.005 A 
HETATM   12  C           1     -20.846  -4.260  -8.740  0.00  0.00     0.132 A 
HETATM   13  C           1     -22.911  -4.433  -7.507  0.00  0.00     0.014 A 
HETATM   14  N           1     -19.501  -4.446  -8.510  0.00  0.00    -0.076 N 
HETATM   15  C           1     -21.518  -3.863  -9.902  0.00  0.00     0.037 A 
HETATM   16  C           1     -19.292  -4.840  -7.215  0.00  0.00     0.195 A 
HETATM   17  H           1     -18.744  -4.307  -9.225  0.00  0.00     0.272 HD
HETATM   18  C           1     -22.911  -3.757  -9.839  0.00  0.00     0.002 A 
HETATM   19  C           1     -23.600  -4.037  -8.660  0.00  0.00     0.001 A 
ENDBRANCH   9  10
ENDBRANCH   5   9
ENDBRANCH   4   5
BRANCH   2  20
HETATM   20  C           1     -21.700  -7.695  -1.972  0.00  0.00     0.274 C 
BRANCH  20  21
HETATM   21  N           1     -20.228  -7.869  -1.748  0.00  0.00    -0.067 N 
HETATM   22  H           1     -19.853  -8.574  -2.421  0.00  0.00     0.275 HD
HETATM   23  H           1     -19.743  -6.955  -1.895  0.00  0.00     0.275 HD
HETATM   24  H           1     -20.061  -8.199  -0.770  0.00  0.00     0.275 HD
ENDBRANCH  20  21
BRANCH  20  25
HETATM   25  C           1     -22.419  -7.677  -0.629  0.00  0.00     0.044 C 
BRANCH  25  26
HETATM   26  C           1     -22.114  -8.963   0.128  0.00  0.00     0.033 C 
BRANCH  26  27
HETATM   27  C           1     -22.715 -10.147  -0.618  0.00  0.00     0.619 C 
BRANCH  27  28
HETATM   28  N           1     -24.039 -10.502  -0.011  0.00  0.00    -0.077 N 
HETATM   29  H           1     -24.067 -10.173   0.981  0.00  0.00     0.274 HD
HETATM   30  H           1     -24.805 -10.043  -0.552  0.00  0.00     0.274 HD
HETATM   31  H           1     -24.167 -11.539  -0.038  0.00  0.00     0.274 HD
ENDBRANCH  27  28
ENDBRANCH  26  27
ENDBRANCH  25  26
ENDBRANCH  20  25
ENDBRANCH   2  20
TORSDOF 10
ENDMDL
MODEL 4
REMARK VINA RESULT:      -7.0     13.986     17.215
REMARK  10 active torsions:
REMARK  status: ('A' for Active; 'I' for Inactive)
REMARK    1  A    between atoms: N_4  and  C_27 
REMARK    2  A    between atoms: C_5  and  C_27 
REMARK    3  A    between atoms: C_5  and  C_13 
REMARK    4  A    between atoms: N_6  and  C_22 
REMARK    5  A    between atoms: C_12  and  C_14 
REMARK    6  A    between atoms: C_12  and  C_29 
REMARK    7  A    between atoms: C_12  and  N_23 
REMARK    8  A    between atoms: C_13  and  C_22 
REMARK       I    between atoms: C_16  and  N_23 
REMARK    9  A    between atoms: C_16  and  C_27 
REMARK   10  A    between atoms: C_24  and  C_29 
ROOT
HETATM    1  H           1     -33.883  -1.744 -13.200  0.00  0.00     0.163 HD
HETATM    2  C           1     -35.372  -0.319 -13.395  0.00  0.00     0.249 C 
HETATM    3  O           1     -35.116   0.796 -13.006  0.00  0.00    -0.271 OA
HETATM    4  N           1     -34.758  -1.401 -12.824  0.00  0.00    -0.344 N 
ENDROOT
BRANCH   4   5
HETATM    5  C           1     -35.360  -2.056 -11.678  0.00  0.00     0.190 C 
BRANCH   5   6
HETATM    6  C           1     -36.371  -1.132 -11.045  0.00  0.00     0.197 C 
HETATM    7  O           1     -36.011  -0.321 -10.165  0.00  0.00    -0.646 OA
HETATM    8  O           1     -37.569  -1.178 -11.401  0.00  0.00    -0.646 OA
ENDBRANCH   5   6
BRANCH   5   9
HETATM    9  C           1     -34.277  -2.396 -10.663  0.00  0.00     0.077 C 
BRANCH   9  10
HETATM   10  C           1     -33.653  -3.710 -11.019  0.00  0.00    -0.021 A 
HETATM   11  C           1     -34.092  -4.992 -10.587  0.00  0.00     0.005 A 
HETATM   12  C           1     -33.230  -5.933 -11.150  0.00  0.00     0.132 A 
HETATM   13  C           1     -35.145  -5.442  -9.769  0.00  0.00     0.014 A 
HETATM   14  N           1     -32.304  -5.238 -11.895  0.00  0.00    -0.076 N 
HETATM   15  C           1     -33.368  -7.309 -10.935  0.00  0.00     0.037 A 
HETATM   16  C           1     -32.551  -3.892 -11.823  0.00  0.00     0.195 A 
HETATM   17  H           1     -31.520  -5.675 -12.441  0.00  0.00     0.272 HD
HETATM   18  C           1     -34.421  -7.733 -10.119  0.00  0.00     0.002 A 
HETATM   19  C           1     -35.298  -6.816  -9.542  0.00  0.00     0.001 A 
ENDBRANCH   9  10
ENDBRANCH   5   9
ENDBRANCH   4   5
BRANCH   2  20
HETATM   20  C           1     -36.368  -0.519 -14.511  0.00  0.00     0.274 C 
BRANCH  20  21
HETATM   21  N           1     -37.609   0.270 -14.219  0.00  0.00    -0.067 N 
HETATM   22  H           1     -37.409   0.972 -13.473  0.00  0.00     0.275 HD
HETATM   23  H           1     -37.919   0.763 -15.087  0.00  0.00     0.275 HD
HETATM   24  H           1     -38.364  -0.376 -13.896  0.00  0.00     0.275 HD
ENDBRANCH  20  21
BRANCH  20  25
HETATM   25  C           1     -35.761  -0.045 -15.825  0.00  0.00     0.044 C 
BRANCH  25  26
HETATM   26  C           1     -35.850  -1.161 -16.857  0.00  0.00     0.033 C 
BRANCH  26  27
HETATM   27  C           1     -35.045  -2.362 -16.378  0.00  0.00     0.619 C 
BRANCH  27  28
HETATM   28  N           1     -33.929  -2.635 -17.342  0.00  0.00    -0.077 N 
HETATM   29  H           1     -33.169  -3.161 -16.855  0.00  0.00     0.274 HD
HETATM   30  H           1     -34.289  -3.203 -18.141  0.00  0.00     0.274 HD
HETATM   31  H           1     -33.552  -1.729 -17.702  0.00  0.00     0.274 HD
ENDBRANCH  27  28
ENDBRANCH  26  27
ENDBRANCH  25  26
ENDBRANCH  20  25
ENDBRANCH   2  20
TORSDOF 10
ENDMDL
MODEL 5
REMARK VINA RESULT:      -7.0      2.088      8.065
REMARK  10 active torsions:
REMARK  status: ('A' for Active; 'I' for Inactive)
REMARK    1  A    between atoms: N_4  and  C_27 
REMARK    2  A    between atoms: C_5  and  C_27 
REMARK    3  A    between atoms: C_5  and  C_13 
REMARK    4  A    between atoms: N_6  and  C_22 
REMARK    5  A    between atoms: C_12  and  C_14 
REMARK    6  A    between atoms: C_12  and  C_29 
REMARK    7  A    between atoms: C_12  and  N_23 
REMARK    8  A    between atoms: C_13  and  C_22 
REMARK       I    between atoms: C_16  and  N_23 
REMARK    9  A    between atoms: C_16  and  C_27 
REMARK   10  A    between atoms: C_24  and  C_29 
ROOT
HETATM    1  H           1     -19.301  -7.167  -6.754  0.00  0.00     0.163 HD
HETATM    2  C           1     -20.281  -5.349  -6.619  0.00  0.00     0.249 C 
HETATM    3  O           1     -19.777  -4.506  -5.914  0.00  0.00    -0.271 OA
HETATM    4  N           1     -20.087  -6.676  -6.345  0.00  0.00    -0.344 N 
ENDROOT
BRANCH   4   5
HETATM    5  C           1     -21.005  -7.379  -5.470  0.00  0.00     0.190 C 
BRANCH   5   6
HETATM    6  C           1     -21.851  -6.378  -4.722  0.00  0.00     0.197 C 
HETATM    7  O           1     -22.997  -6.098  -5.134  0.00  0.00    -0.646 OA
HETATM    8  O           1     -21.407  -5.830  -3.690  0.00  0.00    -0.646 OA
ENDBRANCH   5   6
BRANCH   5   9
HETATM    9  C           1     -20.214  -8.218  -4.476  0.00  0.00     0.077 C 
BRANCH   9  10
HETATM   10  C           1     -21.110  -9.253  -3.870  0.00  0.00    -0.021 A 
HETATM   11  C           1     -21.596  -9.265  -2.533  0.00  0.00     0.005 A 
HETATM   12  C           1     -22.392 -10.402  -2.395  0.00  0.00     0.132 A 
HETATM   13  C           1     -21.433  -8.413  -1.425  0.00  0.00     0.014 A 
HETATM   14  N           1     -22.384 -11.051  -3.609  0.00  0.00    -0.076 N 
HETATM   15  C           1     -23.037 -10.731  -1.198  0.00  0.00     0.037 A 
HETATM   16  C           1     -21.613 -10.365  -4.509  0.00  0.00     0.195 A 
HETATM   17  H           1     -22.897 -11.944  -3.817  0.00  0.00     0.272 HD
HETATM   18  C           1     -22.861  -9.871  -0.110  0.00  0.00     0.002 A 
HETATM   19  C           1     -22.071  -8.727  -0.219  0.00  0.00     0.001 A 
ENDBRANCH   9  10
ENDBRANCH   5   9
ENDBRANCH   4   5
BRANCH   2  20
HETATM   20  C           1     -21.126  -4.938  -7.800  0.00  0.00     0.274 C 
BRANCH  20  21
HETATM   21  N           1     -22.311  -4.154  -7.318  0.00  0.00    -0.067 N 
HETATM   22  H           1     -22.409  -4.270  -6.285  0.00  0.00     0.275 HD
HETATM   23  H           1     -22.174  -3.143  -7.544  0.00  0.00     0.275 HD
HETATM   24  H           1     -23.174  -4.504  -7.791  0.00  0.00     0.275 HD
ENDBRANCH  20  21
BRANCH  20  25
HETATM   25  C           1     -20.297  -4.076  -8.743  0.00  0.00     0.044 C 
BRANCH  25  26
HETATM   26  C           1     -20.521  -4.534 -10.178  0.00  0.00     0.033 C 
BRANCH  26  27
HETATM   27  C           1     -21.559  -3.639 -10.842  0.00  0.00     0.619 C 
BRANCH  27  28
HETATM   28  N           1     -22.846  -4.392 -10.996  0.00  0.00    -0.077 N 
HETATM   29  H           1     -23.642  -3.789 -10.685  0.00  0.00     0.274 HD
HETATM   30  H           1     -22.979  -4.655 -11.998  0.00  0.00     0.274 HD
HETATM   31  H           1     -22.814  -5.257 -10.411  0.00  0.00     0.274 HD
ENDBRANCH  27  28
ENDBRANCH  26  27
ENDBRANCH  25  26
ENDBRANCH  20  25
ENDBRANCH   2  20
TORSDOF 10
ENDMDL
MODEL 6
REMARK VINA RESULT:      -6.9      2.046      7.835
REMARK  10 active torsions:
REMARK  status: ('A' for Active; 'I' for Inactive)
REMARK    1  A    between atoms: N_4  and  C_27 
REMARK    2  A    between atoms: C_5  and  C_27 
REMARK    3  A    between atoms: C_5  and  C_13 
REMARK    4  A    between atoms: N_6  and  C_22 
REMARK    5  A    between atoms: C_12  and  C_14 
REMARK    6  A    between atoms: C_12  and  C_29 
REMARK    7  A    between atoms: C_12  and  N_23 
REMARK    8  A    between atoms: C_13  and  C_22 
REMARK       I    between atoms: C_16  and  N_23 
REMARK    9  A    between atoms: C_16  and  C_27 
REMARK   10  A    between atoms: C_24  and  C_29 
ROOT
HETATM    1  H           1     -21.644  -8.692  -6.457  0.00  0.00     0.163 HD
HETATM    2  C           1     -20.630  -6.909  -6.182  0.00  0.00     0.249 C 
HETATM    3  O           1     -19.662  -6.717  -6.879  0.00  0.00    -0.271 OA
HETATM    4  N           1     -21.000  -8.187  -5.862  0.00  0.00    -0.344 N 
ENDROOT
BRANCH   4   5
HETATM    5  C           1     -20.468  -8.819  -4.669  0.00  0.00     0.190 C 
BRANCH   5   6
HETATM    6  C           1     -19.158  -9.490  -4.997  0.00  0.00     0.197 C 
HETATM    7  O           1     -19.055 -10.190  -6.027  0.00  0.00    -0.646 OA
HETATM    8  O           1     -18.174  -9.347  -4.239  0.00  0.00    -0.646 OA
ENDBRANCH   5   6
BRANCH   5   9
HETATM    9  C           1     -21.459  -9.858  -4.163  0.00  0.00     0.077 C 
BRANCH   9  10
HETATM   10  C           1     -21.188 -10.146  -2.719  0.00  0.00    -0.021 A 
HETATM   11  C           1     -21.469  -9.284  -1.623  0.00  0.00     0.005 A 
HETATM   12  C           1     -21.059  -9.943  -0.464  0.00  0.00     0.132 A 
HETATM   13  C           1     -22.036  -8.001  -1.508  0.00  0.00     0.014 A 
HETATM   14  N           1     -20.548 -11.162  -0.852  0.00  0.00    -0.076 N 
HETATM   15  C           1     -21.188  -9.381   0.810  0.00  0.00     0.037 A 
HETATM   16  C           1     -20.622 -11.295  -2.213  0.00  0.00     0.195 A 
HETATM   17  H           1     -20.158 -11.886  -0.198  0.00  0.00     0.272 HD
HETATM   18  C           1     -21.753  -8.106   0.901  0.00  0.00     0.002 A 
HETATM   19  C           1     -22.172  -7.423  -0.240  0.00  0.00     0.001 A 
ENDBRANCH   9  10
ENDBRANCH   5   9
ENDBRANCH   4   5
BRANCH   2  20
HETATM   20  C           1     -21.431  -5.740  -5.665  0.00  0.00     0.274 C 
BRANCH  20  21
HETATM   21  N           1     -21.181  -5.573  -4.196  0.00  0.00    -0.067 N 
HETATM   22  H           1     -21.047  -4.560  -3.978  0.00  0.00     0.275 HD
HETATM   23  H           1     -22.000  -5.940  -3.660  0.00  0.00     0.275 HD
HETATM   24  H           1     -20.321  -6.103  -3.927  0.00  0.00     0.275 HD
ENDBRANCH  20  21
BRANCH  20  25
HETATM   25  C           1     -21.012  -4.472  -6.398  0.00  0.00     0.044 C 
BRANCH  25  26
HETATM   26  C           1     -22.051  -4.132  -7.459  0.00  0.00     0.033 C 
BRANCH  26  27
HETATM   27  C           1     -21.407  -4.187  -8.838  0.00  0.00     0.619 C 
BRANCH  27  28
HETATM   28  N           1     -19.919  -4.312  -8.692  0.00  0.00    -0.077 N 
HETATM   29  H           1     -19.451  -3.882  -9.522  0.00  0.00     0.274 HD
HETATM   30  H           1     -19.612  -3.820  -7.824  0.00  0.00     0.274 HD
HETATM   31  H           1     -19.661  -5.323  -8.630  0.00  0.00     0.274 HD
ENDBRANCH  27  28
ENDBRANCH  26  27
ENDBRANCH  25  26
ENDBRANCH  20  25
ENDBRANCH   2  20
TORSDOF 10
ENDMDL
MODEL 7
REMARK VINA RESULT:      -6.9      3.186      6.713
REMARK  10 active torsions:
REMARK  status: ('A' for Active; 'I' for Inactive)
REMARK    1  A    between atoms: N_4  and  C_27 
REMARK    2  A    between atoms: C_5  and  C_27 
REMARK    3  A    between atoms: C_5  and  C_13 
REMARK    4  A    between atoms: N_6  and  C_22 
REMARK    5  A    between atoms: C_12  and  C_14 
REMARK    6  A    between atoms: C_12  and  C_29 
REMARK    7  A    between atoms: C_12  and  N_23 
REMARK    8  A    between atoms: C_13  and  C_22 
REMARK       I    between atoms: C_16  and  N_23 
REMARK    9  A    between atoms: C_16  and  C_27 
REMARK   10  A    between atoms: C_24  and  C_29 
ROOT
HETATM    1  H           1     -20.054  -7.129  -1.835  0.00  0.00     0.163 HD
HETATM    2  C           1     -21.703  -6.532  -2.935  0.00  0.00     0.249 C 
HETATM    3  O           1     -22.509  -5.827  -2.375  0.00  0.00    -0.271 OA
HETATM    4  N           1     -20.948  -7.417  -2.213  0.00  0.00    -0.344 N 
ENDROOT
BRANCH   4   5
HETATM    5  C           1     -21.429  -8.767  -1.989  0.00  0.00     0.190 C 
BRANCH   5   6
HETATM    6  C           1     -22.108  -8.841  -0.644  0.00  0.00     0.197 C 
HETATM    7  O           1     -23.030  -9.662  -0.454  0.00  0.00    -0.646 OA
HETATM    8  O           1     -21.749  -8.080   0.282  0.00  0.00    -0.646 OA
ENDBRANCH   5   6
BRANCH   5   9
HETATM    9  C           1     -20.253  -9.734  -2.018  0.00  0.00     0.077 C 
BRANCH   9  10
HETATM   10  C           1     -19.706  -9.814  -3.409  0.00  0.00    -0.021 A 
HETATM   11  C           1     -18.332  -9.770  -3.774  0.00  0.00     0.005 A 
HETATM   12  C           1     -18.272  -9.877  -5.164  0.00  0.00     0.132 A 
HETATM   13  C           1     -17.130  -9.648  -3.052  0.00  0.00     0.014 A 
HETATM   14  N           1     -19.568  -9.982  -5.617  0.00  0.00    -0.076 N 
HETATM   15  C           1     -17.064  -9.868  -5.871  0.00  0.00     0.037 A 
HETATM   16  C           1     -20.443  -9.947  -4.564  0.00  0.00     0.195 A 
HETATM   17  H           1     -19.846 -10.078  -6.626  0.00  0.00     0.272 HD
HETATM   18  C           1     -15.883  -9.746  -5.133  0.00  0.00     0.002 A 
HETATM   19  C           1     -15.912  -9.637  -3.743  0.00  0.00     0.001 A 
ENDBRANCH   9  10
ENDBRANCH   5   9
ENDBRANCH   4   5
BRANCH   2  20
HETATM   20  C           1     -21.529  -6.437  -4.431  0.00  0.00     0.274 C 
BRANCH  20  21
HETATM   21  N           1     -22.850  -6.127  -5.069  0.00  0.00    -0.067 N 
HETATM   22  H           1     -23.594  -6.100  -4.336  0.00  0.00     0.275 HD
HETATM   23  H           1     -22.797  -5.197  -5.544  0.00  0.00     0.275 HD
HETATM   24  H           1     -23.079  -6.865  -5.771  0.00  0.00     0.275 HD
ENDBRANCH  20  21
BRANCH  20  25
HETATM   25  C           1     -20.534  -5.331  -4.758  0.00  0.00     0.044 C 
BRANCH  25  26
HETATM   26  C           1     -20.866  -4.737  -6.121  0.00  0.00     0.033 C 
BRANCH  26  27
HETATM   27  C           1     -19.727  -5.022  -7.091  0.00  0.00     0.619 C 
BRANCH  27  28
HETATM   28  N           1     -19.600  -6.502  -7.296  0.00  0.00    -0.077 N 
HETATM   29  H           1     -19.702  -6.991  -6.378  0.00  0.00     0.274 HD
HETATM   30  H           1     -20.347  -6.829  -7.949  0.00  0.00     0.274 HD
HETATM   31  H           1     -18.663  -6.718  -7.705  0.00  0.00     0.274 HD
ENDBRANCH  27  28
ENDBRANCH  26  27
ENDBRANCH  25  26
ENDBRANCH  20  25
ENDBRANCH   2  20
TORSDOF 10
ENDMDL
MODEL 8
REMARK VINA RESULT:      -6.8      4.231      7.502
REMARK  10 active torsions:
REMARK  status: ('A' for Active; 'I' for Inactive)
REMARK    1  A    between atoms: N_4  and  C_27 
REMARK    2  A    between atoms: C_5  and  C_27 
REMARK    3  A    between atoms: C_5  and  C_13 
REMARK    4  A    between atoms: N_6  and  C_22 
REMARK    5  A    between atoms: C_12  and  C_14 
REMARK    6  A    between atoms: C_12  and  C_29 
REMARK    7  A    between atoms: C_12  and  N_23 
REMARK    8  A    between atoms: C_13  and  C_22 
REMARK       I    between atoms: C_16  and  N_23 
REMARK    9  A    between atoms: C_16  and  C_27 
REMARK   10  A    between atoms: C_24  and  C_29 
ROOT
HETATM    1  H           1     -19.382  -7.144  -4.107  0.00  0.00     0.163 HD
HETATM    2  C           1     -19.771  -9.120  -4.588  0.00  0.00     0.249 C 
HETATM    3  O           1     -20.198  -9.339  -5.696  0.00  0.00    -0.271 OA
HETATM    4  N           1     -20.023  -7.918  -3.983  0.00  0.00    -0.344 N 
ENDROOT
BRANCH   4   5
HETATM    5  C           1     -21.208  -7.751  -3.164  0.00  0.00     0.190 C 
BRANCH   5   6
HETATM    6  C           1     -21.842  -6.415  -3.462  0.00  0.00     0.197 C 
HETATM    7  O           1     -22.175  -5.658  -2.525  0.00  0.00    -0.646 OA
HETATM    8  O           1     -22.033  -6.064  -4.647  0.00  0.00    -0.646 OA
ENDBRANCH   5   6
BRANCH   5   9
HETATM    9  C           1     -20.820  -7.812  -1.693  0.00  0.00     0.077 C 
BRANCH   9  10
HETATM   10  C           1     -21.937  -8.423  -0.905  0.00  0.00    -0.021 A 
HETATM   11  C           1     -22.460  -9.736  -1.070  0.00  0.00     0.005 A 
HETATM   12  C           1     -23.485  -9.890  -0.136  0.00  0.00     0.132 A 
HETATM   13  C           1     -22.157 -10.810  -1.927  0.00  0.00     0.014 A 
HETATM   14  N           1     -23.574  -8.709   0.566  0.00  0.00    -0.076 N 
HETATM   15  C           1     -24.226 -11.071  -0.016  0.00  0.00     0.037 A 
HETATM   16  C           1     -22.642  -7.815   0.109  0.00  0.00     0.195 A 
HETATM   17  H           1     -24.257  -8.520   1.341  0.00  0.00     0.272 HD
HETATM   18  C           1     -23.908 -12.125  -0.878  0.00  0.00     0.002 A 
HETATM   19  C           1     -22.889 -12.000  -1.821  0.00  0.00     0.001 A 
ENDBRANCH   9  10
ENDBRANCH   5   9
ENDBRANCH   4   5
BRANCH   2  20
HETATM   20  C           1     -18.961 -10.171  -3.869  0.00  0.00     0.274 C 
BRANCH  20  21
HETATM   21  N           1     -18.258 -11.033  -4.875  0.00  0.00    -0.067 N 
HETATM   22  H           1     -17.783 -11.824  -4.384  0.00  0.00     0.275 HD
HETATM   23  H           1     -18.956 -11.414  -5.554  0.00  0.00     0.275 HD
HETATM   24  H           1     -17.548 -10.463  -5.386  0.00  0.00     0.275 HD
ENDBRANCH  20  21
BRANCH  20  25
HETATM   25  C           1     -17.932  -9.495  -2.973  0.00  0.00     0.044 C 
BRANCH  25  26
HETATM   26  C           1     -16.530  -9.822  -3.473  0.00  0.00     0.033 C 
BRANCH  26  27
HETATM   27  C           1     -15.687 -10.345  -2.317  0.00  0.00     0.619 C 
BRANCH  27  28
HETATM   28  N           1     -16.425 -11.447  -1.617  0.00  0.00    -0.077 N 
HETATM   29  H           1     -17.430 -11.182  -1.512  0.00  0.00     0.274 HD
HETATM   30  H           1     -16.353 -12.326  -2.177  0.00  0.00     0.274 HD
HETATM   31  H           1     -16.004 -11.602  -0.673  0.00  0.00     0.274 HD
ENDBRANCH  27  28
ENDBRANCH  26  27
ENDBRANCH  25  26
ENDBRANCH  20  25
ENDBRANCH   2  20
TORSDOF 10
ENDMDL
MODEL 9
REMARK VINA RESULT:      -6.7     20.957     23.013
REMARK  10 active torsions:
REMARK  status: ('A' for Active; 'I' for Inactive)
REMARK    1  A    between atoms: N_4  and  C_27 
REMARK    2  A    between atoms: C_5  and  C_27 
REMARK    3  A    between atoms: C_5  and  C_13 
REMARK    4  A    between atoms: N_6  and  C_22 
REMARK    5  A    between atoms: C_12  and  C_14 
REMARK    6  A    between atoms: C_12  and  C_29 
REMARK    7  A    between atoms: C_12  and  N_23 
REMARK    8  A    between atoms: C_13  and  C_22 
REMARK       I    between atoms: C_16  and  N_23 
REMARK    9  A    between atoms: C_16  and  C_27 
REMARK   10  A    between atoms: C_24  and  C_29 
ROOT
HETATM    1  H           1     -12.503   8.114 -21.709  0.00  0.00     0.163 HD
HETATM    2  C           1     -11.853   6.876 -20.183  0.00  0.00     0.249 C 
HETATM    3  O           1     -12.704   6.361 -19.496  0.00  0.00    -0.271 OA
HETATM    4  N           1     -12.096   8.082 -20.783  0.00  0.00    -0.344 N 
ENDROOT
BRANCH   4   5
HETATM    5  C           1     -11.770   9.315 -20.093  0.00  0.00     0.190 C 
BRANCH   5   6
HETATM    6  C           1     -10.341   9.258 -19.611  0.00  0.00     0.197 C 
HETATM    7  O           1      -9.407   9.547 -20.389  0.00  0.00    -0.646 OA
HETATM    8  O           1     -10.092   8.923 -18.432  0.00  0.00    -0.646 OA
ENDBRANCH   5   6
BRANCH   5   9
HETATM    9  C           1     -12.701   9.490 -18.901  0.00  0.00     0.077 C 
BRANCH   9  10
HETATM   10  C           1     -13.648  10.619 -19.167  0.00  0.00    -0.021 A 
HETATM   11  C           1     -14.723  11.027 -18.330  0.00  0.00     0.005 A 
HETATM   12  C           1     -15.341  12.111 -18.955  0.00  0.00     0.132 A 
HETATM   13  C           1     -15.230  10.577 -17.097  0.00  0.00     0.014 A 
HETATM   14  N           1     -14.659  12.344 -20.128  0.00  0.00    -0.076 N 
HETATM   15  C           1     -16.447  12.769 -18.405  0.00  0.00     0.037 A 
HETATM   16  C           1     -13.633  11.448 -20.266  0.00  0.00     0.195 A 
HETATM   17  H           1     -14.892  13.102 -20.818  0.00  0.00     0.272 HD
HETATM   18  C           1     -16.933  12.304 -17.180  0.00  0.00     0.002 A 
HETATM   19  C           1     -16.336  11.224 -16.532  0.00  0.00     0.001 A 
ENDBRANCH   9  10
ENDBRANCH   5   9
ENDBRANCH   4   5
BRANCH   2  20
HETATM   20  C           1     -10.524   6.190 -20.378  0.00  0.00     0.274 C 
BRANCH  20  21
HETATM   21  N           1      -9.975   5.777 -19.045  0.00  0.00    -0.067 N 
HETATM   22  H           1     -10.075   4.743 -18.932  0.00  0.00     0.275 HD
HETATM   23  H           1      -8.964   6.037 -18.990  0.00  0.00     0.275 HD
HETATM   24  H           1     -10.503   6.262 -18.285  0.00  0.00     0.275 HD
ENDBRANCH  20  21
BRANCH  20  25
HETATM   25  C           1     -10.711   4.958 -21.254  0.00  0.00     0.044 C 
BRANCH  25  26
HETATM   26  C           1     -10.973   3.744 -20.372  0.00  0.00     0.033 C 
BRANCH  26  27
HETATM   27  C           1     -12.085   2.901 -20.984  0.00  0.00     0.619 C 
BRANCH  27  28
HETATM   28  N           1     -13.397   3.611 -20.826  0.00  0.00    -0.077 N 
HETATM   29  H           1     -13.882   3.259 -19.970  0.00  0.00     0.274 HD
HETATM   30  H           1     -13.228   4.638 -20.732  0.00  0.00     0.274 HD
HETATM   31  H           1     -13.993   3.431 -21.665  0.00  0.00     0.274 HD
ENDBRANCH  27  28
ENDBRANCH  26  27
ENDBRANCH  25  26
ENDBRANCH  20  25
ENDBRANCH   2  20
TORSDOF 10
ENDMDL
