MODEL 1
REMARK VINA RESULT:      -7.6      0.000      0.000
REMARK  8 active torsions:
REMARK  status: ('A' for Active; 'I' for Inactive)
REMARK    1  A    between atoms: C_1  and  C_24 
REMARK    2  A    between atoms: C_1  and  C_2 
REMARK    3  A    between atoms: C_1  and  N_17 
REMARK    4  A    between atoms: C_5  and  C_13 
REMARK    5  A    between atoms: C_5  and  C_18 
REMARK    6  A    between atoms: N_6  and  C_13 
REMARK       I    between atoms: C_8  and  N_17 
REMARK    7  A    between atoms: C_8  and  C_13 
REMARK    8  A    between atoms: C_23  and  C_24 
ROOT
HETATM    1  C           1     -21.500  -6.334  -5.490  0.00  0.00     0.278 C 
ENDROOT
BRANCH   1   2
HETATM    2  C           1     -20.944  -5.092  -6.174  0.00  0.00     0.083 C 
BRANCH   2   3
HETATM    3  C           1     -21.867  -4.673  -7.276  0.00  0.00    -0.028 A 
HETATM    4  C           1     -21.509  -4.466  -8.637  0.00  0.00    -0.002 A 
HETATM    5  C           1     -22.667  -4.085  -9.313  0.00  0.00     0.042 A 
HETATM    6  C           1     -20.303  -4.566  -9.358  0.00  0.00     0.014 A 
HETATM    7  N           1     -23.687  -4.065  -8.389  0.00  0.00    -0.365 N 
HETATM    8  C           1     -22.682  -3.799 -10.684  0.00  0.00     0.030 A 
HETATM    9  C           1     -23.215  -4.418  -7.153  0.00  0.00     0.096 A 
HETATM   10  H           1     -24.685  -3.814  -8.601  0.00  0.00     0.165 HD
HETATM   11  C           1     -21.474  -3.906 -11.380  0.00  0.00     0.002 A 
HETATM   12  C           1     -20.301  -4.283 -10.730  0.00  0.00     0.001 A 
ENDBRANCH   2   3
ENDBRANCH   1   2
BRANCH   1  13
HETATM   13  N           1     -21.866  -6.002  -4.073  0.00  0.00    -0.066 N 
HETATM   14  H           1     -21.500  -6.745  -3.436  0.00  0.00     0.275 HD
HETATM   15  H           1     -21.445  -5.082  -3.813  0.00  0.00     0.275 HD
HETATM   16  H           1     -22.905  -5.948  -3.986  0.00  0.00     0.275 HD
ENDBRANCH   1  13
BRANCH   1  17
HETATM   17  C           1     -20.457  -7.423  -5.497  0.00  0.00     0.249 C 
HETATM   18  N           1     -20.506  -8.426  -4.567  0.00  0.00    -0.344 N 
HETATM   19  H           1     -21.244  -8.436  -3.874  0.00  0.00     0.163 HD
HETATM   20  O           1     -19.577  -7.411  -6.325  0.00  0.00    -0.271 OA
BRANCH  18  21
HETATM   21  C           1     -19.503  -9.473  -4.574  0.00  0.00     0.189 C 
BRANCH  21  22
HETATM   22  C           1     -19.023  -9.728  -3.152  0.00  0.00     0.014 C 
HETATM   23  C           1     -17.532  -9.437  -3.059  0.00  0.00     0.012 C 
BRANCH  22  24
HETATM   24  C           1     -19.778  -8.817  -2.191  0.00  0.00     0.002 C 
HETATM   25  C           1     -20.536  -9.664  -1.177  0.00  0.00     0.005 C 
ENDBRANCH  22  24
ENDBRANCH  21  22
BRANCH  21  26
HETATM   26  C           1     -20.102 -10.738  -5.137  0.00  0.00     0.197 C 
HETATM   27  O           1     -20.382 -11.690  -4.375  0.00  0.00    -0.646 OA
HETATM   28  O           1     -20.319 -10.836  -6.364  0.00  0.00    -0.646 OA
ENDBRANCH  21  26
ENDBRANCH  18  21
ENDBRANCH   1  17
TORSDOF 8
ENDMDL
MODEL 2
REMARK VINA RESULT:      -7.2      2.251      2.987
REMARK  8 active torsions:
REMARK  status: ('A' for Active; 'I' for Inactive)
REMARK    1  A    between atoms: C_1  and  C_24 
REMARK    2  A    between atoms: C_1  and  C_2 
REMARK    3  A    between atoms: C_1  and  N_17 
REMARK    4  A    between atoms: C_5  and  C_13 
REMARK    5  A    between atoms: C_5  and  C_18 
REMARK    6  A    between atoms: N_6  and  C_13 
REMARK       I    between atoms: C_8  and  N_17 
REMARK    7  A    between atoms: C_8  and  C_13 
REMARK    8  A    between atoms: C_23  and  C_24 
ROOT
HETATM    1  C           1     -20.406  -6.022  -5.887  0.00  0.00     0.278 C 
ENDROOT
BRANCH   1   2
HETATM    2  C           1     -20.802  -4.556  -5.996  0.00  0.00     0.083 C 
BRANCH   2   3
HETATM    3  C           1     -21.780  -4.385  -7.117  0.00  0.00    -0.028 A 
HETATM    4  C           1     -21.457  -4.158  -8.483  0.00  0.00    -0.002 A 
HETATM    5  C           1     -22.662  -4.059  -9.179  0.00  0.00     0.042 A 
HETATM    6  C           1     -20.249  -4.027  -9.196  0.00  0.00     0.014 A 
HETATM    7  N           1     -23.674  -4.220  -8.260  0.00  0.00    -0.365 N 
HETATM    8  C           1     -22.721  -3.834 -10.560  0.00  0.00     0.030 A 
HETATM    9  C           1     -23.152  -4.418  -7.010  0.00  0.00     0.096 A 
HETATM   10  H           1     -24.699  -4.196  -8.485  0.00  0.00     0.165 HD
HETATM   11  C           1     -21.508  -3.708 -11.247  0.00  0.00     0.002 A 
HETATM   12  C           1     -20.290  -3.802 -10.577  0.00  0.00     0.001 A 
ENDBRANCH   2   3
ENDBRANCH   1   2
BRANCH   1  13
HETATM   13  N           1     -20.592  -6.690  -7.217  0.00  0.00    -0.066 N 
HETATM   14  H           1     -20.213  -7.663  -7.175  0.00  0.00     0.275 HD
HETATM   15  H           1     -21.611  -6.724  -7.449  0.00  0.00     0.275 HD
HETATM   16  H           1     -20.084  -6.149  -7.952  0.00  0.00     0.275 HD
ENDBRANCH   1  13
BRANCH   1  17
HETATM   17  C           1     -21.273  -6.703  -4.858  0.00  0.00     0.249 C 
HETATM   18  N           1     -20.780  -6.961  -3.607  0.00  0.00    -0.344 N 
HETATM   19  H           1     -19.832  -6.693  -3.373  0.00  0.00     0.163 HD
HETATM   20  O           1     -22.405  -7.022  -5.137  0.00  0.00    -0.271 OA
BRANCH  18  21
HETATM   21  C           1     -21.614  -7.616  -2.618  0.00  0.00     0.189 C 
BRANCH  21  22
HETATM   22  C           1     -20.783  -8.628  -1.842  0.00  0.00     0.014 C 
HETATM   23  C           1     -21.499  -9.971  -1.832  0.00  0.00     0.012 C 
BRANCH  22  24
HETATM   24  C           1     -19.421  -8.784  -2.508  0.00  0.00     0.002 C 
HETATM   25  C           1     -18.986 -10.241  -2.439  0.00  0.00     0.005 C 
ENDBRANCH  22  24
ENDBRANCH  21  22
BRANCH  21  26
HETATM   26  C           1     -22.167  -6.584  -1.666  0.00  0.00     0.197 C 
HETATM   27  O           1     -22.015  -5.366  -1.905  0.00  0.00    -0.646 OA
HETATM   28  O           1     -22.778  -6.947  -0.637  0.00  0.00    -0.646 OA
ENDBRANCH  21  26
ENDBRANCH  18  21
ENDBRANCH   1  17
TORSDOF 8
ENDMDL
MODEL 3
REMARK VINA RESULT:      -7.1      1.962      2.795
REMARK  8 active torsions:
REMARK  status: ('A' for Active; 'I' for Inactive)
REMARK    1  A    between atoms: C_1  and  C_24 
REMARK    2  A    between atoms: C_1  and  C_2 
REMARK    3  A    between atoms: C_1  and  N_17 
REMARK    4  A    between atoms: C_5  and  C_13 
REMARK    5  A    between atoms: C_5  and  C_18 
REMARK    6  A    between atoms: N_6  and  C_13 
REMARK       I    between atoms: C_8  and  N_17 
REMARK    7  A    between atoms: C_8  and  C_13 
REMARK    8  A    between atoms: C_23  and  C_24 
ROOT
HETATM    1  C           1     -21.690  -6.368  -5.645  0.00  0.00     0.278 C 
ENDROOT
BRANCH   1   2
HETATM    2  C           1     -20.969  -5.044  -5.864  0.00  0.00     0.083 C 
BRANCH   2   3
HETATM    3  C           1     -20.814  -4.797  -7.331  0.00  0.00    -0.028 A 
HETATM    4  C           1     -21.843  -4.391  -8.226  0.00  0.00    -0.002 A 
HETATM    5  C           1     -21.266  -4.278  -9.492  0.00  0.00     0.042 A 
HETATM    6  C           1     -23.214  -4.109  -8.079  0.00  0.00     0.014 A 
HETATM    7  N           1     -19.935  -4.605  -9.360  0.00  0.00    -0.365 N 
HETATM    8  C           1     -21.995  -3.894 -10.623  0.00  0.00     0.030 A 
HETATM    9  C           1     -19.651  -4.921  -8.058  0.00  0.00     0.096 A 
HETATM   10  H           1     -19.238  -4.612 -10.144  0.00  0.00     0.165 HD
HETATM   11  C           1     -23.356  -3.619 -10.452  0.00  0.00     0.002 A 
HETATM   12  C           1     -23.959  -3.724  -9.201  0.00  0.00     0.001 A 
ENDBRANCH   2   3
ENDBRANCH   1   2
BRANCH   1  13
HETATM   13  N           1     -23.085  -6.103  -5.161  0.00  0.00    -0.066 N 
HETATM   14  H           1     -23.368  -6.849  -4.486  0.00  0.00     0.275 HD
HETATM   15  H           1     -23.116  -5.173  -4.683  0.00  0.00     0.275 HD
HETATM   16  H           1     -23.741  -6.100  -5.973  0.00  0.00     0.275 HD
ENDBRANCH   1  13
BRANCH   1  17
HETATM   17  C           1     -20.948  -7.182  -4.615  0.00  0.00     0.249 C 
HETATM   18  N           1     -21.535  -7.465  -3.411  0.00  0.00    -0.344 N 
HETATM   19  H           1     -22.469  -7.128  -3.213  0.00  0.00     0.163 HD
HETATM   20  O           1     -19.834  -7.585  -4.852  0.00  0.00    -0.271 OA
BRANCH  18  21
HETATM   21  C           1     -20.821  -8.248  -2.421  0.00  0.00     0.189 C 
BRANCH  21  22
HETATM   22  C           1     -21.222  -7.790  -1.025  0.00  0.00     0.014 C 
HETATM   23  C           1     -22.248  -6.671  -1.134  0.00  0.00     0.012 C 
BRANCH  22  24
HETATM   24  C           1     -21.827  -8.961  -0.261  0.00  0.00     0.002 C 
HETATM   25  C           1     -23.122  -8.518   0.406  0.00  0.00     0.005 C 
ENDBRANCH  22  24
ENDBRANCH  21  22
BRANCH  21  26
HETATM   26  C           1     -21.168  -9.707  -2.590  0.00  0.00     0.197 C 
HETATM   27  O           1     -22.315 -10.038  -2.961  0.00  0.00    -0.646 OA
HETATM   28  O           1     -20.309 -10.585  -2.359  0.00  0.00    -0.646 OA
ENDBRANCH  21  26
ENDBRANCH  18  21
ENDBRANCH   1  17
TORSDOF 8
ENDMDL
MODEL 4
REMARK VINA RESULT:      -7.0     14.363     15.565
REMARK  8 active torsions:
REMARK  status: ('A' for Active; 'I' for Inactive)
REMARK    1  A    between atoms: C_1  and  C_24 
REMARK    2  A    between atoms: C_1  and  C_2 
REMARK    3  A    between atoms: C_1  and  N_17 
REMARK    4  A    between atoms: C_5  and  C_13 
REMARK    5  A    between atoms: C_5  and  C_18 
REMARK    6  A    between atoms: N_6  and  C_13 
REMARK       I    between atoms: C_8  and  N_17 
REMARK    7  A    between atoms: C_8  and  C_13 
REMARK    8  A    between atoms: C_23  and  C_24 
ROOT
HETATM    1  C           1     -33.178  -4.539 -16.577  0.00  0.00     0.278 C 
ENDROOT
BRANCH   1   2
HETATM    2  C           1     -31.709  -4.653 -16.190  0.00  0.00     0.083 C 
BRANCH   2   3
HETATM    3  C           1     -31.041  -5.673 -17.058  0.00  0.00    -0.028 A 
HETATM    4  C           1     -29.668  -5.689 -17.428  0.00  0.00    -0.002 A 
HETATM    5  C           1     -29.474  -6.808 -18.239  0.00  0.00     0.042 A 
HETATM    6  C           1     -28.568  -4.855 -17.150  0.00  0.00     0.014 A 
HETATM    7  N           1     -30.691  -7.442 -18.352  0.00  0.00    -0.365 N 
HETATM    8  C           1     -28.228  -7.136 -18.788  0.00  0.00     0.030 A 
HETATM    9  C           1     -31.646  -6.764 -17.641  0.00  0.00     0.096 A 
HETATM   10  H           1     -30.863  -8.319 -18.902  0.00  0.00     0.165 HD
HETATM   11  C           1     -27.151  -6.293 -18.497  0.00  0.00     0.002 A 
HETATM   12  C           1     -27.316  -5.169 -17.691  0.00  0.00     0.001 A 
ENDBRANCH   2   3
ENDBRANCH   1   2
BRANCH   1  13
HETATM   13  N           1     -33.401  -3.251 -17.313  0.00  0.00    -0.066 N 
HETATM   14  H           1     -33.476  -2.466 -16.628  0.00  0.00     0.275 HD
HETATM   15  H           1     -32.597  -3.074 -17.957  0.00  0.00     0.275 HD
HETATM   16  H           1     -34.284  -3.315 -17.867  0.00  0.00     0.275 HD
ENDBRANCH   1  13
BRANCH   1  17
HETATM   17  C           1     -34.030  -4.561 -15.333  0.00  0.00     0.249 C 
HETATM   18  N           1     -33.574  -3.982 -14.179  0.00  0.00    -0.344 N 
HETATM   19  H           1     -32.664  -3.539 -14.161  0.00  0.00     0.163 HD
HETATM   20  O           1     -35.116  -5.088 -15.355  0.00  0.00    -0.271 OA
BRANCH  18  21
HETATM   21  C           1     -34.394  -4.003 -12.984  0.00  0.00     0.189 C 
BRANCH  21  22
HETATM   22  C           1     -33.522  -4.310 -11.774  0.00  0.00     0.014 C 
HETATM   23  C           1     -32.918  -3.017 -11.243  0.00  0.00     0.012 C 
BRANCH  22  24
HETATM   24  C           1     -34.370  -4.957 -10.687  0.00  0.00     0.002 C 
HETATM   25  C           1     -34.117  -6.458 -10.670  0.00  0.00     0.005 C 
ENDBRANCH  22  24
ENDBRANCH  21  22
BRANCH  21  26
HETATM   26  C           1     -35.050  -2.657 -12.801  0.00  0.00     0.197 C 
HETATM   27  O           1     -34.799  -1.726 -13.597  0.00  0.00    -0.646 OA
HETATM   28  O           1     -35.846  -2.472 -11.855  0.00  0.00    -0.646 OA
ENDBRANCH  21  26
ENDBRANCH  18  21
ENDBRANCH   1  17
TORSDOF 8
ENDMDL
MODEL 5
REMARK VINA RESULT:      -7.0      2.417      7.966
REMARK  8 active torsions:
REMARK  status: ('A' for Active; 'I' for Inactive)
REMARK    1  A    between atoms: C_1  and  C_24 
REMARK    2  A    between atoms: C_1  and  C_2 
REMARK    3  A    between atoms: C_1  and  N_17 
REMARK    4  A    between atoms: C_5  and  C_13 
REMARK    5  A    between atoms: C_5  and  C_18 
REMARK    6  A    between atoms: N_6  and  C_13 
REMARK       I    between atoms: C_8  and  N_17 
REMARK    7  A    between atoms: C_8  and  C_13 
REMARK    8  A    between atoms: C_23  and  C_24 
ROOT
HETATM    1  C           1     -21.867  -5.949  -5.067  0.00  0.00     0.278 C 
ENDROOT
BRANCH   1   2
HETATM    2  C           1     -21.105  -7.064  -4.363  0.00  0.00     0.083 C 
BRANCH   2   3
HETATM    3  C           1     -21.552  -7.151  -2.937  0.00  0.00    -0.028 A 
HETATM    4  C           1     -21.716  -8.345  -2.181  0.00  0.00    -0.002 A 
HETATM    5  C           1     -22.144  -7.969  -0.908  0.00  0.00     0.042 A 
HETATM    6  C           1     -21.542  -9.714  -2.462  0.00  0.00     0.014 A 
HETATM    7  N           1     -22.233  -6.595  -0.900  0.00  0.00    -0.365 N 
HETATM    8  C           1     -22.407  -8.899   0.106  0.00  0.00     0.030 A 
HETATM    9  C           1     -21.877  -6.090  -2.122  0.00  0.00     0.096 A 
HETATM   10  H           1     -22.531  -6.018  -0.075  0.00  0.00     0.165 HD
HETATM   11  C           1     -22.226 -10.253  -0.197  0.00  0.00     0.002 A 
HETATM   12  C           1     -21.801 -10.657  -1.460  0.00  0.00     0.001 A 
ENDBRANCH   2   3
ENDBRANCH   1   2
BRANCH   1  13
HETATM   13  N           1     -23.342  -6.177  -4.910  0.00  0.00    -0.066 N 
HETATM   14  H           1     -23.850  -5.273  -5.038  0.00  0.00     0.275 HD
HETATM   15  H           1     -23.666  -6.861  -5.631  0.00  0.00     0.275 HD
HETATM   16  H           1     -23.536  -6.555  -3.957  0.00  0.00     0.275 HD
ENDBRANCH   1  13
BRANCH   1  17
HETATM   17  C           1     -21.513  -5.945  -6.534  0.00  0.00     0.249 C 
HETATM   18  N           1     -21.899  -4.900  -7.329  0.00  0.00    -0.344 N 
HETATM   19  H           1     -22.423  -4.129  -6.932  0.00  0.00     0.163 HD
HETATM   20  O           1     -20.888  -6.864  -7.006  0.00  0.00    -0.271 OA
BRANCH  18  21
HETATM   21  C           1     -21.559  -4.897  -8.739  0.00  0.00     0.189 C 
BRANCH  21  22
HETATM   22  C           1     -22.454  -3.910  -9.476  0.00  0.00     0.014 C 
HETATM   23  C           1     -22.495  -4.269 -10.955  0.00  0.00     0.012 C 
BRANCH  22  24
HETATM   24  C           1     -23.863  -3.975  -8.899  0.00  0.00     0.002 C 
HETATM   25  C           1     -24.847  -3.369  -9.890  0.00  0.00     0.005 C 
ENDBRANCH  22  24
ENDBRANCH  21  22
BRANCH  21  26
HETATM   26  C           1     -20.116  -4.486  -8.905  0.00  0.00     0.197 C 
HETATM   27  O           1     -19.405  -5.038  -9.772  0.00  0.00    -0.646 OA
HETATM   28  O           1     -19.632  -3.593  -8.176  0.00  0.00    -0.646 OA
ENDBRANCH  21  26
ENDBRANCH  18  21
ENDBRANCH   1  17
TORSDOF 8
ENDMDL
MODEL 6
REMARK VINA RESULT:      -6.6      3.876      5.746
REMARK  8 active torsions:
REMARK  status: ('A' for Active; 'I' for Inactive)
REMARK    1  A    between atoms: C_1  and  C_24 
REMARK    2  A    between atoms: C_1  and  C_2 
REMARK    3  A    between atoms: C_1  and  N_17 
REMARK    4  A    between atoms: C_5  and  C_13 
REMARK    5  A    between atoms: C_5  and  C_18 
REMARK    6  A    between atoms: N_6  and  C_13 
REMARK       I    between atoms: C_8  and  N_17 
REMARK    7  A    between atoms: C_8  and  C_13 
REMARK    8  A    between atoms: C_23  and  C_24 
ROOT
HETATM    1  C           1     -21.751 -10.145  -1.082  0.00  0.00     0.278 C 
ENDROOT
BRANCH   1   2
HETATM    2  C           1     -21.049  -8.859  -0.666  0.00  0.00     0.083 C 
BRANCH   2   3
HETATM    3  C           1     -21.460  -7.747  -1.580  0.00  0.00    -0.028 A 
HETATM    4  C           1     -21.083  -7.600  -2.943  0.00  0.00    -0.002 A 
HETATM    5  C           1     -21.686  -6.432  -3.412  0.00  0.00     0.042 A 
HETATM    6  C           1     -20.283  -8.352  -3.826  0.00  0.00     0.014 A 
HETATM    7  N           1     -22.401  -5.897  -2.365  0.00  0.00    -0.365 N 
HETATM    8  C           1     -21.528  -5.976  -4.727  0.00  0.00     0.030 A 
HETATM    9  C           1     -22.271  -6.684  -1.252  0.00  0.00     0.096 A 
HETATM   10  H           1     -22.964  -5.013  -2.412  0.00  0.00     0.165 HD
HETATM   11  C           1     -20.729  -6.740  -5.585  0.00  0.00     0.002 A 
HETATM   12  C           1     -20.115  -7.909  -5.143  0.00  0.00     0.001 A 
ENDBRANCH   2   3
ENDBRANCH   1   2
BRANCH   1  13
HETATM   13  N           1     -22.558 -10.668   0.070  0.00  0.00    -0.066 N 
HETATM   14  H           1     -23.197 -11.423  -0.266  0.00  0.00     0.275 HD
HETATM   15  H           1     -21.915 -11.055   0.797  0.00  0.00     0.275 HD
HETATM   16  H           1     -23.123  -9.891   0.480  0.00  0.00     0.275 HD
ENDBRANCH   1  13
BRANCH   1  17
HETATM   17  C           1     -20.724 -11.174  -1.483  0.00  0.00     0.249 C 
HETATM   18  N           1     -19.389 -10.877  -1.405  0.00  0.00    -0.344 N 
HETATM   19  H           1     -19.092  -9.966  -1.078  0.00  0.00     0.163 HD
HETATM   20  O           1     -21.078 -12.261  -1.872  0.00  0.00    -0.271 OA
BRANCH  18  21
HETATM   21  C           1     -18.402 -11.867  -1.790  0.00  0.00     0.189 C 
BRANCH  21  22
HETATM   22  C           1     -17.573 -11.333  -2.951  0.00  0.00     0.014 C 
HETATM   23  C           1     -18.309 -11.587  -4.259  0.00  0.00     0.012 C 
BRANCH  22  24
HETATM   24  C           1     -17.357  -9.835  -2.773  0.00  0.00     0.002 C 
HETATM   25  C           1     -15.868  -9.524  -2.850  0.00  0.00     0.005 C 
ENDBRANCH  22  24
ENDBRANCH  21  22
BRANCH  21  26
HETATM   26  C           1     -17.497 -12.156  -0.618  0.00  0.00     0.197 C 
HETATM   27  O           1     -17.900 -11.954   0.548  0.00  0.00    -0.646 OA
HETATM   28  O           1     -16.344 -12.598  -0.812  0.00  0.00    -0.646 OA
ENDBRANCH  21  26
ENDBRANCH  18  21
ENDBRANCH   1  17
TORSDOF 8
ENDMDL
MODEL 7
REMARK VINA RESULT:      -6.6      2.519      3.379
REMARK  8 active torsions:
REMARK  status: ('A' for Active; 'I' for Inactive)
REMARK    1  A    between atoms: C_1  and  C_24 
REMARK    2  A    between atoms: C_1  and  C_2 
REMARK    3  A    between atoms: C_1  and  N_17 
REMARK    4  A    between atoms: C_5  and  C_13 
REMARK    5  A    between atoms: C_5  and  C_18 
REMARK    6  A    between atoms: N_6  and  C_13 
REMARK       I    between atoms: C_8  and  N_17 
REMARK    7  A    between atoms: C_8  and  C_13 
REMARK    8  A    between atoms: C_23  and  C_24 
ROOT
HETATM    1  C           1     -21.020  -6.798  -5.142  0.00  0.00     0.278 C 
ENDROOT
BRANCH   1   2
HETATM    2  C           1     -21.762  -5.608  -5.735  0.00  0.00     0.083 C 
BRANCH   2   3
HETATM    3  C           1     -20.971  -5.043  -6.873  0.00  0.00    -0.028 A 
HETATM    4  C           1     -21.490  -4.630  -8.132  0.00  0.00    -0.002 A 
HETATM    5  C           1     -20.413  -4.170  -8.890  0.00  0.00     0.042 A 
HETATM    6  C           1     -22.779  -4.605  -8.699  0.00  0.00     0.014 A 
HETATM    7  N           1     -19.285  -4.303  -8.112  0.00  0.00    -0.365 N 
HETATM    8  C           1     -20.561  -3.683 -10.194  0.00  0.00     0.030 A 
HETATM    9  C           1     -19.611  -4.830  -6.890  0.00  0.00     0.096 A 
HETATM   10  H           1     -18.315  -4.038  -8.411  0.00  0.00     0.165 HD
HETATM   11  C           1     -21.850  -3.667 -10.736  0.00  0.00     0.002 A 
HETATM   12  C           1     -22.944  -4.121 -10.003  0.00  0.00     0.001 A 
ENDBRANCH   2   3
ENDBRANCH   1   2
BRANCH   1  13
HETATM   13  N           1     -21.187  -7.989  -6.040  0.00  0.00    -0.066 N 
HETATM   14  H           1     -21.806  -8.691  -5.576  0.00  0.00     0.275 HD
HETATM   15  H           1     -21.620  -7.686  -6.941  0.00  0.00     0.275 HD
HETATM   16  H           1     -20.253  -8.417  -6.227  0.00  0.00     0.275 HD
ENDBRANCH   1  13
BRANCH   1  17
HETATM   17  C           1     -21.582  -7.115  -3.779  0.00  0.00     0.249 C 
HETATM   18  N           1     -21.459  -8.377  -3.262  0.00  0.00    -0.344 N 
HETATM   19  H           1     -20.990  -9.098  -3.796  0.00  0.00     0.163 HD
HETATM   20  O           1     -22.142  -6.254  -3.142  0.00  0.00    -0.271 OA
BRANCH  18  21
HETATM   21  C           1     -22.000  -8.680  -1.951  0.00  0.00     0.189 C 
BRANCH  21  22
HETATM   22  C           1     -22.751 -10.004  -2.006  0.00  0.00     0.014 C 
HETATM   23  C           1     -22.118 -10.903  -3.059  0.00  0.00     0.012 C 
BRANCH  22  24
HETATM   24  C           1     -22.676 -10.686  -0.645  0.00  0.00     0.002 C 
HETATM   25  C           1     -24.085 -10.931  -0.121  0.00  0.00     0.005 C 
ENDBRANCH  22  24
ENDBRANCH  21  22
BRANCH  21  26
HETATM   26  C           1     -20.872  -8.783  -0.955  0.00  0.00     0.197 C 
HETATM   27  O           1     -19.834  -9.415  -1.248  0.00  0.00    -0.646 OA
HETATM   28  O           1     -20.975  -8.236   0.165  0.00  0.00    -0.646 OA
ENDBRANCH  21  26
ENDBRANCH  18  21
ENDBRANCH   1  17
TORSDOF 8
ENDMDL
MODEL 8
REMARK VINA RESULT:      -6.5      2.975      4.390
REMARK  8 active torsions:
REMARK  status: ('A' for Active; 'I' for Inactive)
REMARK    1  A    between atoms: C_1  and  C_24 
REMARK    2  A    between atoms: C_1  and  C_2 
REMARK    3  A    between atoms: C_1  and  N_17 
REMARK    4  A    between atoms: C_5  and  C_13 
REMARK    5  A    between atoms: C_5  and  C_18 
REMARK    6  A    between atoms: N_6  and  C_13 
REMARK       I    between atoms: C_8  and  N_17 
REMARK    7  A    between atoms: C_8  and  C_13 
REMARK    8  A    between atoms: C_23  and  C_24 
ROOT
HETATM    1  C           1     -20.451  -7.906  -3.603  0.00  0.00     0.278 C 
ENDROOT
BRANCH   1   2
HETATM    2  C           1     -21.241  -8.206  -4.870  0.00  0.00     0.083 C 
BRANCH   2   3
HETATM    3  C           1     -21.761  -6.928  -5.449  0.00  0.00    -0.028 A 
HETATM    4  C           1     -21.033  -6.022  -6.269  0.00  0.00    -0.002 A 
HETATM    5  C           1     -21.894  -4.970  -6.584  0.00  0.00     0.042 A 
HETATM    6  C           1     -19.719  -5.996  -6.774  0.00  0.00     0.014 A 
HETATM    7  N           1     -23.098  -5.237  -5.973  0.00  0.00    -0.365 N 
HETATM    8  C           1     -21.505  -3.888  -7.384  0.00  0.00     0.030 A 
HETATM    9  C           1     -23.029  -6.418  -5.284  0.00  0.00     0.096 A 
HETATM   10  H           1     -23.948  -4.623  -6.028  0.00  0.00     0.165 HD
HETATM   11  C           1     -20.195  -3.886  -7.874  0.00  0.00     0.002 A 
HETATM   12  C           1     -19.313  -4.922  -7.575  0.00  0.00     0.001 A 
ENDBRANCH   2   3
ENDBRANCH   1   2
BRANCH   1  13
HETATM   13  N           1     -19.292  -8.853  -3.500  0.00  0.00    -0.066 N 
HETATM   14  H           1     -19.079  -9.246  -4.445  0.00  0.00     0.275 HD
HETATM   15  H           1     -18.455  -8.340  -3.141  0.00  0.00     0.275 HD
HETATM   16  H           1     -19.534  -9.630  -2.846  0.00  0.00     0.275 HD
ENDBRANCH   1  13
BRANCH   1  17
HETATM   17  C           1     -21.345  -8.075  -2.400  0.00  0.00     0.249 C 
HETATM   18  N           1     -21.442  -9.293  -1.783  0.00  0.00    -0.344 N 
HETATM   19  H           1     -20.913 -10.081  -2.135  0.00  0.00     0.163 HD
HETATM   20  O           1     -21.975  -7.134  -1.980  0.00  0.00    -0.271 OA
BRANCH  18  21
HETATM   21  C           1     -22.301  -9.454  -0.626  0.00  0.00     0.189 C 
BRANCH  21  22
HETATM   22  C           1     -22.824 -10.884  -0.577  0.00  0.00     0.014 C 
HETATM   23  C           1     -24.216 -10.894   0.040  0.00  0.00     0.012 C 
BRANCH  22  24
HETATM   24  C           1     -22.891 -11.449  -1.990  0.00  0.00     0.002 C 
HETATM   25  C           1     -23.298 -12.915  -1.933  0.00  0.00     0.005 C 
ENDBRANCH  22  24
ENDBRANCH  21  22
BRANCH  21  26
HETATM   26  C           1     -21.514  -9.164   0.628  0.00  0.00     0.197 C 
HETATM   27  O           1     -21.705  -8.098   1.253  0.00  0.00    -0.646 OA
HETATM   28  O           1     -20.671  -9.989   1.042  0.00  0.00    -0.646 OA
ENDBRANCH  21  26
ENDBRANCH  18  21
ENDBRANCH   1  17
TORSDOF 8
ENDMDL
MODEL 9
REMARK VINA RESULT:      -6.5      4.252      6.456
REMARK  8 active torsions:
REMARK  status: ('A' for Active; 'I' for Inactive)
REMARK    1  A    between atoms: C_1  and  C_24 
REMARK    2  A    between atoms: C_1  and  C_2 
REMARK    3  A    between atoms: C_1  and  N_17 
REMARK    4  A    between atoms: C_5  and  C_13 
REMARK    5  A    between atoms: C_5  and  C_18 
REMARK    6  A    between atoms: N_6  and  C_13 
REMARK       I    between atoms: C_8  and  N_17 
REMARK    7  A    between atoms: C_8  and  C_13 
REMARK    8  A    between atoms: C_23  and  C_24 
ROOT
HETATM    1  C           1     -22.609  -8.582  -0.225  0.00  0.00     0.278 C 
ENDROOT
BRANCH   1   2
HETATM    2  C           1     -21.740  -7.353  -0.453  0.00  0.00     0.083 C 
BRANCH   2   3
HETATM    3  C           1     -21.604  -7.103  -1.923  0.00  0.00    -0.028 A 
HETATM    4  C           1     -20.755  -7.810  -2.819  0.00  0.00    -0.002 A 
HETATM    5  C           1     -20.940  -7.255  -4.085  0.00  0.00     0.042 A 
HETATM    6  C           1     -19.842  -8.873  -2.670  0.00  0.00     0.014 A 
HETATM    7  N           1     -21.870  -6.248  -3.953  0.00  0.00    -0.365 N 
HETATM    8  C           1     -20.255  -7.712  -5.218  0.00  0.00     0.030 A 
HETATM    9  C           1     -22.278  -6.148  -2.650  0.00  0.00     0.096 A 
HETATM   10  H           1     -22.216  -5.645  -4.739  0.00  0.00     0.165 HD
HETATM   11  C           1     -19.355  -8.769  -5.046  0.00  0.00     0.002 A 
HETATM   12  C           1     -19.149  -9.342  -3.793  0.00  0.00     0.001 A 
ENDBRANCH   2   3
ENDBRANCH   1   2
BRANCH   1  13
HETATM   13  N           1     -23.721  -8.239   0.721  0.00  0.00    -0.066 N 
HETATM   14  H           1     -24.106  -9.115   1.139  0.00  0.00     0.275 HD
HETATM   15  H           1     -23.352  -7.625   1.482  0.00  0.00     0.275 HD
HETATM   16  H           1     -24.477  -7.738   0.204  0.00  0.00     0.275 HD
ENDBRANCH   1  13
BRANCH   1  17
HETATM   17  C           1     -21.771  -9.689   0.365  0.00  0.00     0.249 C 
HETATM   18  N           1     -21.951 -10.981  -0.051  0.00  0.00    -0.344 N 
HETATM   19  H           1     -22.647 -11.193  -0.755  0.00  0.00     0.163 HD
HETATM   20  O           1     -20.941  -9.436   1.204  0.00  0.00    -0.271 OA
BRANCH  18  21
HETATM   21  C           1     -21.145 -12.045   0.517  0.00  0.00     0.189 C 
BRANCH  21  22
HETATM   22  C           1     -21.947 -13.340   0.525  0.00  0.00     0.014 C 
HETATM   23  C           1     -21.190 -14.400   1.314  0.00  0.00     0.012 C 
BRANCH  22  24
HETATM   24  C           1     -23.302 -13.094   1.177  0.00  0.00     0.002 C 
HETATM   25  C           1     -23.493 -14.065   2.334  0.00  0.00     0.005 C 
ENDBRANCH  22  24
ENDBRANCH  21  22
BRANCH  21  26
HETATM   26  C           1     -19.900 -12.230  -0.316  0.00  0.00     0.197 C 
HETATM   27  O           1     -19.996 -12.517  -1.529  0.00  0.00    -0.646 OA
HETATM   28  O           1     -18.773 -12.097   0.208  0.00  0.00    -0.646 OA
ENDBRANCH  21  26
ENDBRANCH  18  21
ENDBRANCH   1  17
TORSDOF 8
ENDMDL
