MODEL 1
REMARK VINA RESULT:      -5.8      0.000      0.000
REMARK  9 active torsions:
REMARK  status: ('A' for Active; 'I' for Inactive)
REMARK    1  A    between atoms: N_1  and  C_12 
REMARK       I    between atoms: N_1  and  C_2 
REMARK    2  A    between atoms: C_2  and  C_3 
REMARK    3  A    between atoms: C_3  and  C_4 
REMARK    4  A    between atoms: C_3  and  N_13 
REMARK    5  A    between atoms: C_4  and  C_16 
REMARK    6  A    between atoms: C_5  and  C_12 
REMARK    7  A    between atoms: S_7  and  C_19 
REMARK    8  A    between atoms: C_12  and  C_14 
REMARK    9  A    between atoms: C_14  and  C_19 
ROOT
HETATM    1  N           1     -35.135  -1.144 -12.317  0.00  0.00    -0.345 N 
HETATM    2  C           1     -34.510  -2.351 -12.487  0.00  0.00     0.249 C 
HETATM    3  O           1     -34.633  -2.954 -13.526  0.00  0.00    -0.271 OA
HETATM    4  H           1     -35.031  -0.639 -11.446  0.00  0.00     0.163 HD
ENDROOT
BRANCH   2   5
HETATM    5  C           1     -33.667  -2.927 -11.375  0.00  0.00     0.275 C 
BRANCH   5   6
HETATM    6  C           1     -34.463  -3.994 -10.635  0.00  0.00     0.046 C 
BRANCH   6   7
HETATM    7  C           1     -34.144  -5.364 -11.221  0.00  0.00    -0.020 C 
HETATM    8  C           1     -32.653  -5.454 -11.518  0.00  0.00     0.009 C 
HETATM    9  C           1     -34.527  -6.445 -10.219  0.00  0.00     0.009 C 
ENDBRANCH   6   7
ENDBRANCH   5   6
BRANCH   5  10
HETATM   10  N           1     -33.288  -1.835 -10.420  0.00  0.00    -0.066 N 
HETATM   11  H           1     -32.294  -1.556 -10.586  0.00  0.00     0.275 HD
HETATM   12  H           1     -33.910  -1.009 -10.570  0.00  0.00     0.275 HD
HETATM   13  H           1     -33.393  -2.177  -9.439  0.00  0.00     0.275 HD
ENDBRANCH   5  10
ENDBRANCH   2   5
BRANCH   1  14
HETATM   14  C           1     -35.944  -0.590 -13.385  0.00  0.00     0.186 C 
BRANCH  14  15
HETATM   15  C           1     -35.116   0.382 -14.190  0.00  0.00     0.196 C 
HETATM   16  O           1     -34.781   0.097 -15.360  0.00  0.00    -0.646 OA
HETATM   17  O           1     -34.767   1.470 -13.687  0.00  0.00    -0.646 OA
ENDBRANCH  14  15
BRANCH  14  18
HETATM   18  C           1     -37.143   0.135 -12.788  0.00  0.00     0.046 C 
BRANCH  18  19
HETATM   19  C           1     -37.663  -0.644 -11.588  0.00  0.00     0.076 C 
BRANCH  19  20
HETATM   20  S           1     -37.843   0.474 -10.171  0.00  0.00    -0.173 SA
HETATM   21  C           1     -36.692  -0.404  -9.076  0.00  0.00     0.089 C 
ENDBRANCH  19  20
ENDBRANCH  18  19
ENDBRANCH  14  18
ENDBRANCH   1  14
TORSDOF 9
ENDMDL
MODEL 2
REMARK VINA RESULT:      -5.7      2.596      3.488
REMARK  9 active torsions:
REMARK  status: ('A' for Active; 'I' for Inactive)
REMARK    1  A    between atoms: N_1  and  C_12 
REMARK       I    between atoms: N_1  and  C_2 
REMARK    2  A    between atoms: C_2  and  C_3 
REMARK    3  A    between atoms: C_3  and  C_4 
REMARK    4  A    between atoms: C_3  and  N_13 
REMARK    5  A    between atoms: C_4  and  C_16 
REMARK    6  A    between atoms: C_5  and  C_12 
REMARK    7  A    between atoms: S_7  and  C_19 
REMARK    8  A    between atoms: C_12  and  C_14 
REMARK    9  A    between atoms: C_14  and  C_19 
ROOT
HETATM    1  N           1     -35.358  -1.905 -12.137  0.00  0.00    -0.345 N 
HETATM    2  C           1     -34.237  -2.393 -11.519  0.00  0.00     0.249 C 
HETATM    3  O           1     -33.577  -1.673 -10.811  0.00  0.00    -0.271 OA
HETATM    4  H           1     -35.912  -2.509 -12.731  0.00  0.00     0.163 HD
ENDROOT
BRANCH   2   5
HETATM    5  C           1     -33.830  -3.832 -11.723  0.00  0.00     0.275 C 
BRANCH   5   6
HETATM    6  C           1     -34.197  -4.644 -10.488  0.00  0.00     0.046 C 
BRANCH   6   7
HETATM    7  C           1     -34.266  -6.122 -10.854  0.00  0.00    -0.020 C 
HETATM    8  C           1     -34.873  -6.903  -9.696  0.00  0.00     0.009 C 
HETATM    9  C           1     -35.132  -6.297 -12.093  0.00  0.00     0.009 C 
ENDBRANCH   6   7
ENDBRANCH   5   6
BRANCH   5  10
HETATM   10  N           1     -32.349  -3.904 -11.946  0.00  0.00    -0.066 N 
HETATM   11  H           1     -32.008  -4.865 -11.717  0.00  0.00     0.275 HD
HETATM   12  H           1     -32.136  -3.689 -12.947  0.00  0.00     0.275 HD
HETATM   13  H           1     -31.870  -3.209 -11.332  0.00  0.00     0.275 HD
ENDBRANCH   5  10
ENDBRANCH   2   5
BRANCH   1  14
HETATM   14  C           1     -35.750  -0.523 -11.941  0.00  0.00     0.186 C 
BRANCH  14  15
HETATM   15  C           1     -36.745  -0.439 -10.809  0.00  0.00     0.196 C 
HETATM   16  O           1     -36.469   0.218  -9.782  0.00  0.00    -0.646 OA
HETATM   17  O           1     -37.844  -1.026 -10.899  0.00  0.00    -0.646 OA
ENDBRANCH  14  15
BRANCH  14  18
HETATM   18  C           1     -36.387   0.009 -13.218  0.00  0.00     0.046 C 
BRANCH  18  19
HETATM   19  C           1     -35.302   0.284 -14.251  0.00  0.00     0.076 C 
BRANCH  19  20
HETATM   20  S           1     -35.725  -0.546 -15.808  0.00  0.00    -0.173 SA
HETATM   21  C           1     -37.504  -0.193 -15.746  0.00  0.00     0.089 C 
ENDBRANCH  19  20
ENDBRANCH  18  19
ENDBRANCH  14  18
ENDBRANCH   1  14
TORSDOF 9
ENDMDL
MODEL 3
REMARK VINA RESULT:      -5.7     11.153     13.010
REMARK  9 active torsions:
REMARK  status: ('A' for Active; 'I' for Inactive)
REMARK    1  A    between atoms: N_1  and  C_12 
REMARK       I    between atoms: N_1  and  C_2 
REMARK    2  A    between atoms: C_2  and  C_3 
REMARK    3  A    between atoms: C_3  and  C_4 
REMARK    4  A    between atoms: C_3  and  N_13 
REMARK    5  A    between atoms: C_4  and  C_16 
REMARK    6  A    between atoms: C_5  and  C_12 
REMARK    7  A    between atoms: S_7  and  C_19 
REMARK    8  A    between atoms: C_12  and  C_14 
REMARK    9  A    between atoms: C_14  and  C_19 
ROOT
HETATM    1  N           1     -26.502  -6.724 -18.170  0.00  0.00    -0.345 N 
HETATM    2  C           1     -25.370  -6.918 -18.916  0.00  0.00     0.249 C 
HETATM    3  O           1     -24.314  -6.473 -18.536  0.00  0.00    -0.271 OA
HETATM    4  H           1     -27.388  -7.097 -18.488  0.00  0.00     0.163 HD
ENDROOT
BRANCH   2   5
HETATM    5  C           1     -25.443  -7.688 -20.212  0.00  0.00     0.275 C 
BRANCH   5   6
HETATM    6  C           1     -24.339  -7.214 -21.147  0.00  0.00     0.046 C 
BRANCH   6   7
HETATM    7  C           1     -23.372  -8.360 -21.415  0.00  0.00    -0.020 C 
HETATM    8  C           1     -23.024  -8.397 -22.898  0.00  0.00     0.009 C 
HETATM    9  C           1     -22.101  -8.152 -20.602  0.00  0.00     0.009 C 
ENDBRANCH   6   7
ENDBRANCH   5   6
BRANCH   5  10
HETATM   10  N           1     -26.777  -7.456 -20.856  0.00  0.00    -0.066 N 
HETATM   11  H           1     -27.194  -8.373 -21.135  0.00  0.00     0.275 HD
HETATM   12  H           1     -27.412  -6.978 -20.178  0.00  0.00     0.275 HD
HETATM   13  H           1     -26.656  -6.856 -21.702  0.00  0.00     0.275 HD
ENDBRANCH   5  10
ENDBRANCH   2   5
BRANCH   1  14
HETATM   14  C           1     -26.433  -5.985 -16.925  0.00  0.00     0.186 C 
BRANCH  14  15
HETATM   15  C           1     -26.392  -6.953 -15.768  0.00  0.00     0.196 C 
HETATM   16  O           1     -25.295  -7.277 -15.263  0.00  0.00    -0.646 OA
HETATM   17  O           1     -27.454  -7.429 -15.314  0.00  0.00    -0.646 OA
ENDBRANCH  14  15
BRANCH  14  18
HETATM   18  C           1     -27.660  -5.091 -16.797  0.00  0.00     0.046 C 
BRANCH  18  19
HETATM   19  C           1     -28.590  -5.334 -17.978  0.00  0.00     0.076 C 
BRANCH  19  20
HETATM   20  S           1     -30.204  -5.902 -17.371  0.00  0.00    -0.173 SA
HETATM   21  C           1     -30.040  -7.616 -17.944  0.00  0.00     0.089 C 
ENDBRANCH  19  20
ENDBRANCH  18  19
ENDBRANCH  14  18
ENDBRANCH   1  14
TORSDOF 9
ENDMDL
MODEL 4
REMARK VINA RESULT:      -5.3      9.972     11.588
REMARK  9 active torsions:
REMARK  status: ('A' for Active; 'I' for Inactive)
REMARK    1  A    between atoms: N_1  and  C_12 
REMARK       I    between atoms: N_1  and  C_2 
REMARK    2  A    between atoms: C_2  and  C_3 
REMARK    3  A    between atoms: C_3  and  C_4 
REMARK    4  A    between atoms: C_3  and  N_13 
REMARK    5  A    between atoms: C_4  and  C_16 
REMARK    6  A    between atoms: C_5  and  C_12 
REMARK    7  A    between atoms: S_7  and  C_19 
REMARK    8  A    between atoms: C_12  and  C_14 
REMARK    9  A    between atoms: C_14  and  C_19 
ROOT
HETATM    1  N           1     -27.536  -6.478 -18.638  0.00  0.00    -0.345 N 
HETATM    2  C           1     -26.296  -6.269 -18.095  0.00  0.00     0.249 C 
HETATM    3  O           1     -26.192  -5.923 -16.944  0.00  0.00    -0.271 OA
HETATM    4  H           1     -27.623  -6.769 -19.603  0.00  0.00     0.163 HD
ENDROOT
BRANCH   2   5
HETATM    5  C           1     -25.060  -6.473 -18.938  0.00  0.00     0.275 C 
BRANCH   5   6
HETATM    6  C           1     -25.451  -6.520 -20.409  0.00  0.00     0.046 C 
BRANCH   6   7
HETATM    7  C           1     -25.240  -7.930 -20.947  0.00  0.00    -0.020 C 
HETATM    8  C           1     -26.576  -8.508 -21.396  0.00  0.00     0.009 C 
HETATM    9  C           1     -24.284  -7.883 -22.131  0.00  0.00     0.009 C 
ENDBRANCH   6   7
ENDBRANCH   5   6
BRANCH   5  10
HETATM   10  N           1     -24.403  -7.766 -18.554  0.00  0.00    -0.066 N 
HETATM   11  H           1     -24.736  -8.527 -19.188  0.00  0.00     0.275 HD
HETATM   12  H           1     -23.367  -7.668 -18.642  0.00  0.00     0.275 HD
HETATM   13  H           1     -24.649  -8.002 -17.567  0.00  0.00     0.275 HD
ENDBRANCH   5  10
ENDBRANCH   2   5
BRANCH   1  14
HETATM   14  C           1     -28.724  -6.283 -17.830  0.00  0.00     0.186 C 
BRANCH  14  15
HETATM   15  C           1     -29.568  -7.534 -17.868  0.00  0.00     0.196 C 
HETATM   16  O           1     -29.404  -8.424 -17.006  0.00  0.00    -0.646 OA
HETATM   17  O           1     -30.431  -7.678 -18.759  0.00  0.00    -0.646 OA
ENDBRANCH  14  15
BRANCH  14  18
HETATM   18  C           1     -29.526  -5.112 -18.381  0.00  0.00     0.046 C 
BRANCH  18  19
HETATM   19  C           1     -29.985  -4.225 -17.231  0.00  0.00     0.076 C 
BRANCH  19  20
HETATM   20  S           1     -31.613  -4.780 -16.651  0.00  0.00    -0.173 SA
HETATM   21  C           1     -32.575  -3.498 -17.502  0.00  0.00     0.089 C 
ENDBRANCH  19  20
ENDBRANCH  18  19
ENDBRANCH  14  18
ENDBRANCH   1  14
TORSDOF 9
ENDMDL
MODEL 5
REMARK VINA RESULT:      -5.2     14.647     16.605
REMARK  9 active torsions:
REMARK  status: ('A' for Active; 'I' for Inactive)
REMARK    1  A    between atoms: N_1  and  C_12 
REMARK       I    between atoms: N_1  and  C_2 
REMARK    2  A    between atoms: C_2  and  C_3 
REMARK    3  A    between atoms: C_3  and  C_4 
REMARK    4  A    between atoms: C_3  and  N_13 
REMARK    5  A    between atoms: C_4  and  C_16 
REMARK    6  A    between atoms: C_5  and  C_12 
REMARK    7  A    between atoms: S_7  and  C_19 
REMARK    8  A    between atoms: C_12  and  C_14 
REMARK    9  A    between atoms: C_14  and  C_19 
ROOT
HETATM    1  N           1     -21.568  -5.893  -5.987  0.00  0.00    -0.345 N 
HETATM    2  C           1     -20.812  -4.984  -6.677  0.00  0.00     0.249 C 
HETATM    3  O           1     -19.686  -4.739  -6.318  0.00  0.00    -0.271 OA
HETATM    4  H           1     -22.512  -6.099  -6.289  0.00  0.00     0.163 HD
ENDROOT
BRANCH   2   5
HETATM    5  C           1     -21.387  -4.289  -7.888  0.00  0.00     0.275 C 
BRANCH   5   6
HETATM    6  C           1     -20.309  -4.155  -8.956  0.00  0.00     0.046 C 
BRANCH   6   7
HETATM    7  C           1     -20.922  -4.398 -10.330  0.00  0.00    -0.020 C 
HETATM    8  C           1     -22.422  -4.623 -10.184  0.00  0.00     0.009 C 
HETATM    9  C           1     -20.675  -3.185 -11.216  0.00  0.00     0.009 C 
ENDBRANCH   6   7
ENDBRANCH   5   6
BRANCH   5  10
HETATM   10  N           1     -21.873  -2.925  -7.496  0.00  0.00    -0.066 N 
HETATM   11  H           1     -22.071  -2.365  -8.356  0.00  0.00     0.275 HD
HETATM   12  H           1     -22.748  -3.017  -6.932  0.00  0.00     0.275 HD
HETATM   13  H           1     -21.141  -2.444  -6.928  0.00  0.00     0.275 HD
ENDBRANCH   5  10
ENDBRANCH   2   5
BRANCH   1  14
HETATM   14  C           1     -21.017  -6.562  -4.825  0.00  0.00     0.186 C 
BRANCH  14  15
HETATM   15  C           1     -20.507  -7.925  -5.225  0.00  0.00     0.196 C 
HETATM   16  O           1     -21.173  -8.637  -6.007  0.00  0.00    -0.646 OA
HETATM   17  O           1     -19.419  -8.341  -4.774  0.00  0.00    -0.646 OA
ENDBRANCH  14  15
BRANCH  14  18
HETATM   18  C           1     -22.101  -6.715  -3.766  0.00  0.00     0.046 C 
BRANCH  18  19
HETATM   19  C           1     -21.537  -6.339  -2.403  0.00  0.00     0.076 C 
BRANCH  19  20
HETATM   20  S           1     -21.219  -7.846  -1.442  0.00  0.00    -0.173 SA
HETATM   21  C           1     -22.525  -7.575  -0.211  0.00  0.00     0.089 C 
ENDBRANCH  19  20
ENDBRANCH  18  19
ENDBRANCH  14  18
ENDBRANCH   1  14
TORSDOF 9
ENDMDL
MODEL 6
REMARK VINA RESULT:      -5.1     14.474     16.469
REMARK  9 active torsions:
REMARK  status: ('A' for Active; 'I' for Inactive)
REMARK    1  A    between atoms: N_1  and  C_12 
REMARK       I    between atoms: N_1  and  C_2 
REMARK    2  A    between atoms: C_2  and  C_3 
REMARK    3  A    between atoms: C_3  and  C_4 
REMARK    4  A    between atoms: C_3  and  N_13 
REMARK    5  A    between atoms: C_4  and  C_16 
REMARK    6  A    between atoms: C_5  and  C_12 
REMARK    7  A    between atoms: S_7  and  C_19 
REMARK    8  A    between atoms: C_12  and  C_14 
REMARK    9  A    between atoms: C_14  and  C_19 
ROOT
HETATM    1  N           1     -21.097  -5.517  -5.007  0.00  0.00    -0.345 N 
HETATM    2  C           1     -21.488  -6.633  -4.315  0.00  0.00     0.249 C 
HETATM    3  O           1     -21.913  -7.593  -4.909  0.00  0.00    -0.271 OA
HETATM    4  H           1     -20.740  -4.712  -4.509  0.00  0.00     0.163 HD
ENDROOT
BRANCH   2   5
HETATM    5  C           1     -21.386  -6.660  -2.809  0.00  0.00     0.275 C 
BRANCH   5   6
HETATM    6  C           1     -21.668  -8.070  -2.306  0.00  0.00     0.046 C 
BRANCH   6   7
HETATM    7  C           1     -20.563  -8.499  -1.349  0.00  0.00    -0.020 C 
HETATM    8  C           1     -21.165  -8.810   0.015  0.00  0.00     0.009 C 
HETATM    9  C           1     -19.876  -9.743  -1.895  0.00  0.00     0.009 C 
ENDBRANCH   6   7
ENDBRANCH   5   6
BRANCH   5  10
HETATM   10  N           1     -22.388  -5.710  -2.224  0.00  0.00    -0.066 N 
HETATM   11  H           1     -21.933  -4.785  -2.051  0.00  0.00     0.275 HD
HETATM   12  H           1     -23.182  -5.588  -2.891  0.00  0.00     0.275 HD
HETATM   13  H           1     -22.747  -6.095  -1.322  0.00  0.00     0.275 HD
ENDBRANCH   5  10
ENDBRANCH   2   5
BRANCH   1  14
HETATM   14  C           1     -21.194  -5.490  -6.453  0.00  0.00     0.186 C 
BRANCH  14  15
HETATM   15  C           1     -19.828  -5.721  -7.052  0.00  0.00     0.196 C 
HETATM   16  O           1     -19.345  -6.874  -7.081  0.00  0.00    -0.646 OA
HETATM   17  O           1     -19.182  -4.761  -7.521  0.00  0.00    -0.646 OA
ENDBRANCH  14  15
BRANCH  14  18
HETATM   18  C           1     -21.723  -4.134  -6.901  0.00  0.00     0.046 C 
BRANCH  18  19
HETATM   19  C           1     -22.867  -4.335  -7.885  0.00  0.00     0.076 C 
BRANCH  19  20
HETATM   20  S           1     -22.297  -3.947  -9.564  0.00  0.00    -0.173 SA
HETATM   21  C           1     -23.620  -4.835 -10.433  0.00  0.00     0.089 C 
ENDBRANCH  19  20
ENDBRANCH  18  19
ENDBRANCH  14  18
ENDBRANCH   1  14
TORSDOF 9
ENDMDL
MODEL 7
REMARK VINA RESULT:      -5.0     16.780     18.229
REMARK  9 active torsions:
REMARK  status: ('A' for Active; 'I' for Inactive)
REMARK    1  A    between atoms: N_1  and  C_12 
REMARK       I    between atoms: N_1  and  C_2 
REMARK    2  A    between atoms: C_2  and  C_3 
REMARK    3  A    between atoms: C_3  and  C_4 
REMARK    4  A    between atoms: C_3  and  N_13 
REMARK    5  A    between atoms: C_4  and  C_16 
REMARK    6  A    between atoms: C_5  and  C_12 
REMARK    7  A    between atoms: S_7  and  C_19 
REMARK    8  A    between atoms: C_12  and  C_14 
REMARK    9  A    between atoms: C_14  and  C_19 
ROOT
HETATM    1  N           1     -20.987  -8.844  -3.392  0.00  0.00    -0.345 N 
HETATM    2  C           1     -21.771  -9.802  -2.806  0.00  0.00     0.249 C 
HETATM    3  O           1     -22.242 -10.689  -3.475  0.00  0.00    -0.271 OA
HETATM    4  H           1     -20.592  -8.100  -2.831  0.00  0.00     0.163 HD
ENDROOT
BRANCH   2   5
HETATM    5  C           1     -22.044  -9.748  -1.322  0.00  0.00     0.275 C 
BRANCH   5   6
HETATM    6  C           1     -21.137  -8.709  -0.676  0.00  0.00     0.046 C 
BRANCH   6   7
HETATM    7  C           1     -21.988  -7.609  -0.054  0.00  0.00    -0.020 C 
HETATM    8  C           1     -22.359  -6.588  -1.122  0.00  0.00     0.009 C 
HETATM    9  C           1     -23.257  -8.218   0.527  0.00  0.00     0.009 C 
ENDBRANCH   6   7
ENDBRANCH   5   6
BRANCH   5  10
HETATM   10  N           1     -21.774 -11.093  -0.717  0.00  0.00    -0.066 N 
HETATM   11  H           1     -22.127 -11.110   0.267  0.00  0.00     0.275 HD
HETATM   12  H           1     -22.261 -11.830  -1.274  0.00  0.00     0.275 HD
HETATM   13  H           1     -20.746 -11.277  -0.720  0.00  0.00     0.275 HD
ENDBRANCH   5  10
ENDBRANCH   2   5
BRANCH   1  14
HETATM   14  C           1     -20.724  -8.894  -4.817  0.00  0.00     0.186 C 
BRANCH  14  15
HETATM   15  C           1     -19.233  -8.905  -5.051  0.00  0.00     0.196 C 
HETATM   16  O           1     -18.452  -9.122  -4.100  0.00  0.00    -0.646 OA
HETATM   17  O           1     -18.779  -8.699  -6.197  0.00  0.00    -0.646 OA
ENDBRANCH  14  15
BRANCH  14  18
HETATM   18  C           1     -21.335  -7.673  -5.489  0.00  0.00     0.046 C 
BRANCH  18  19
HETATM   19  C           1     -21.087  -6.441  -4.629  0.00  0.00     0.076 C 
BRANCH  19  20
HETATM   20  S           1     -20.417  -5.107  -5.661  0.00  0.00    -0.173 SA
HETATM   21  C           1     -20.810  -5.873  -7.258  0.00  0.00     0.089 C 
ENDBRANCH  19  20
ENDBRANCH  18  19
ENDBRANCH  14  18
ENDBRANCH   1  14
TORSDOF 9
ENDMDL
MODEL 8
REMARK VINA RESULT:      -4.9     14.489     17.012
REMARK  9 active torsions:
REMARK  status: ('A' for Active; 'I' for Inactive)
REMARK    1  A    between atoms: N_1  and  C_12 
REMARK       I    between atoms: N_1  and  C_2 
REMARK    2  A    between atoms: C_2  and  C_3 
REMARK    3  A    between atoms: C_3  and  C_4 
REMARK    4  A    between atoms: C_3  and  N_13 
REMARK    5  A    between atoms: C_4  and  C_16 
REMARK    6  A    between atoms: C_5  and  C_12 
REMARK    7  A    between atoms: S_7  and  C_19 
REMARK    8  A    between atoms: C_12  and  C_14 
REMARK    9  A    between atoms: C_14  and  C_19 
ROOT
HETATM    1  N           1     -20.959  -6.547  -4.721  0.00  0.00    -0.345 N 
HETATM    2  C           1     -21.718  -5.777  -5.561  0.00  0.00     0.249 C 
HETATM    3  O           1     -22.921  -5.880  -5.552  0.00  0.00    -0.271 OA
HETATM    4  H           1     -19.951  -6.460  -4.729  0.00  0.00     0.163 HD
ENDROOT
BRANCH   2   5
HETATM    5  C           1     -21.051  -4.801  -6.499  0.00  0.00     0.275 C 
BRANCH   5   6
HETATM    6  C           1     -21.181  -5.303  -7.931  0.00  0.00     0.046 C 
BRANCH   6   7
HETATM    7  C           1     -21.434  -4.123  -8.862  0.00  0.00    -0.020 C 
HETATM    8  C           1     -20.586  -4.275 -10.118  0.00  0.00     0.009 C 
HETATM    9  C           1     -22.907  -4.089  -9.246  0.00  0.00     0.009 C 
ENDBRANCH   6   7
ENDBRANCH   5   6
BRANCH   5  10
HETATM   10  N           1     -19.600  -4.678  -6.142  0.00  0.00    -0.066 N 
HETATM   11  H           1     -19.020  -5.147  -6.874  0.00  0.00     0.275 HD
HETATM   12  H           1     -19.339  -3.668  -6.086  0.00  0.00     0.275 HD
HETATM   13  H           1     -19.429  -5.133  -5.217  0.00  0.00     0.275 HD
ENDBRANCH   5  10
ENDBRANCH   2   5
BRANCH   1  14
HETATM   14  C           1     -21.599  -7.485  -3.820  0.00  0.00     0.186 C 
BRANCH  14  15
HETATM   15  C           1     -21.632  -6.902  -2.428  0.00  0.00     0.196 C 
HETATM   16  O           1     -22.354  -5.911  -2.183  0.00  0.00    -0.646 OA
HETATM   17  O           1     -20.938  -7.409  -1.521  0.00  0.00    -0.646 OA
ENDBRANCH  14  15
BRANCH  14  18
HETATM   18  C           1     -20.814  -8.790  -3.805  0.00  0.00     0.046 C 
BRANCH  18  19
HETATM   19  C           1     -21.763  -9.956  -4.052  0.00  0.00     0.076 C 
BRANCH  19  20
HETATM   20  S           1     -20.806 -11.430  -4.505  0.00  0.00    -0.173 SA
HETATM   21  C           1     -21.321 -11.475  -6.245  0.00  0.00     0.089 C 
ENDBRANCH  19  20
ENDBRANCH  18  19
ENDBRANCH  14  18
ENDBRANCH   1  14
TORSDOF 9
ENDMDL
MODEL 9
REMARK VINA RESULT:      -4.9     10.628     12.357
REMARK  9 active torsions:
REMARK  status: ('A' for Active; 'I' for Inactive)
REMARK    1  A    between atoms: N_1  and  C_12 
REMARK       I    between atoms: N_1  and  C_2 
REMARK    2  A    between atoms: C_2  and  C_3 
REMARK    3  A    between atoms: C_3  and  C_4 
REMARK    4  A    between atoms: C_3  and  N_13 
REMARK    5  A    between atoms: C_4  and  C_16 
REMARK    6  A    between atoms: C_5  and  C_12 
REMARK    7  A    between atoms: S_7  and  C_19 
REMARK    8  A    between atoms: C_12  and  C_14 
REMARK    9  A    between atoms: C_14  and  C_19 
ROOT
HETATM    1  N           1     -26.461  -6.662 -17.870  0.00  0.00    -0.345 N 
HETATM    2  C           1     -26.262  -6.574 -19.222  0.00  0.00     0.249 C 
HETATM    3  O           1     -27.139  -6.150 -19.935  0.00  0.00    -0.271 OA
HETATM    4  H           1     -25.725  -7.017 -17.273  0.00  0.00     0.163 HD
ENDROOT
BRANCH   2   5
HETATM    5  C           1     -24.946  -7.008 -19.821  0.00  0.00     0.275 C 
BRANCH   5   6
HETATM    6  C           1     -25.188  -8.132 -20.820  0.00  0.00     0.046 C 
BRANCH   6   7
HETATM    7  C           1     -24.376  -7.872 -22.084  0.00  0.00    -0.020 C 
HETATM    8  C           1     -24.308  -6.372 -22.344  0.00  0.00     0.009 C 
HETATM    9  C           1     -22.967  -8.419 -21.901  0.00  0.00     0.009 C 
ENDBRANCH   6   7
ENDBRANCH   5   6
BRANCH   5  10
HETATM   10  N           1     -24.039  -7.497 -18.731  0.00  0.00    -0.066 N 
HETATM   11  H           1     -24.612  -7.901 -17.955  0.00  0.00     0.275 HD
HETATM   12  H           1     -23.402  -8.232 -19.111  0.00  0.00     0.275 HD
HETATM   13  H           1     -23.472  -6.699 -18.365  0.00  0.00     0.275 HD
ENDBRANCH   5  10
ENDBRANCH   2   5
BRANCH   1  14
HETATM   14  C           1     -27.724  -6.245 -17.294  0.00  0.00     0.186 C 
BRANCH  14  15
HETATM   15  C           1     -27.739  -6.577 -15.822  0.00  0.00     0.196 C 
HETATM   16  O           1     -28.601  -6.065 -15.075  0.00  0.00    -0.646 OA
HETATM   17  O           1     -26.892  -7.365 -15.351  0.00  0.00    -0.646 OA
ENDBRANCH  14  15
BRANCH  14  18
HETATM   18  C           1     -28.865  -6.974 -17.992  0.00  0.00     0.046 C 
BRANCH  18  19
HETATM   19  C           1     -30.090  -6.071 -18.040  0.00  0.00     0.076 C 
BRANCH  19  20
HETATM   20  S           1     -29.563  -4.337 -18.126  0.00  0.00    -0.173 SA
HETATM   21  C           1     -31.120  -3.625 -17.524  0.00  0.00     0.089 C 
ENDBRANCH  19  20
ENDBRANCH  18  19
ENDBRANCH  14  18
ENDBRANCH   1  14
TORSDOF 9
ENDMDL
