MODEL 1
REMARK VINA RESULT:      -6.8      0.000      0.000
REMARK  9 active torsions:
REMARK  status: ('A' for Active; 'I' for Inactive)
REMARK       I    between atoms: C_1  and  N_7 
REMARK    1  A    between atoms: C_1  and  C_12 
REMARK    2  A    between atoms: C_2  and  C_24 
REMARK    3  A    between atoms: N_7  and  C_24 
REMARK    4  A    between atoms: C_8  and  Se_9 
REMARK    5  A    between atoms: C_8  and  C_17 
REMARK    6  A    between atoms: C_12  and  C_13 
REMARK    7  A    between atoms: C_12  and  N_23 
REMARK    8  A    between atoms: C_13  and  C_14 
REMARK    9  A    between atoms: C_17  and  C_24 
ROOT
HETATM    1  C           1     -33.777  -4.502 -15.418  0.00  0.00     0.249 C 
HETATM    2  O           1     -34.907  -4.927 -15.480  0.00  0.00    -0.271 OA
HETATM    3  N           1     -33.288  -4.030 -14.230  0.00  0.00    -0.345 N 
HETATM    4  H           1     -32.342  -3.674 -14.178  0.00  0.00     0.163 HD
ENDROOT
BRANCH   1   5
HETATM    5  C           1     -32.906  -4.491 -16.651  0.00  0.00     0.278 C 
BRANCH   5   6
HETATM    6  C           1     -31.441  -4.464 -16.238  0.00  0.00     0.081 C 
BRANCH   6   7
HETATM    7  C           1     -30.653  -5.377 -17.126  0.00  0.00    -0.056 A 
HETATM    8  C           1     -29.478  -4.924 -17.724  0.00  0.00     0.007 A 
HETATM    9  C           1     -28.744  -5.775 -18.550  0.00  0.00     0.001 A 
HETATM   10  C           1     -29.186  -7.078 -18.778  0.00  0.00     0.000 A 
HETATM   11  C           1     -30.361  -7.531 -18.179  0.00  0.00     0.001 A 
HETATM   12  C           1     -31.095  -6.680 -17.353  0.00  0.00     0.007 A 
ENDBRANCH   6   7
ENDBRANCH   5   6
BRANCH   5  13
HETATM   13  N           1     -33.217  -3.275 -17.471  0.00  0.00    -0.066 N 
HETATM   14  H           1     -34.004  -2.748 -17.029  0.00  0.00     0.275 HD
HETATM   15  H           1     -33.492  -3.567 -18.436  0.00  0.00     0.275 HD
HETATM   16  H           1     -32.372  -2.662 -17.520  0.00  0.00     0.275 HD
ENDBRANCH   5  13
ENDBRANCH   1   5
BRANCH   3  17
HETATM   17  C           1     -34.124  -4.040 -13.045  0.00  0.00     0.185 C 
BRANCH  17  18
HETATM   18  C           1     -34.899  -2.748 -12.966  0.00  0.00     0.196 C 
HETATM   19  O           1     -35.654  -2.531 -11.993  0.00  0.00    -0.646 OA
HETATM   20  O           1     -34.786  -1.895 -13.872  0.00  0.00    -0.646 OA
ENDBRANCH  17  18
BRANCH  17  21
HETATM   21  C           1     -33.249  -4.183 -11.807  0.00  0.00     0.036 C 
BRANCH  21  22
HETATM   22  C           1     -33.276  -5.629 -11.329  0.00  0.00     0.003 C 
BRANCH  22  23
HETATM   23 Se           1     -34.832  -5.909 -10.189  0.00  0.00     0.000 Se
HETATM   24  C           1     -34.645  -7.848 -10.131  0.00  0.00     0.000 C 
ENDBRANCH  22  23
ENDBRANCH  21  22
ENDBRANCH  17  21
ENDBRANCH   3  17
TORSDOF 9
ENDMDL
MODEL 2
REMARK VINA RESULT:      -6.7     14.139     15.037
REMARK  9 active torsions:
REMARK  status: ('A' for Active; 'I' for Inactive)
REMARK       I    between atoms: C_1  and  N_7 
REMARK    1  A    between atoms: C_1  and  C_12 
REMARK    2  A    between atoms: C_2  and  C_24 
REMARK    3  A    between atoms: N_7  and  C_24 
REMARK    4  A    between atoms: C_8  and  Se_9 
REMARK    5  A    between atoms: C_8  and  C_17 
REMARK    6  A    between atoms: C_12  and  C_13 
REMARK    7  A    between atoms: C_12  and  N_23 
REMARK    8  A    between atoms: C_13  and  C_14 
REMARK    9  A    between atoms: C_17  and  C_24 
ROOT
HETATM    1  C           1     -21.430  -5.763  -5.725  0.00  0.00     0.249 C 
HETATM    2  O           1     -20.629  -5.030  -5.194  0.00  0.00    -0.271 OA
HETATM    3  N           1     -21.524  -7.072  -5.335  0.00  0.00    -0.345 N 
HETATM    4  H           1     -22.195  -7.685  -5.780  0.00  0.00     0.163 HD
ENDROOT
BRANCH   1   5
HETATM    5  C           1     -22.326  -5.235  -6.818  0.00  0.00     0.278 C 
BRANCH   5   6
HETATM    6  C           1     -21.716  -3.971  -7.410  0.00  0.00     0.081 C 
BRANCH   6   7
HETATM    7  C           1     -21.668  -4.091  -8.902  0.00  0.00    -0.056 A 
HETATM    8  C           1     -20.441  -4.059  -9.565  0.00  0.00     0.007 A 
HETATM    9  C           1     -20.396  -4.171 -10.954  0.00  0.00     0.001 A 
HETATM   10  C           1     -21.578  -4.314 -11.681  0.00  0.00     0.000 A 
HETATM   11  C           1     -22.805  -4.347 -11.017  0.00  0.00     0.001 A 
HETATM   12  C           1     -22.850  -4.235  -9.628  0.00  0.00     0.007 A 
ENDBRANCH   6   7
ENDBRANCH   5   6
BRANCH   5  13
HETATM   13  N           1     -23.675  -4.917  -6.247  0.00  0.00    -0.066 N 
HETATM   14  H           1     -23.956  -3.952  -6.532  0.00  0.00     0.275 HD
HETATM   15  H           1     -23.635  -4.974  -5.204  0.00  0.00     0.275 HD
HETATM   16  H           1     -24.378  -5.603  -6.606  0.00  0.00     0.275 HD
ENDBRANCH   5  13
ENDBRANCH   1   5
BRANCH   3  17
HETATM   17  C           1     -20.663  -7.580  -4.285  0.00  0.00     0.185 C 
BRANCH  17  18
HETATM   18  C           1     -19.851  -8.736  -4.815  0.00  0.00     0.196 C 
HETATM   19  O           1     -20.310  -9.452  -5.732  0.00  0.00    -0.646 OA
HETATM   20  O           1     -18.721  -8.977  -4.340  0.00  0.00    -0.646 OA
ENDBRANCH  17  18
BRANCH  17  21
HETATM   21  C           1     -21.515  -8.054  -3.114  0.00  0.00     0.036 C 
BRANCH  21  22
HETATM   22  C           1     -20.952  -7.493  -1.815  0.00  0.00     0.003 C 
BRANCH  22  23
HETATM   23 Se           1     -22.378  -7.353  -0.494  0.00  0.00     0.000 Se
HETATM   24  C           1     -21.494  -8.487   0.821  0.00  0.00     0.000 C 
ENDBRANCH  22  23
ENDBRANCH  21  22
ENDBRANCH  17  21
ENDBRANCH   3  17
TORSDOF 9
ENDMDL
MODEL 3
REMARK VINA RESULT:      -6.6     14.165     15.101
REMARK  9 active torsions:
REMARK  status: ('A' for Active; 'I' for Inactive)
REMARK       I    between atoms: C_1  and  N_7 
REMARK    1  A    between atoms: C_1  and  C_12 
REMARK    2  A    between atoms: C_2  and  C_24 
REMARK    3  A    between atoms: N_7  and  C_24 
REMARK    4  A    between atoms: C_8  and  Se_9 
REMARK    5  A    between atoms: C_8  and  C_17 
REMARK    6  A    between atoms: C_12  and  C_13 
REMARK    7  A    between atoms: C_12  and  N_23 
REMARK    8  A    between atoms: C_13  and  C_14 
REMARK    9  A    between atoms: C_17  and  C_24 
ROOT
HETATM    1  C           1     -21.409  -5.815  -5.701  0.00  0.00     0.249 C 
HETATM    2  O           1     -20.709  -5.067  -5.061  0.00  0.00    -0.271 OA
HETATM    3  N           1     -21.398  -7.158  -5.436  0.00  0.00    -0.345 N 
HETATM    4  H           1     -21.985  -7.784  -5.971  0.00  0.00     0.163 HD
ENDROOT
BRANCH   1   5
HETATM    5  C           1     -22.297  -5.269  -6.792  0.00  0.00     0.278 C 
BRANCH   5   6
HETATM    6  C           1     -21.673  -4.005  -7.370  0.00  0.00     0.081 C 
BRANCH   6   7
HETATM    7  C           1     -21.644  -4.100  -8.864  0.00  0.00    -0.056 A 
HETATM    8  C           1     -22.834  -4.251  -9.576  0.00  0.00     0.007 A 
HETATM    9  C           1     -22.808  -4.338 -10.967  0.00  0.00     0.001 A 
HETATM   10  C           1     -21.591  -4.275 -11.647  0.00  0.00     0.000 A 
HETATM   11  C           1     -20.401  -4.123 -10.935  0.00  0.00     0.001 A 
HETATM   12  C           1     -20.428  -4.036  -9.544  0.00  0.00     0.007 A 
ENDBRANCH   6   7
ENDBRANCH   5   6
BRANCH   5  13
HETATM   13  N           1     -23.645  -4.945  -6.223  0.00  0.00    -0.066 N 
HETATM   14  H           1     -23.793  -5.489  -5.343  0.00  0.00     0.275 HD
HETATM   15  H           1     -24.386  -5.197  -6.917  0.00  0.00     0.275 HD
HETATM   16  H           1     -23.699  -3.922  -6.013  0.00  0.00     0.275 HD
ENDBRANCH   5  13
ENDBRANCH   1   5
BRANCH   3  17
HETATM   17  C           1     -20.545  -7.684  -4.386  0.00  0.00     0.185 C 
BRANCH  17  18
HETATM   18  C           1     -19.770  -8.865  -4.914  0.00  0.00     0.196 C 
HETATM   19  O           1     -19.055  -8.739  -5.932  0.00  0.00    -0.646 OA
HETATM   20  O           1     -19.842  -9.969  -4.333  0.00  0.00    -0.646 OA
ENDBRANCH  17  18
BRANCH  17  21
HETATM   21  C           1     -21.404  -8.126  -3.208  0.00  0.00     0.036 C 
BRANCH  21  22
HETATM   22  C           1     -20.860  -7.512  -1.924  0.00  0.00     0.003 C 
BRANCH  22  23
HETATM   23 Se           1     -22.315  -7.274  -0.649  0.00  0.00     0.000 Se
HETATM   24  C           1     -21.534  -8.434   0.708  0.00  0.00     0.000 C 
ENDBRANCH  22  23
ENDBRANCH  21  22
ENDBRANCH  17  21
ENDBRANCH   3  17
TORSDOF 9
ENDMDL
MODEL 4
REMARK VINA RESULT:      -6.5     14.181     15.123
REMARK  9 active torsions:
REMARK  status: ('A' for Active; 'I' for Inactive)
REMARK       I    between atoms: C_1  and  N_7 
REMARK    1  A    between atoms: C_1  and  C_12 
REMARK    2  A    between atoms: C_2  and  C_24 
REMARK    3  A    between atoms: N_7  and  C_24 
REMARK    4  A    between atoms: C_8  and  Se_9 
REMARK    5  A    between atoms: C_8  and  C_17 
REMARK    6  A    between atoms: C_12  and  C_13 
REMARK    7  A    between atoms: C_12  and  N_23 
REMARK    8  A    between atoms: C_13  and  C_14 
REMARK    9  A    between atoms: C_17  and  C_24 
ROOT
HETATM    1  C           1     -21.720  -5.930  -5.380  0.00  0.00     0.249 C 
HETATM    2  O           1     -22.928  -5.977  -5.355  0.00  0.00    -0.271 OA
HETATM    3  N           1     -20.987  -6.722  -4.538  0.00  0.00    -0.345 N 
HETATM    4  H           1     -19.976  -6.682  -4.559  0.00  0.00     0.163 HD
ENDROOT
BRANCH   1   5
HETATM    5  C           1     -21.022  -4.998  -6.339  0.00  0.00     0.278 C 
BRANCH   5   6
HETATM    6  C           1     -20.698  -5.743  -7.627  0.00  0.00     0.081 C 
BRANCH   6   7
HETATM    7  C           1     -21.093  -4.905  -8.803  0.00  0.00    -0.056 A 
HETATM    8  C           1     -20.153  -4.600  -9.788  0.00  0.00     0.007 A 
HETATM    9  C           1     -20.521  -3.819 -10.884  0.00  0.00     0.001 A 
HETATM   10  C           1     -21.827  -3.344 -10.995  0.00  0.00     0.000 A 
HETATM   11  C           1     -22.767  -3.650 -10.010  0.00  0.00     0.001 A 
HETATM   12  C           1     -22.400  -4.430  -8.914  0.00  0.00     0.007 A 
ENDBRANCH   6   7
ENDBRANCH   5   6
BRANCH   5  13
HETATM   13  N           1     -19.751  -4.502  -5.717  0.00  0.00    -0.066 N 
HETATM   14  H           1     -19.960  -3.677  -5.110  0.00  0.00     0.275 HD
HETATM   15  H           1     -19.082  -4.221  -6.468  0.00  0.00     0.275 HD
HETATM   16  H           1     -19.325  -5.261  -5.138  0.00  0.00     0.275 HD
ENDBRANCH   5  13
ENDBRANCH   1   5
BRANCH   3  17
HETATM   17  C           1     -21.658  -7.618  -3.616  0.00  0.00     0.185 C 
BRANCH  17  18
HETATM   18  C           1     -21.676  -7.001  -2.239  0.00  0.00     0.196 C 
HETATM   19  O           1     -22.357  -5.974  -2.024  0.00  0.00    -0.646 OA
HETATM   20  O           1     -21.012  -7.516  -1.315  0.00  0.00    -0.646 OA
ENDBRANCH  17  18
BRANCH  17  21
HETATM   21  C           1     -20.914  -8.947  -3.566  0.00  0.00     0.036 C 
BRANCH  21  22
HETATM   22  C           1     -21.893 -10.087  -3.814  0.00  0.00     0.003 C 
BRANCH  22  23
HETATM   23 Se           1     -22.467 -10.835  -2.108  0.00  0.00     0.000 Se
HETATM   24  C           1     -20.661 -11.044  -1.406  0.00  0.00     0.000 C 
ENDBRANCH  22  23
ENDBRANCH  21  22
ENDBRANCH  17  21
ENDBRANCH   3  17
TORSDOF 9
ENDMDL
MODEL 5
REMARK VINA RESULT:      -6.4     14.468     15.456
REMARK  9 active torsions:
REMARK  status: ('A' for Active; 'I' for Inactive)
REMARK       I    between atoms: C_1  and  N_7 
REMARK    1  A    between atoms: C_1  and  C_12 
REMARK    2  A    between atoms: C_2  and  C_24 
REMARK    3  A    between atoms: N_7  and  C_24 
REMARK    4  A    between atoms: C_8  and  Se_9 
REMARK    5  A    between atoms: C_8  and  C_17 
REMARK    6  A    between atoms: C_12  and  C_13 
REMARK    7  A    between atoms: C_12  and  N_23 
REMARK    8  A    between atoms: C_13  and  C_14 
REMARK    9  A    between atoms: C_17  and  C_24 
ROOT
HETATM    1  C           1     -21.716  -5.977  -5.336  0.00  0.00     0.249 C 
HETATM    2  O           1     -22.923  -6.009  -5.275  0.00  0.00    -0.271 OA
HETATM    3  N           1     -20.968  -6.816  -4.556  0.00  0.00    -0.345 N 
HETATM    4  H           1     -19.958  -6.789  -4.608  0.00  0.00     0.163 HD
ENDROOT
BRANCH   1   5
HETATM    5  C           1     -21.035  -5.010  -6.274  0.00  0.00     0.278 C 
BRANCH   5   6
HETATM    6  C           1     -20.647  -5.734  -7.557  0.00  0.00     0.081 C 
BRANCH   6   7
HETATM    7  C           1     -21.060  -4.913  -8.739  0.00  0.00    -0.056 A 
HETATM    8  C           1     -22.360  -4.415  -8.821  0.00  0.00     0.007 A 
HETATM    9  C           1     -22.745  -3.651  -9.922  0.00  0.00     0.001 A 
HETATM   10  C           1     -21.831  -3.384 -10.940  0.00  0.00     0.000 A 
HETATM   11  C           1     -20.530  -3.881 -10.857  0.00  0.00     0.001 A 
HETATM   12  C           1     -20.145  -4.646  -9.757  0.00  0.00     0.007 A 
ENDBRANCH   6   7
ENDBRANCH   5   6
BRANCH   5  13
HETATM   13  N           1     -19.804  -4.462  -5.618  0.00  0.00    -0.066 N 
HETATM   14  H           1     -18.964  -4.975  -5.969  0.00  0.00     0.275 HD
HETATM   15  H           1     -19.878  -4.582  -4.583  0.00  0.00     0.275 HD
HETATM   16  H           1     -19.710  -3.446  -5.845  0.00  0.00     0.275 HD
ENDBRANCH   5  13
ENDBRANCH   1   5
BRANCH   3  17
HETATM   17  C           1     -21.622  -7.745  -3.655  0.00  0.00     0.185 C 
BRANCH  17  18
HETATM   18  C           1     -21.478  -7.255  -2.236  0.00  0.00     0.196 C 
HETATM   19  O           1     -22.247  -6.370  -1.799  0.00  0.00    -0.646 OA
HETATM   20  O           1     -20.591  -7.732  -1.497  0.00  0.00    -0.646 OA
ENDBRANCH  17  18
BRANCH  17  21
HETATM   21  C           1     -20.977  -9.119  -3.785  0.00  0.00     0.036 C 
BRANCH  21  22
HETATM   22  C           1     -19.920  -9.083  -4.881  0.00  0.00     0.003 C 
BRANCH  22  23
HETATM   23 Se           1     -18.197  -9.618  -4.143  0.00  0.00     0.000 Se
HETATM   24  C           1     -17.352  -9.886  -5.878  0.00  0.00     0.000 C 
ENDBRANCH  22  23
ENDBRANCH  21  22
ENDBRANCH  17  21
ENDBRANCH   3  17
TORSDOF 9
ENDMDL
MODEL 6
REMARK VINA RESULT:      -6.3     14.626     15.539
REMARK  9 active torsions:
REMARK  status: ('A' for Active; 'I' for Inactive)
REMARK       I    between atoms: C_1  and  N_7 
REMARK    1  A    between atoms: C_1  and  C_12 
REMARK    2  A    between atoms: C_2  and  C_24 
REMARK    3  A    between atoms: N_7  and  C_24 
REMARK    4  A    between atoms: C_8  and  Se_9 
REMARK    5  A    between atoms: C_8  and  C_17 
REMARK    6  A    between atoms: C_12  and  C_13 
REMARK    7  A    between atoms: C_12  and  N_23 
REMARK    8  A    between atoms: C_13  and  C_14 
REMARK    9  A    between atoms: C_17  and  C_24 
ROOT
HETATM    1  C           1     -20.479  -6.945  -6.064  0.00  0.00     0.249 C 
HETATM    2  O           1     -19.446  -6.989  -6.690  0.00  0.00    -0.271 OA
HETATM    3  N           1     -20.665  -7.774  -4.991  0.00  0.00    -0.345 N 
HETATM    4  H           1     -21.531  -7.737  -4.468  0.00  0.00     0.163 HD
ENDROOT
BRANCH   1   5
HETATM    5  C           1     -21.564  -5.976  -6.467  0.00  0.00     0.278 C 
BRANCH   5   6
HETATM    6  C           1     -20.938  -4.641  -6.847  0.00  0.00     0.081 C 
BRANCH   6   7
HETATM    7  C           1     -21.170  -4.376  -8.303  0.00  0.00    -0.056 A 
HETATM    8  C           1     -20.155  -4.622  -9.226  0.00  0.00     0.007 A 
HETATM    9  C           1     -20.371  -4.376 -10.582  0.00  0.00     0.001 A 
HETATM   10  C           1     -21.603  -3.884 -11.014  0.00  0.00     0.000 A 
HETATM   11  C           1     -22.618  -3.639 -10.090  0.00  0.00     0.001 A 
HETATM   12  C           1     -22.402  -3.885  -8.734  0.00  0.00     0.007 A 
ENDBRANCH   6   7
ENDBRANCH   5   6
BRANCH   5  13
HETATM   13  N           1     -22.506  -5.776  -5.319  0.00  0.00    -0.066 N 
HETATM   14  H           1     -22.713  -6.699  -4.873  0.00  0.00     0.275 HD
HETATM   15  H           1     -23.395  -5.351  -5.667  0.00  0.00     0.275 HD
HETATM   16  H           1     -22.069  -5.140  -4.614  0.00  0.00     0.275 HD
ENDBRANCH   5  13
ENDBRANCH   1   5
BRANCH   3  17
HETATM   17  C           1     -19.623  -8.705  -4.604  0.00  0.00     0.185 C 
BRANCH  17  18
HETATM   18  C           1     -19.920 -10.063  -5.190  0.00  0.00     0.196 C 
HETATM   19  O           1     -20.860 -10.749  -4.732  0.00  0.00    -0.646 OA
HETATM   20  O           1     -19.226 -10.503  -6.132  0.00  0.00    -0.646 OA
ENDBRANCH  17  18
BRANCH  17  21
HETATM   21  C           1     -19.573  -8.808  -3.085  0.00  0.00     0.036 C 
BRANCH  21  22
HETATM   22  C           1     -20.669  -7.942  -2.479  0.00  0.00     0.003 C 
BRANCH  22  23
HETATM   23 Se           1     -21.718  -9.001  -1.224  0.00  0.00     0.000 Se
HETATM   24  C           1     -22.540  -7.461  -0.358  0.00  0.00     0.000 C 
ENDBRANCH  22  23
ENDBRANCH  21  22
ENDBRANCH  17  21
ENDBRANCH   3  17
TORSDOF 9
ENDMDL
MODEL 7
REMARK VINA RESULT:      -6.3     14.902     16.886
REMARK  9 active torsions:
REMARK  status: ('A' for Active; 'I' for Inactive)
REMARK       I    between atoms: C_1  and  N_7 
REMARK    1  A    between atoms: C_1  and  C_12 
REMARK    2  A    between atoms: C_2  and  C_24 
REMARK    3  A    between atoms: N_7  and  C_24 
REMARK    4  A    between atoms: C_8  and  Se_9 
REMARK    5  A    between atoms: C_8  and  C_17 
REMARK    6  A    between atoms: C_12  and  C_13 
REMARK    7  A    between atoms: C_12  and  N_23 
REMARK    8  A    between atoms: C_13  and  C_14 
REMARK    9  A    between atoms: C_17  and  C_24 
ROOT
HETATM    1  C           1     -20.958  -7.623  -5.293  0.00  0.00     0.249 C 
HETATM    2  O           1     -20.070  -8.035  -6.002  0.00  0.00    -0.271 OA
HETATM    3  N           1     -21.546  -6.417  -5.562  0.00  0.00    -0.345 N 
HETATM    4  H           1     -22.290  -6.073  -4.968  0.00  0.00     0.163 HD
ENDROOT
BRANCH   1   5
HETATM    5  C           1     -21.419  -8.441  -4.111  0.00  0.00     0.278 C 
BRANCH   5   6
HETATM    6  C           1     -20.372  -8.373  -3.007  0.00  0.00     0.081 C 
BRANCH   6   7
HETATM    7  C           1     -21.053  -8.268  -1.677  0.00  0.00    -0.056 A 
HETATM    8  C           1     -21.958  -7.234  -1.438  0.00  0.00     0.007 A 
HETATM    9  C           1     -22.593  -7.136  -0.200  0.00  0.00     0.001 A 
HETATM   10  C           1     -22.323  -8.071   0.798  0.00  0.00     0.000 A 
HETATM   11  C           1     -21.419  -9.106   0.558  0.00  0.00     0.001 A 
HETATM   12  C           1     -20.784  -9.205  -0.679  0.00  0.00     0.007 A 
ENDBRANCH   6   7
ENDBRANCH   5   6
BRANCH   5  13
HETATM   13  N           1     -21.609  -9.866  -4.533  0.00  0.00    -0.066 N 
HETATM   14  H           1     -22.520 -10.221  -4.165  0.00  0.00     0.275 HD
HETATM   15  H           1     -20.829 -10.449  -4.153  0.00  0.00     0.275 HD
HETATM   16  H           1     -21.609  -9.925  -5.577  0.00  0.00     0.275 HD
ENDBRANCH   5  13
ENDBRANCH   1   5
BRANCH   3  17
HETATM   17  C           1     -21.104  -5.631  -6.698  0.00  0.00     0.185 C 
BRANCH  17  18
HETATM   18  C           1     -19.908  -4.802  -6.300  0.00  0.00     0.196 C 
HETATM   19  O           1     -18.995  -4.584  -7.127  0.00  0.00    -0.646 OA
HETATM   20  O           1     -19.829  -4.332  -5.144  0.00  0.00    -0.646 OA
ENDBRANCH  17  18
BRANCH  17  21
HETATM   21  C           1     -22.231  -4.711  -7.149  0.00  0.00     0.036 C 
BRANCH  21  22
HETATM   22  C           1     -22.163  -4.527  -8.660  0.00  0.00     0.003 C 
BRANCH  22  23
HETATM   23 Se           1     -23.908  -3.971  -9.327  0.00  0.00     0.000 Se
HETATM   24  C           1     -23.676  -4.780 -11.084  0.00  0.00     0.000 C 
ENDBRANCH  22  23
ENDBRANCH  21  22
ENDBRANCH  17  21
ENDBRANCH   3  17
TORSDOF 9
ENDMDL
MODEL 8
REMARK VINA RESULT:      -5.9     15.373     16.549
REMARK  9 active torsions:
REMARK  status: ('A' for Active; 'I' for Inactive)
REMARK       I    between atoms: C_1  and  N_7 
REMARK    1  A    between atoms: C_1  and  C_12 
REMARK    2  A    between atoms: C_2  and  C_24 
REMARK    3  A    between atoms: N_7  and  C_24 
REMARK    4  A    between atoms: C_8  and  Se_9 
REMARK    5  A    between atoms: C_8  and  C_17 
REMARK    6  A    between atoms: C_12  and  C_13 
REMARK    7  A    between atoms: C_12  and  N_23 
REMARK    8  A    between atoms: C_13  and  C_14 
REMARK    9  A    between atoms: C_17  and  C_24 
ROOT
HETATM    1  C           1     -21.307  -8.145  -3.707  0.00  0.00     0.249 C 
HETATM    2  O           1     -22.063  -9.024  -4.046  0.00  0.00    -0.271 OA
HETATM    3  N           1     -21.081  -7.911  -2.377  0.00  0.00    -0.345 N 
HETATM    4  H           1     -20.448  -7.175  -2.093  0.00  0.00     0.163 HD
ENDROOT
BRANCH   1   5
HETATM    5  C           1     -20.612  -7.304  -4.749  0.00  0.00     0.278 C 
BRANCH   5   6
HETATM    6  C           1     -21.193  -5.896  -4.738  0.00  0.00     0.081 C 
BRANCH   6   7
HETATM    7  C           1     -20.905  -5.225  -6.045  0.00  0.00    -0.056 A 
HETATM    8  C           1     -21.956  -4.835  -6.874  0.00  0.00     0.007 A 
HETATM    9  C           1     -21.689  -4.209  -8.091  0.00  0.00     0.001 A 
HETATM   10  C           1     -20.370  -3.974  -8.480  0.00  0.00     0.000 A 
HETATM   11  C           1     -19.319  -4.364  -7.650  0.00  0.00     0.001 A 
HETATM   12  C           1     -19.586  -4.990  -6.432  0.00  0.00     0.007 A 
ENDBRANCH   6   7
ENDBRANCH   5   6
BRANCH   5  13
HETATM   13  N           1     -20.815  -7.917  -6.102  0.00  0.00    -0.066 N 
HETATM   14  H           1     -20.205  -8.760  -6.198  0.00  0.00     0.275 HD
HETATM   15  H           1     -20.566  -7.221  -6.841  0.00  0.00     0.275 HD
HETATM   16  H           1     -21.816  -8.198  -6.212  0.00  0.00     0.275 HD
ENDBRANCH   5  13
ENDBRANCH   1   5
BRANCH   3  17
HETATM   17  C           1     -21.749  -8.719  -1.375  0.00  0.00     0.185 C 
BRANCH  17  18
HETATM   18  C           1     -22.288  -7.825  -0.285  0.00  0.00     0.196 C 
HETATM   19  O           1     -22.820  -6.733  -0.581  0.00  0.00    -0.646 OA
HETATM   20  O           1     -22.202  -8.176   0.911  0.00  0.00    -0.646 OA
ENDBRANCH  17  18
BRANCH  17  21
HETATM   21  C           1     -20.756  -9.707  -0.775  0.00  0.00     0.036 C 
BRANCH  21  22
HETATM   22  C           1     -21.133 -11.123  -1.191  0.00  0.00     0.003 C 
BRANCH  22  23
HETATM   23 Se           1     -23.051 -11.216  -1.521  0.00  0.00     0.000 Se
HETATM   24  C           1     -23.484 -11.942   0.235  0.00  0.00     0.000 C 
ENDBRANCH  22  23
ENDBRANCH  21  22
ENDBRANCH  17  21
ENDBRANCH   3  17
TORSDOF 9
ENDMDL
MODEL 9
REMARK VINA RESULT:      -5.9     18.012     19.661
REMARK  9 active torsions:
REMARK  status: ('A' for Active; 'I' for Inactive)
REMARK       I    between atoms: C_1  and  N_7 
REMARK    1  A    between atoms: C_1  and  C_12 
REMARK    2  A    between atoms: C_2  and  C_24 
REMARK    3  A    between atoms: N_7  and  C_24 
REMARK    4  A    between atoms: C_8  and  Se_9 
REMARK    5  A    between atoms: C_8  and  C_17 
REMARK    6  A    between atoms: C_12  and  C_13 
REMARK    7  A    between atoms: C_12  and  N_23 
REMARK    8  A    between atoms: C_13  and  C_14 
REMARK    9  A    between atoms: C_17  and  C_24 
ROOT
HETATM    1  C           1     -22.706  11.569 -14.528  0.00  0.00     0.249 C 
HETATM    2  O           1     -23.438  12.437 -14.944  0.00  0.00    -0.271 OA
HETATM    3  N           1     -21.802  10.976 -15.367  0.00  0.00    -0.345 N 
HETATM    4  H           1     -21.189  10.250 -15.018  0.00  0.00     0.163 HD
ENDROOT
BRANCH   1   5
HETATM    5  C           1     -22.790  11.140 -13.084  0.00  0.00     0.278 C 
BRANCH   5   6
HETATM    6  C           1     -24.240  11.193 -12.621  0.00  0.00     0.081 C 
BRANCH   6   7
HETATM    7  C           1     -24.631   9.867 -12.045  0.00  0.00    -0.056 A 
HETATM    8  C           1     -23.880   8.730 -12.343  0.00  0.00     0.007 A 
HETATM    9  C           1     -24.244   7.495 -11.807  0.00  0.00     0.001 A 
HETATM   10  C           1     -25.357   7.397 -10.973  0.00  0.00     0.000 A 
HETATM   11  C           1     -26.107   8.535 -10.674  0.00  0.00     0.001 A 
HETATM   12  C           1     -25.744   9.770 -11.210  0.00  0.00     0.007 A 
ENDBRANCH   6   7
ENDBRANCH   5   6
BRANCH   5  13
HETATM   13  N           1     -21.962  12.062 -12.240  0.00  0.00    -0.066 N 
HETATM   14  H           1     -21.411  12.700 -12.858  0.00  0.00     0.275 HD
HETATM   15  H           1     -21.308  11.500 -11.649  0.00  0.00     0.275 HD
HETATM   16  H           1     -22.588  12.629 -11.624  0.00  0.00     0.275 HD
ENDBRANCH   5  13
ENDBRANCH   1   5
BRANCH   3  17
HETATM   17  C           1     -21.720  11.388 -16.755  0.00  0.00     0.185 C 
BRANCH  17  18
HETATM   18  C           1     -21.582  10.169 -17.634  0.00  0.00     0.196 C 
HETATM   19  O           1     -21.414   9.043 -17.118  0.00  0.00    -0.646 OA
HETATM   20  O           1     -21.635  10.286 -18.877  0.00  0.00    -0.646 OA
ENDBRANCH  17  18
BRANCH  17  21
HETATM   21  C           1     -20.509  12.292 -16.947  0.00  0.00     0.036 C 
BRANCH  21  22
HETATM   22  C           1     -19.254  11.567 -16.478  0.00  0.00     0.003 C 
BRANCH  22  23
HETATM   23 Se           1     -18.229  12.734 -15.301  0.00  0.00     0.000 Se
HETATM   24  C           1     -18.623  11.722 -13.683  0.00  0.00     0.000 C 
ENDBRANCH  22  23
ENDBRANCH  21  22
ENDBRANCH  17  21
ENDBRANCH   3  17
TORSDOF 9
ENDMDL
