MODEL 1
REMARK VINA RESULT:      -5.8      0.000      0.000
REMARK  7 active torsions:
REMARK  status: ('A' for Active; 'I' for Inactive)
REMARK    1  A    between atoms: C_3  and  C_4 
REMARK    2  A    between atoms: C_3  and  N_5 
REMARK    3  A    between atoms: C_4  and  C_18 
REMARK       I    between atoms: N_10  and  C_11 
REMARK    4  A    between atoms: C_11  and  C_19 
REMARK    5  A    between atoms: N_17  and  C_19 
REMARK    6  A    between atoms: C_18  and  C_19 
REMARK    7  A    between atoms: C_20  and  C_21 
ROOT
HETATM    1  C           1     -20.401  -5.485  -7.427  0.00  0.00     0.275 C 
ENDROOT
BRANCH   1   2
HETATM    2  C           1     -21.499  -4.682  -8.079  0.00  0.00     0.251 C 
HETATM    3  N           1     -21.466  -4.443  -9.426  0.00  0.00    -0.336 N 
HETATM    4  C           1     -20.454  -4.884 -10.383  0.00  0.00     0.127 C 
HETATM    5  C           1     -22.434  -3.693 -10.221  0.00  0.00     0.188 C 
HETATM    6  C           1     -20.270  -3.684 -11.295  0.00  0.00     0.022 C 
HETATM    7  C           1     -21.571  -2.897 -11.185  0.00  0.00     0.038 C 
HETATM    8  O           1     -22.409  -4.250  -7.412  0.00  0.00    -0.271 OA
BRANCH   5   9
HETATM    9  C           1     -23.355  -4.626 -10.968  0.00  0.00     0.196 C 
HETATM   10  O           1     -24.022  -5.480 -10.344  0.00  0.00    -0.646 OA
HETATM   11  O           1     -23.451  -4.545 -12.212  0.00  0.00    -0.646 OA
ENDBRANCH   5   9
ENDBRANCH   1   2
BRANCH   1  12
HETATM   12  N           1     -19.581  -4.588  -6.549  0.00  0.00    -0.067 N 
HETATM   13  H           1     -19.907  -4.677  -5.560  0.00  0.00     0.275 HD
HETATM   14  H           1     -18.576  -4.864  -6.610  0.00  0.00     0.275 HD
HETATM   15  H           1     -19.690  -3.598  -6.864  0.00  0.00     0.275 HD
ENDBRANCH   1  12
BRANCH   1  16
HETATM   16  C           1     -21.015  -6.596  -6.585  0.00  0.00     0.044 C 
BRANCH  16  17
HETATM   17  C           1     -20.466  -6.522  -5.167  0.00  0.00     0.030 C 
BRANCH  17  18
HETATM   18  C           1     -21.613  -6.309  -4.187  0.00  0.00     0.230 C 
BRANCH  18  19
HETATM   19  N           1     -22.902  -6.185  -4.945  0.00  0.00    -0.079 N 
HETATM   20  H           1     -22.768  -6.537  -5.920  0.00  0.00     0.274 HD
HETATM   21  H           1     -23.642  -6.750  -4.470  0.00  0.00     0.274 HD
HETATM   22  H           1     -23.194  -5.183  -4.972  0.00  0.00     0.274 HD
ENDBRANCH  18  19
ENDBRANCH  17  18
ENDBRANCH  16  17
ENDBRANCH   1  16
TORSDOF 7
ENDMDL
MODEL 2
REMARK VINA RESULT:      -5.6     10.147     12.432
REMARK  7 active torsions:
REMARK  status: ('A' for Active; 'I' for Inactive)
REMARK    1  A    between atoms: C_3  and  C_4 
REMARK    2  A    between atoms: C_3  and  N_5 
REMARK    3  A    between atoms: C_4  and  C_18 
REMARK       I    between atoms: N_10  and  C_11 
REMARK    4  A    between atoms: C_11  and  C_19 
REMARK    5  A    between atoms: N_17  and  C_19 
REMARK    6  A    between atoms: C_18  and  C_19 
REMARK    7  A    between atoms: C_20  and  C_21 
ROOT
HETATM    1  C           1     -25.756  -7.062 -20.370  0.00  0.00     0.275 C 
ENDROOT
BRANCH   1   2
HETATM    2  C           1     -25.616  -6.564 -18.952  0.00  0.00     0.251 C 
HETATM    3  N           1     -26.731  -6.234 -18.229  0.00  0.00    -0.336 N 
HETATM    4  C           1     -28.124  -6.301 -18.663  0.00  0.00     0.127 C 
HETATM    5  C           1     -26.787  -5.739 -16.857  0.00  0.00     0.188 C 
HETATM    6  C           1     -28.744  -5.039 -18.088  0.00  0.00     0.022 C 
HETATM    7  C           1     -27.861  -4.666 -16.902  0.00  0.00     0.038 C 
HETATM    8  O           1     -24.520  -6.456 -18.454  0.00  0.00    -0.271 OA
BRANCH   5   9
HETATM    9  C           1     -27.170  -6.844 -15.902  0.00  0.00     0.196 C 
HETATM   10  O           1     -28.368  -7.011 -15.588  0.00  0.00    -0.646 OA
HETATM   11  O           1     -26.289  -7.592 -15.427  0.00  0.00    -0.646 OA
ENDBRANCH   5   9
ENDBRANCH   1   2
BRANCH   1  12
HETATM   12  N           1     -25.752  -5.895 -21.311  0.00  0.00    -0.067 N 
HETATM   13  H           1     -25.848  -5.008 -20.766  0.00  0.00     0.275 HD
HETATM   14  H           1     -24.855  -5.882 -21.845  0.00  0.00     0.275 HD
HETATM   15  H           1     -26.553  -5.983 -21.977  0.00  0.00     0.275 HD
ENDBRANCH   1  12
BRANCH   1  16
HETATM   16  C           1     -24.590  -7.985 -20.700  0.00  0.00     0.044 C 
BRANCH  16  17
HETATM   17  C           1     -24.131  -7.731 -22.130  0.00  0.00     0.030 C 
BRANCH  17  18
HETATM   18  C           1     -22.871  -8.540 -22.411  0.00  0.00     0.230 C 
BRANCH  18  19
HETATM   19  N           1     -22.346  -9.112 -21.126  0.00  0.00    -0.079 N 
HETATM   20  H           1     -21.762  -8.395 -20.639  0.00  0.00     0.274 HD
HETATM   21  H           1     -23.147  -9.384 -20.512  0.00  0.00     0.274 HD
HETATM   22  H           1     -21.764  -9.954 -21.334  0.00  0.00     0.274 HD
ENDBRANCH  18  19
ENDBRANCH  17  18
ENDBRANCH  16  17
ENDBRANCH   1  16
TORSDOF 7
ENDMDL
MODEL 3
REMARK VINA RESULT:      -5.5      1.817      2.573
REMARK  7 active torsions:
REMARK  status: ('A' for Active; 'I' for Inactive)
REMARK    1  A    between atoms: C_3  and  C_4 
REMARK    2  A    between atoms: C_3  and  N_5 
REMARK    3  A    between atoms: C_4  and  C_18 
REMARK       I    between atoms: N_10  and  C_11 
REMARK    4  A    between atoms: C_11  and  C_19 
REMARK    5  A    between atoms: N_17  and  C_19 
REMARK    6  A    between atoms: C_18  and  C_19 
REMARK    7  A    between atoms: C_20  and  C_21 
ROOT
HETATM    1  C           1     -21.755  -4.551  -6.650  0.00  0.00     0.275 C 
ENDROOT
BRANCH   1   2
HETATM    2  C           1     -21.519  -5.021  -8.064  0.00  0.00     0.251 C 
HETATM    3  N           1     -22.257  -4.500  -9.091  0.00  0.00    -0.336 N 
HETATM    4  C           1     -23.308  -3.489  -9.008  0.00  0.00     0.127 C 
HETATM    5  C           1     -22.167  -4.833 -10.510  0.00  0.00     0.188 C 
HETATM    6  C           1     -24.365  -3.983  -9.979  0.00  0.00     0.022 C 
HETATM    7  C           1     -23.616  -4.871 -10.965  0.00  0.00     0.038 C 
HETATM    8  O           1     -20.677  -5.859  -8.290  0.00  0.00    -0.271 OA
BRANCH   5   9
HETATM    9  C           1     -21.395  -3.777 -11.262  0.00  0.00     0.196 C 
HETATM   10  O           1     -20.332  -3.322 -10.787  0.00  0.00    -0.646 OA
HETATM   11  O           1     -21.819  -3.358 -12.361  0.00  0.00    -0.646 OA
ENDBRANCH   5   9
ENDBRANCH   1   2
BRANCH   1  12
HETATM   12  N           1     -23.021  -5.159  -6.126  0.00  0.00    -0.067 N 
HETATM   13  H           1     -23.380  -4.585  -5.329  0.00  0.00     0.275 HD
HETATM   14  H           1     -23.736  -5.184  -6.887  0.00  0.00     0.275 HD
HETATM   15  H           1     -22.830  -6.132  -5.796  0.00  0.00     0.275 HD
ENDBRANCH   1  12
BRANCH   1  16
HETATM   16  C           1     -20.586  -4.978  -5.771  0.00  0.00     0.044 C 
BRANCH  16  17
HETATM   17  C           1     -21.067  -5.995  -4.745  0.00  0.00     0.030 C 
BRANCH  17  18
HETATM   18  C           1     -20.367  -7.327  -4.983  0.00  0.00     0.230 C 
BRANCH  18  19
HETATM   19  N           1     -21.079  -8.080  -6.070  0.00  0.00    -0.079 N 
HETATM   20  H           1     -20.425  -8.236  -6.870  0.00  0.00     0.274 HD
HETATM   21  H           1     -21.404  -9.001  -5.700  0.00  0.00     0.274 HD
HETATM   22  H           1     -21.902  -7.524  -6.395  0.00  0.00     0.274 HD
ENDBRANCH  18  19
ENDBRANCH  17  18
ENDBRANCH  16  17
ENDBRANCH   1  16
TORSDOF 7
ENDMDL
MODEL 4
REMARK VINA RESULT:      -5.2      2.656      6.207
REMARK  7 active torsions:
REMARK  status: ('A' for Active; 'I' for Inactive)
REMARK    1  A    between atoms: C_3  and  C_4 
REMARK    2  A    between atoms: C_3  and  N_5 
REMARK    3  A    between atoms: C_4  and  C_18 
REMARK       I    between atoms: N_10  and  C_11 
REMARK    4  A    between atoms: C_11  and  C_19 
REMARK    5  A    between atoms: N_17  and  C_19 
REMARK    6  A    between atoms: C_18  and  C_19 
REMARK    7  A    between atoms: C_20  and  C_21 
ROOT
HETATM    1  C           1     -20.829  -4.959  -6.901  0.00  0.00     0.275 C 
ENDROOT
BRANCH   1   2
HETATM    2  C           1     -21.759  -5.680  -5.957  0.00  0.00     0.251 C 
HETATM    3  N           1     -21.284  -6.692  -5.168  0.00  0.00    -0.336 N 
HETATM    4  C           1     -19.918  -7.206  -5.106  0.00  0.00     0.127 C 
HETATM    5  C           1     -22.032  -7.495  -4.204  0.00  0.00     0.188 C 
HETATM    6  C           1     -20.100  -8.710  -4.996  0.00  0.00     0.022 C 
HETATM    7  C           1     -21.494  -8.900  -4.408  0.00  0.00     0.038 C 
HETATM    8  O           1     -22.924  -5.364  -5.898  0.00  0.00    -0.271 OA
BRANCH   5   9
HETATM    9  C           1     -21.776  -7.019  -2.795  0.00  0.00     0.196 C 
HETATM   10  O           1     -22.072  -5.851  -2.465  0.00  0.00    -0.646 OA
HETATM   11  O           1     -21.268  -7.796  -1.957  0.00  0.00    -0.646 OA
ENDBRANCH   5   9
ENDBRANCH   1   2
BRANCH   1  12
HETATM   12  N           1     -20.397  -5.897  -7.990  0.00  0.00    -0.067 N 
HETATM   13  H           1     -20.579  -5.456  -8.920  0.00  0.00     0.275 HD
HETATM   14  H           1     -19.377  -6.098  -7.892  0.00  0.00     0.275 HD
HETATM   15  H           1     -20.937  -6.788  -7.915  0.00  0.00     0.275 HD
ENDBRANCH   1  12
BRANCH   1  16
HETATM   16  C           1     -21.552  -3.768  -7.516  0.00  0.00     0.044 C 
BRANCH  16  17
HETATM   17  C           1     -21.676  -3.968  -9.020  0.00  0.00     0.030 C 
BRANCH  17  18
HETATM   18  C           1     -23.121  -3.742  -9.446  0.00  0.00     0.230 C 
BRANCH  18  19
HETATM   19  N           1     -24.028  -3.938  -8.266  0.00  0.00    -0.079 N 
HETATM   20  H           1     -24.686  -3.130  -8.196  0.00  0.00     0.274 HD
HETATM   21  H           1     -24.572  -4.822  -8.388  0.00  0.00     0.274 HD
HETATM   22  H           1     -23.455  -3.999  -7.394  0.00  0.00     0.274 HD
ENDBRANCH  18  19
ENDBRANCH  17  18
ENDBRANCH  16  17
ENDBRANCH   1  16
TORSDOF 7
ENDMDL
MODEL 5
REMARK VINA RESULT:      -5.0      2.805      6.090
REMARK  7 active torsions:
REMARK  status: ('A' for Active; 'I' for Inactive)
REMARK    1  A    between atoms: C_3  and  C_4 
REMARK    2  A    between atoms: C_3  and  N_5 
REMARK    3  A    between atoms: C_4  and  C_18 
REMARK       I    between atoms: N_10  and  C_11 
REMARK    4  A    between atoms: C_11  and  C_19 
REMARK    5  A    between atoms: N_17  and  C_19 
REMARK    6  A    between atoms: C_18  and  C_19 
REMARK    7  A    between atoms: C_20  and  C_21 
ROOT
HETATM    1  C           1     -21.522  -5.092  -7.247  0.00  0.00     0.275 C 
ENDROOT
BRANCH   1   2
HETATM    2  C           1     -20.697  -6.176  -6.598  0.00  0.00     0.251 C 
HETATM    3  N           1     -21.131  -6.767  -5.442  0.00  0.00    -0.336 N 
HETATM    4  C           1     -22.357  -6.478  -4.701  0.00  0.00     0.127 C 
HETATM    5  C           1     -20.471  -7.823  -4.680  0.00  0.00     0.188 C 
HETATM    6  C           1     -21.923  -6.529  -3.247  0.00  0.00     0.022 C 
HETATM    7  C           1     -20.678  -7.410  -3.233  0.00  0.00     0.038 C 
HETATM    8  O           1     -19.654  -6.524  -7.098  0.00  0.00    -0.271 OA
BRANCH   5   9
HETATM    9  C           1     -21.110  -9.163  -4.953  0.00  0.00     0.196 C 
HETATM   10  O           1     -21.098  -9.638  -6.109  0.00  0.00    -0.646 OA
HETATM   11  O           1     -21.651  -9.798  -4.022  0.00  0.00    -0.646 OA
ENDBRANCH   5   9
ENDBRANCH   1   2
BRANCH   1  12
HETATM   12  N           1     -21.117  -3.758  -6.692  0.00  0.00    -0.067 N 
HETATM   13  H           1     -20.275  -3.876  -6.085  0.00  0.00     0.275 HD
HETATM   14  H           1     -20.893  -3.108  -7.478  0.00  0.00     0.275 HD
HETATM   15  H           1     -21.902  -3.364  -6.127  0.00  0.00     0.275 HD
ENDBRANCH   1  12
BRANCH   1  16
HETATM   16  C           1     -21.287  -5.108  -8.751  0.00  0.00     0.044 C 
BRANCH  16  17
HETATM   17  C           1     -22.080  -3.982  -9.402  0.00  0.00     0.030 C 
BRANCH  17  18
HETATM   18  C           1     -23.537  -4.402  -9.543  0.00  0.00     0.230 C 
BRANCH  18  19
HETATM   19  N           1     -24.421  -3.364  -8.915  0.00  0.00    -0.079 N 
HETATM   20  H           1     -23.923  -2.928  -8.106  0.00  0.00     0.274 HD
HETATM   21  H           1     -24.650  -2.628  -9.620  0.00  0.00     0.274 HD
HETATM   22  H           1     -25.303  -3.815  -8.582  0.00  0.00     0.274 HD
ENDBRANCH  18  19
ENDBRANCH  17  18
ENDBRANCH  16  17
ENDBRANCH   1  16
TORSDOF 7
ENDMDL
MODEL 6
REMARK VINA RESULT:      -4.9      3.571      7.285
REMARK  7 active torsions:
REMARK  status: ('A' for Active; 'I' for Inactive)
REMARK    1  A    between atoms: C_3  and  C_4 
REMARK    2  A    between atoms: C_3  and  N_5 
REMARK    3  A    between atoms: C_4  and  C_18 
REMARK       I    between atoms: N_10  and  C_11 
REMARK    4  A    between atoms: C_11  and  C_19 
REMARK    5  A    between atoms: N_17  and  C_19 
REMARK    6  A    between atoms: C_18  and  C_19 
REMARK    7  A    between atoms: C_20  and  C_21 
ROOT
HETATM    1  C           1     -20.316  -6.236  -5.369  0.00  0.00     0.275 C 
ENDROOT
BRANCH   1   2
HETATM    2  C           1     -21.435  -6.696  -4.469  0.00  0.00     0.251 C 
HETATM    3  N           1     -21.180  -7.583  -3.458  0.00  0.00    -0.336 N 
HETATM    4  C           1     -19.897  -8.185  -3.105  0.00  0.00     0.127 C 
HETATM    5  C           1     -22.131  -8.134  -2.496  0.00  0.00     0.188 C 
HETATM    6  C           1     -20.250  -9.624  -2.773  0.00  0.00     0.022 C 
HETATM    7  C           1     -21.721  -9.592  -2.377  0.00  0.00     0.038 C 
HETATM    8  O           1     -22.558  -6.282  -4.639  0.00  0.00    -0.271 OA
BRANCH   5   9
HETATM    9  C           1     -22.017  -7.433  -1.165  0.00  0.00     0.196 C 
HETATM   10  O           1     -21.573  -8.047  -0.171  0.00  0.00    -0.646 OA
HETATM   11  O           1     -22.366  -6.238  -1.057  0.00  0.00    -0.646 OA
ENDBRANCH   5   9
ENDBRANCH   1   2
BRANCH   1  12
HETATM   12  N           1     -20.410  -6.948  -6.686  0.00  0.00    -0.067 N 
HETATM   13  H           1     -19.504  -6.852  -7.199  0.00  0.00     0.275 HD
HETATM   14  H           1     -20.612  -7.959  -6.521  0.00  0.00     0.275 HD
HETATM   15  H           1     -21.179  -6.527  -7.255  0.00  0.00     0.275 HD
ENDBRANCH   1  12
BRANCH   1  16
HETATM   16  C           1     -20.431  -4.734  -5.596  0.00  0.00     0.044 C 
BRANCH  16  17
HETATM   17  C           1     -20.382  -4.440  -7.089  0.00  0.00     0.030 C 
BRANCH  17  18
HETATM   18  C           1     -21.593  -3.603  -7.482  0.00  0.00     0.230 C 
BRANCH  18  19
HETATM   19  N           1     -22.850  -4.349  -7.140  0.00  0.00    -0.079 N 
HETATM   20  H           1     -22.836  -5.284  -7.607  0.00  0.00     0.274 HD
HETATM   21  H           1     -22.909  -4.477  -6.105  0.00  0.00     0.274 HD
HETATM   22  H           1     -23.677  -3.805  -7.473  0.00  0.00     0.274 HD
ENDBRANCH  18  19
ENDBRANCH  17  18
ENDBRANCH  16  17
ENDBRANCH   1  16
TORSDOF 7
ENDMDL
MODEL 7
REMARK VINA RESULT:      -4.7      5.146      8.972
REMARK  7 active torsions:
REMARK  status: ('A' for Active; 'I' for Inactive)
REMARK    1  A    between atoms: C_3  and  C_4 
REMARK    2  A    between atoms: C_3  and  N_5 
REMARK    3  A    between atoms: C_4  and  C_18 
REMARK       I    between atoms: N_10  and  C_11 
REMARK    4  A    between atoms: C_11  and  C_19 
REMARK    5  A    between atoms: N_17  and  C_19 
REMARK    6  A    between atoms: C_18  and  C_19 
REMARK    7  A    between atoms: C_20  and  C_21 
ROOT
HETATM    1  C           1     -22.075  -6.696  -3.049  0.00  0.00     0.275 C 
ENDROOT
BRANCH   1   2
HETATM    2  C           1     -21.460  -7.967  -2.519  0.00  0.00     0.251 C 
HETATM    3  N           1     -21.793  -8.420  -1.271  0.00  0.00    -0.336 N 
HETATM    4  C           1     -22.718  -7.808  -0.320  0.00  0.00     0.127 C 
HETATM    5  C           1     -21.302  -9.620  -0.599  0.00  0.00     0.188 C 
HETATM    6  C           1     -22.028  -7.982   1.021  0.00  0.00     0.022 C 
HETATM    7  C           1     -21.092  -9.171   0.837  0.00  0.00     0.038 C 
HETATM    8  O           1     -20.674  -8.587  -3.195  0.00  0.00    -0.271 OA
BRANCH   5   9
HETATM    9  C           1     -22.321 -10.731  -0.671  0.00  0.00     0.196 C 
HETATM   10  O           1     -22.917 -10.965  -1.744  0.00  0.00    -0.646 OA
HETATM   11  O           1     -22.567 -11.418   0.344  0.00  0.00    -0.646 OA
ENDBRANCH   5   9
ENDBRANCH   1   2
BRANCH   1  12
HETATM   12  N           1     -21.269  -5.520  -2.585  0.00  0.00    -0.067 N 
HETATM   13  H           1     -20.942  -4.973  -3.413  0.00  0.00     0.275 HD
HETATM   14  H           1     -21.860  -4.911  -1.976  0.00  0.00     0.275 HD
HETATM   15  H           1     -20.442  -5.858  -2.042  0.00  0.00     0.275 HD
ENDBRANCH   1  12
BRANCH   1  16
HETATM   16  C           1     -22.085  -6.734  -4.572  0.00  0.00     0.044 C 
BRANCH  16  17
HETATM   17  C           1     -21.098  -5.709  -5.113  0.00  0.00     0.030 C 
BRANCH  17  18
HETATM   18  C           1     -20.307  -6.321  -6.262  0.00  0.00     0.230 C 
BRANCH  18  19
HETATM   19  N           1     -19.833  -7.690  -5.871  0.00  0.00    -0.079 N 
HETATM   20  H           1     -19.597  -8.235  -6.731  0.00  0.00     0.274 HD
HETATM   21  H           1     -18.984  -7.606  -5.268  0.00  0.00     0.274 HD
HETATM   22  H           1     -20.589  -8.181  -5.343  0.00  0.00     0.274 HD
ENDBRANCH  18  19
ENDBRANCH  17  18
ENDBRANCH  16  17
ENDBRANCH   1  16
TORSDOF 7
ENDMDL
MODEL 8
REMARK VINA RESULT:      -4.7     18.262     20.043
REMARK  7 active torsions:
REMARK  status: ('A' for Active; 'I' for Inactive)
REMARK    1  A    between atoms: C_3  and  C_4 
REMARK    2  A    between atoms: C_3  and  N_5 
REMARK    3  A    between atoms: C_4  and  C_18 
REMARK       I    between atoms: N_10  and  C_11 
REMARK    4  A    between atoms: C_11  and  C_19 
REMARK    5  A    between atoms: N_17  and  C_19 
REMARK    6  A    between atoms: C_18  and  C_19 
REMARK    7  A    between atoms: C_20  and  C_21 
ROOT
HETATM    1  C           1     -12.027   5.029 -21.183  0.00  0.00     0.275 C 
ENDROOT
BRANCH   1   2
HETATM    2  C           1     -12.400   6.326 -20.507  0.00  0.00     0.251 C 
HETATM    3  N           1     -11.618   7.436 -20.678  0.00  0.00    -0.336 N 
HETATM    4  C           1     -10.398   7.552 -21.472  0.00  0.00     0.127 C 
HETATM    5  C           1     -11.822   8.765 -20.106  0.00  0.00     0.188 C 
HETATM    6  C           1      -9.487   8.413 -20.614  0.00  0.00     0.022 C 
HETATM    7  C           1     -10.424   9.208 -19.712  0.00  0.00     0.038 C 
HETATM    8  O           1     -13.389   6.384 -19.815  0.00  0.00    -0.271 OA
BRANCH   5   9
HETATM    9  C           1     -12.416   9.704 -21.127  0.00  0.00     0.196 C 
HETATM   10  O           1     -13.445   9.375 -21.756  0.00  0.00    -0.646 OA
HETATM   11  O           1     -11.879  10.811 -21.343  0.00  0.00    -0.646 OA
ENDBRANCH   5   9
ENDBRANCH   1   2
BRANCH   1  12
HETATM   12  N           1     -12.415   3.879 -20.303  0.00  0.00    -0.067 N 
HETATM   13  H           1     -11.939   3.010 -20.637  0.00  0.00     0.275 HD
HETATM   14  H           1     -12.126   4.080 -19.320  0.00  0.00     0.275 HD
HETATM   15  H           1     -13.451   3.745 -20.342  0.00  0.00     0.275 HD
ENDBRANCH   1  12
BRANCH   1  16
HETATM   16  C           1     -12.761   4.921 -22.513  0.00  0.00     0.044 C 
BRANCH  16  17
HETATM   17  C           1     -13.730   3.747 -22.465  0.00  0.00     0.030 C 
BRANCH  17  18
HETATM   18  C           1     -15.114   4.211 -22.899  0.00  0.00     0.230 C 
BRANCH  18  19
HETATM   19  N           1     -15.497   5.439 -22.125  0.00  0.00    -0.079 N 
HETATM   20  H           1     -14.770   6.178 -22.264  0.00  0.00     0.274 HD
HETATM   21  H           1     -16.420   5.792 -22.464  0.00  0.00     0.274 HD
HETATM   22  H           1     -15.565   5.203 -21.110  0.00  0.00     0.274 HD
ENDBRANCH  18  19
ENDBRANCH  17  18
ENDBRANCH  16  17
ENDBRANCH   1  16
TORSDOF 7
ENDMDL
MODEL 9
REMARK VINA RESULT:      -4.6      6.717      9.762
REMARK  7 active torsions:
REMARK  status: ('A' for Active; 'I' for Inactive)
REMARK    1  A    between atoms: C_3  and  C_4 
REMARK    2  A    between atoms: C_3  and  N_5 
REMARK    3  A    between atoms: C_4  and  C_18 
REMARK       I    between atoms: N_10  and  C_11 
REMARK    4  A    between atoms: C_11  and  C_19 
REMARK    5  A    between atoms: N_17  and  C_19 
REMARK    6  A    between atoms: C_18  and  C_19 
REMARK    7  A    between atoms: C_20  and  C_21 
ROOT
HETATM    1  C           1     -21.936  -7.450  -2.167  0.00  0.00     0.275 C 
ENDROOT
BRANCH   1   2
HETATM    2  C           1     -22.126  -8.174  -0.857  0.00  0.00     0.251 C 
HETATM    3  N           1     -22.416  -9.512  -0.851  0.00  0.00    -0.336 N 
HETATM    4  C           1     -22.577 -10.393  -2.004  0.00  0.00     0.127 C 
HETATM    5  C           1     -22.631 -10.370   0.311  0.00  0.00     0.188 C 
HETATM    6  C           1     -23.755 -11.274  -1.627  0.00  0.00     0.022 C 
HETATM    7  C           1     -23.795 -11.255  -0.103  0.00  0.00     0.038 C 
HETATM    8  O           1     -22.023  -7.574   0.186  0.00  0.00    -0.271 OA
BRANCH   5   9
HETATM    9  C           1     -21.404 -11.197   0.603  0.00  0.00     0.196 C 
HETATM   10  O           1     -21.503 -12.435   0.744  0.00  0.00    -0.646 OA
HETATM   11  O           1     -20.288 -10.644   0.705  0.00  0.00    -0.646 OA
ENDBRANCH   5   9
ENDBRANCH   1   2
BRANCH   1  12
HETATM   12  N           1     -22.369  -6.022  -2.015  0.00  0.00    -0.067 N 
HETATM   13  H           1     -22.318  -5.542  -2.942  0.00  0.00     0.275 HD
HETATM   14  H           1     -23.351  -5.992  -1.660  0.00  0.00     0.275 HD
HETATM   15  H           1     -21.739  -5.537  -1.337  0.00  0.00     0.275 HD
ENDBRANCH   1  12
BRANCH   1  16
HETATM   16  C           1     -20.466  -7.494  -2.563  0.00  0.00     0.044 C 
BRANCH  16  17
HETATM   17  C           1     -20.304  -8.332  -3.824  0.00  0.00     0.030 C 
BRANCH  17  18
HETATM   18  C           1     -21.482  -8.082  -4.756  0.00  0.00     0.230 C 
BRANCH  18  19
HETATM   19  N           1     -20.978  -7.581  -6.078  0.00  0.00    -0.079 N 
HETATM   20  H           1     -20.482  -6.671  -5.938  0.00  0.00     0.274 HD
HETATM   21  H           1     -20.317  -8.279  -6.487  0.00  0.00     0.274 HD
HETATM   22  H           1     -21.785  -7.442  -6.727  0.00  0.00     0.274 HD
ENDBRANCH  18  19
ENDBRANCH  17  18
ENDBRANCH  16  17
ENDBRANCH   1  16
TORSDOF 7
ENDMDL
