MODEL 1
REMARK VINA RESULT:      -5.4      0.000      0.000
REMARK  7 active torsions:
REMARK  status: ('A' for Active; 'I' for Inactive)
REMARK    1  A    between atoms: N_2  and  C_15 
REMARK       I    between atoms: N_2  and  C_3 
REMARK    2  A    between atoms: C_3  and  C_17 
REMARK    3  A    between atoms: N_7  and  C_17 
REMARK    4  A    between atoms: Se_12  and  C_13 
REMARK    5  A    between atoms: C_13  and  C_14 
REMARK    6  A    between atoms: C_14  and  C_15 
REMARK    7  A    between atoms: C_15  and  C_16 
ROOT
HETATM    1  N           1     -26.460  -6.636 -18.261  0.00  0.00    -0.345 N 
HETATM    2  C           1     -25.307  -6.835 -18.971  0.00  0.00     0.243 C 
HETATM    3  O           1     -24.248  -6.473 -18.517  0.00  0.00    -0.272 OA
HETATM    4  H           1     -27.347  -6.939 -18.641  0.00  0.00     0.163 HD
ENDROOT
BRANCH   1   5
HETATM    5  C           1     -26.410  -5.991 -16.963  0.00  0.00     0.185 C 
BRANCH   5   6
HETATM    6  C           1     -27.629  -5.092 -16.797  0.00  0.00     0.036 C 
BRANCH   6   7
HETATM    7  C           1     -28.541  -5.246 -18.006  0.00  0.00     0.003 C 
BRANCH   7   8
HETATM    8 Se           1     -30.239  -6.022 -17.447  0.00  0.00     0.000 Se
HETATM    9  C           1     -29.948  -7.722 -18.355  0.00  0.00     0.000 C 
ENDBRANCH   7   8
ENDBRANCH   6   7
ENDBRANCH   5   6
BRANCH   5  10
HETATM   10  C           1     -26.407  -7.042 -15.880  0.00  0.00     0.196 C 
HETATM   11  O           1     -25.325  -7.515 -15.470  0.00  0.00    -0.646 OA
HETATM   12  O           1     -27.488  -7.440 -15.393  0.00  0.00    -0.646 OA
ENDBRANCH   5  10
ENDBRANCH   1   5
BRANCH   2  13
HETATM   13  C           1     -25.359  -7.506 -20.321  0.00  0.00     0.332 C 
BRANCH  13  14
HETATM   14  N           1     -26.780  -7.845 -20.659  0.00  0.00    -0.071 N 
HETATM   15  H           1     -26.955  -8.855 -20.453  0.00  0.00     0.274 HD
HETATM   16  H           1     -26.950  -7.661 -21.674  0.00  0.00     0.274 HD
HETATM   17  H           1     -27.425  -7.257 -20.086  0.00  0.00     0.274 HD
ENDBRANCH  13  14
ENDBRANCH   2  13
TORSDOF 7
ENDMDL
MODEL 2
REMARK VINA RESULT:      -5.2     10.741     11.807
REMARK  7 active torsions:
REMARK  status: ('A' for Active; 'I' for Inactive)
REMARK    1  A    between atoms: N_2  and  C_15 
REMARK       I    between atoms: N_2  and  C_3 
REMARK    2  A    between atoms: C_3  and  C_17 
REMARK    3  A    between atoms: N_7  and  C_17 
REMARK    4  A    between atoms: Se_12  and  C_13 
REMARK    5  A    between atoms: C_13  and  C_14 
REMARK    6  A    between atoms: C_14  and  C_15 
REMARK    7  A    between atoms: C_15  and  C_16 
ROOT
HETATM    1  N           1     -34.714  -0.457 -12.194  0.00  0.00    -0.345 N 
HETATM    2  C           1     -35.164  -0.300 -13.477  0.00  0.00     0.243 C 
HETATM    3  O           1     -35.881  -1.135 -13.973  0.00  0.00    -0.272 OA
HETATM    4  H           1     -34.114   0.243 -11.779  0.00  0.00     0.163 HD
ENDROOT
BRANCH   1   5
HETATM    5  C           1     -35.099  -1.628 -11.430  0.00  0.00     0.185 C 
BRANCH   5   6
HETATM    6  C           1     -33.906  -2.119 -10.620  0.00  0.00     0.036 C 
BRANCH   6   7
HETATM    7  C           1     -33.201  -3.235 -11.380  0.00  0.00     0.003 C 
BRANCH   7   8
HETATM    8 Se           1     -34.527  -4.465 -12.107  0.00  0.00     0.000 Se
HETATM    9  C           1     -34.043  -5.941 -10.929  0.00  0.00     0.000 C 
ENDBRANCH   7   8
ENDBRANCH   6   7
ENDBRANCH   5   6
BRANCH   5  10
HETATM   10  C           1     -36.228  -1.269 -10.496  0.00  0.00     0.196 C 
HETATM   11  O           1     -37.403  -1.580 -10.786  0.00  0.00    -0.646 OA
HETATM   12  O           1     -35.988  -0.658  -9.431  0.00  0.00    -0.646 OA
ENDBRANCH   5  10
ENDBRANCH   1   5
BRANCH   2  13
HETATM   13  C           1     -34.763   0.919 -14.272  0.00  0.00     0.332 C 
BRANCH  13  14
HETATM   14  N           1     -35.895   1.327 -15.168  0.00  0.00    -0.071 N 
HETATM   15  H           1     -36.550   0.522 -15.290  0.00  0.00     0.274 HD
HETATM   16  H           1     -35.515   1.613 -16.099  0.00  0.00     0.274 HD
HETATM   17  H           1     -36.407   2.130 -14.740  0.00  0.00     0.274 HD
ENDBRANCH  13  14
ENDBRANCH   2  13
TORSDOF 7
ENDMDL
MODEL 3
REMARK VINA RESULT:      -4.8      3.702      5.019
REMARK  7 active torsions:
REMARK  status: ('A' for Active; 'I' for Inactive)
REMARK    1  A    between atoms: N_2  and  C_15 
REMARK       I    between atoms: N_2  and  C_3 
REMARK    2  A    between atoms: C_3  and  C_17 
REMARK    3  A    between atoms: N_7  and  C_17 
REMARK    4  A    between atoms: Se_12  and  C_13 
REMARK    5  A    between atoms: C_13  and  C_14 
REMARK    6  A    between atoms: C_14  and  C_15 
REMARK    7  A    between atoms: C_15  and  C_16 
ROOT
HETATM    1  N           1     -30.190  -5.945 -17.463  0.00  0.00    -0.345 N 
HETATM    2  C           1     -29.958  -4.701 -17.986  0.00  0.00     0.243 C 
HETATM    3  O           1     -29.042  -4.530 -18.753  0.00  0.00    -0.272 OA
HETATM    4  H           1     -30.958  -6.088 -16.820  0.00  0.00     0.163 HD
ENDROOT
BRANCH   1   5
HETATM    5  C           1     -29.334  -7.057 -17.829  0.00  0.00     0.185 C 
BRANCH   5   6
HETATM    6  C           1     -28.886  -7.788 -16.570  0.00  0.00     0.036 C 
BRANCH   6   7
HETATM    7  C           1     -28.044  -6.852 -15.713  0.00  0.00     0.003 C 
BRANCH   7   8
HETATM    8 Se           1     -26.597  -6.110 -16.787  0.00  0.00     0.000 Se
HETATM    9  C           1     -25.196  -7.142 -15.909  0.00  0.00     0.000 C 
ENDBRANCH   7   8
ENDBRANCH   6   7
ENDBRANCH   5   6
BRANCH   5  10
HETATM   10  C           1     -30.099  -8.006 -18.718  0.00  0.00     0.196 C 
HETATM   11  O           1     -29.483  -8.828 -19.431  0.00  0.00    -0.646 OA
HETATM   12  O           1     -31.348  -7.971 -18.742  0.00  0.00    -0.646 OA
ENDBRANCH   5  10
ENDBRANCH   1   5
BRANCH   2  13
HETATM   13  C           1     -30.849  -3.544 -17.604  0.00  0.00     0.332 C 
BRANCH  13  14
HETATM   14  N           1     -30.021  -2.305 -17.446  0.00  0.00    -0.071 N 
HETATM   15  H           1     -29.707  -2.221 -16.453  0.00  0.00     0.274 HD
HETATM   16  H           1     -30.594  -1.469 -17.703  0.00  0.00     0.274 HD
HETATM   17  H           1     -29.186  -2.360 -18.071  0.00  0.00     0.274 HD
ENDBRANCH  13  14
ENDBRANCH   2  13
TORSDOF 7
ENDMDL
MODEL 4
REMARK VINA RESULT:      -4.8      4.175      5.828
REMARK  7 active torsions:
REMARK  status: ('A' for Active; 'I' for Inactive)
REMARK    1  A    between atoms: N_2  and  C_15 
REMARK       I    between atoms: N_2  and  C_3 
REMARK    2  A    between atoms: C_3  and  C_17 
REMARK    3  A    between atoms: N_7  and  C_17 
REMARK    4  A    between atoms: Se_12  and  C_13 
REMARK    5  A    between atoms: C_13  and  C_14 
REMARK    6  A    between atoms: C_14  and  C_15 
REMARK    7  A    between atoms: C_15  and  C_16 
ROOT
HETATM    1  N           1     -31.593  -5.779 -16.782  0.00  0.00    -0.345 N 
HETATM    2  C           1     -32.026  -4.483 -16.863  0.00  0.00     0.243 C 
HETATM    3  O           1     -31.280  -3.620 -17.258  0.00  0.00    -0.272 OA
HETATM    4  H           1     -32.219  -6.502 -16.451  0.00  0.00     0.163 HD
ENDROOT
BRANCH   1   5
HETATM    5  C           1     -30.237  -6.116 -17.170  0.00  0.00     0.185 C 
BRANCH   5   6
HETATM    6  C           1     -29.332  -6.064 -15.947  0.00  0.00     0.036 C 
BRANCH   6   7
HETATM    7  C           1     -28.182  -5.100 -16.207  0.00  0.00     0.003 C 
BRANCH   7   8
HETATM    8 Se           1     -26.828  -5.981 -17.296  0.00  0.00     0.000 Se
HETATM    9  C           1     -25.941  -6.843 -15.789  0.00  0.00     0.000 C 
ENDBRANCH   7   8
ENDBRANCH   6   7
ENDBRANCH   5   6
BRANCH   5  10
HETATM   10  C           1     -30.214  -7.507 -17.755  0.00  0.00     0.196 C 
HETATM   11  O           1     -29.534  -8.403 -17.210  0.00  0.00    -0.646 OA
HETATM   12  O           1     -30.874  -7.763 -18.786  0.00  0.00    -0.646 OA
ENDBRANCH   5  10
ENDBRANCH   1   5
BRANCH   2  13
HETATM   13  C           1     -33.438  -4.133 -16.459  0.00  0.00     0.332 C 
BRANCH  13  14
HETATM   14  N           1     -33.941  -3.011 -17.317  0.00  0.00    -0.071 N 
HETATM   15  H           1     -33.573  -2.103 -16.955  0.00  0.00     0.274 HD
HETATM   16  H           1     -34.986  -2.998 -17.294  0.00  0.00     0.274 HD
HETATM   17  H           1     -33.617  -3.151 -18.300  0.00  0.00     0.274 HD
ENDBRANCH  13  14
ENDBRANCH   2  13
TORSDOF 7
ENDMDL
MODEL 5
REMARK VINA RESULT:      -4.8      2.673      3.875
REMARK  7 active torsions:
REMARK  status: ('A' for Active; 'I' for Inactive)
REMARK    1  A    between atoms: N_2  and  C_15 
REMARK       I    between atoms: N_2  and  C_3 
REMARK    2  A    between atoms: C_3  and  C_17 
REMARK    3  A    between atoms: N_7  and  C_17 
REMARK    4  A    between atoms: Se_12  and  C_13 
REMARK    5  A    between atoms: C_13  and  C_14 
REMARK    6  A    between atoms: C_14  and  C_15 
REMARK    7  A    between atoms: C_15  and  C_16 
ROOT
HETATM    1  N           1     -27.700  -6.608 -16.822  0.00  0.00    -0.345 N 
HETATM    2  C           1     -26.894  -7.018 -15.794  0.00  0.00     0.243 C 
HETATM    3  O           1     -27.332  -7.749 -14.938  0.00  0.00    -0.272 OA
HETATM    4  H           1     -27.332  -5.996 -17.539  0.00  0.00     0.163 HD
ENDROOT
BRANCH   1   5
HETATM    5  C           1     -29.079  -7.051 -16.883  0.00  0.00     0.185 C 
BRANCH   5   6
HETATM    6  C           1     -29.992  -5.933 -16.395  0.00  0.00     0.036 C 
BRANCH   6   7
HETATM    7  C           1     -29.444  -4.590 -16.861  0.00  0.00     0.003 C 
BRANCH   7   8
HETATM    8 Se           1     -30.876  -3.552 -17.680  0.00  0.00     0.000 Se
HETATM    9  C           1     -32.312  -4.526 -16.792  0.00  0.00     0.000 C 
ENDBRANCH   7   8
ENDBRANCH   6   7
ENDBRANCH   5   6
BRANCH   5  10
HETATM   10  C           1     -29.431  -7.402 -18.307  0.00  0.00     0.196 C 
HETATM   11  O           1     -30.503  -7.994 -18.559  0.00  0.00    -0.646 OA
HETATM   12  O           1     -28.650  -7.101 -19.236  0.00  0.00    -0.646 OA
ENDBRANCH   5  10
ENDBRANCH   1   5
BRANCH   2  13
HETATM   13  C           1     -25.459  -6.558 -15.730  0.00  0.00     0.332 C 
BRANCH  13  14
HETATM   14  N           1     -24.578  -7.565 -16.408  0.00  0.00    -0.071 N 
HETATM   15  H           1     -24.923  -8.528 -16.194  0.00  0.00     0.274 HD
HETATM   16  H           1     -23.598  -7.460 -16.061  0.00  0.00     0.274 HD
HETATM   17  H           1     -24.600  -7.410 -17.441  0.00  0.00     0.274 HD
ENDBRANCH  13  14
ENDBRANCH   2  13
TORSDOF 7
ENDMDL
MODEL 6
REMARK VINA RESULT:      -4.5      2.580      4.095
REMARK  7 active torsions:
REMARK  status: ('A' for Active; 'I' for Inactive)
REMARK    1  A    between atoms: N_2  and  C_15 
REMARK       I    between atoms: N_2  and  C_3 
REMARK    2  A    between atoms: C_3  and  C_17 
REMARK    3  A    between atoms: N_7  and  C_17 
REMARK    4  A    between atoms: Se_12  and  C_13 
REMARK    5  A    between atoms: C_13  and  C_14 
REMARK    6  A    between atoms: C_14  and  C_15 
REMARK    7  A    between atoms: C_15  and  C_16 
ROOT
HETATM    1  N           1     -27.054  -6.698 -17.497  0.00  0.00    -0.345 N 
HETATM    2  C           1     -26.635  -6.164 -16.308  0.00  0.00     0.243 C 
HETATM    3  O           1     -27.236  -5.240 -15.816  0.00  0.00    -0.272 OA
HETATM    4  H           1     -26.550  -7.473 -17.909  0.00  0.00     0.163 HD
ENDROOT
BRANCH   1   5
HETATM    5  C           1     -28.219  -6.154 -18.166  0.00  0.00     0.185 C 
BRANCH   5   6
HETATM    6  C           1     -27.980  -6.140 -19.670  0.00  0.00     0.036 C 
BRANCH   6   7
HETATM    7  C           1     -26.534  -6.522 -19.957  0.00  0.00     0.003 C 
BRANCH   7   8
HETATM    8 Se           1     -26.493  -8.100 -21.100  0.00  0.00     0.000 Se
HETATM    9  C           1     -24.613  -7.907 -21.578  0.00  0.00     0.000 C 
ENDBRANCH   7   8
ENDBRANCH   6   7
ENDBRANCH   5   6
BRANCH   5  10
HETATM   10  C           1     -29.422  -7.011 -17.855  0.00  0.00     0.196 C 
HETATM   11  O           1     -29.627  -8.059 -18.505  0.00  0.00    -0.646 OA
HETATM   12  O           1     -30.214  -6.672 -16.949  0.00  0.00    -0.646 OA
ENDBRANCH   5  10
ENDBRANCH   1   5
BRANCH   2  13
HETATM   13  C           1     -25.422  -6.731 -15.612  0.00  0.00     0.332 C 
BRANCH  13  14
HETATM   14  N           1     -24.567  -7.459 -16.606  0.00  0.00    -0.071 N 
HETATM   15  H           1     -24.410  -6.850 -17.441  0.00  0.00     0.274 HD
HETATM   16  H           1     -25.049  -8.338 -16.901  0.00  0.00     0.274 HD
HETATM   17  H           1     -23.648  -7.695 -16.170  0.00  0.00     0.274 HD
ENDBRANCH  13  14
ENDBRANCH   2  13
TORSDOF 7
ENDMDL
MODEL 7
REMARK VINA RESULT:      -4.3     12.355     13.932
REMARK  7 active torsions:
REMARK  status: ('A' for Active; 'I' for Inactive)
REMARK    1  A    between atoms: N_2  and  C_15 
REMARK       I    between atoms: N_2  and  C_3 
REMARK    2  A    between atoms: C_3  and  C_17 
REMARK    3  A    between atoms: N_7  and  C_17 
REMARK    4  A    between atoms: Se_12  and  C_13 
REMARK    5  A    between atoms: C_13  and  C_14 
REMARK    6  A    between atoms: C_14  and  C_15 
REMARK    7  A    between atoms: C_15  and  C_16 
ROOT
HETATM    1  N           1     -22.090  -5.412  -6.513  0.00  0.00    -0.345 N 
HETATM    2  C           1     -21.632  -4.345  -7.238  0.00  0.00     0.243 C 
HETATM    3  O           1     -20.546  -3.873  -6.997  0.00  0.00    -0.272 OA
HETATM    4  H           1     -22.999  -5.808  -6.715  0.00  0.00     0.163 HD
ENDROOT
BRANCH   1   5
HETATM    5  C           1     -21.273  -5.975  -5.456  0.00  0.00     0.185 C 
BRANCH   5   6
HETATM    6  C           1     -22.163  -6.384  -4.290  0.00  0.00     0.036 C 
BRANCH   6   7
HETATM    7  C           1     -21.435  -6.121  -2.979  0.00  0.00     0.003 C 
BRANCH   7   8
HETATM    8 Se           1     -21.219  -7.797  -2.007  0.00  0.00     0.000 Se
HETATM    9  C           1     -22.424  -7.302  -0.558  0.00  0.00     0.000 C 
ENDBRANCH   7   8
ENDBRANCH   6   7
ENDBRANCH   5   6
BRANCH   5  10
HETATM   10  C           1     -20.541  -7.187  -5.980  0.00  0.00     0.196 C 
HETATM   11  O           1     -20.980  -8.333  -5.744  0.00  0.00    -0.646 OA
HETATM   12  O           1     -19.494  -7.044  -6.649  0.00  0.00    -0.646 OA
ENDBRANCH   5  10
ENDBRANCH   1   5
BRANCH   2  13
HETATM   13  C           1     -22.482  -3.759  -8.338  0.00  0.00     0.332 C 
BRANCH  13  14
HETATM   14  N           1     -23.926  -4.063  -8.071  0.00  0.00    -0.071 N 
HETATM   15  H           1     -24.160  -5.006  -8.458  0.00  0.00     0.274 HD
HETATM   16  H           1     -24.525  -3.339  -8.531  0.00  0.00     0.274 HD
HETATM   17  H           1     -24.101  -4.056  -7.042  0.00  0.00     0.274 HD
ENDBRANCH  13  14
ENDBRANCH   2  13
TORSDOF 7
ENDMDL
MODEL 8
REMARK VINA RESULT:      -4.3     11.794     13.471
REMARK  7 active torsions:
REMARK  status: ('A' for Active; 'I' for Inactive)
REMARK    1  A    between atoms: N_2  and  C_15 
REMARK       I    between atoms: N_2  and  C_3 
REMARK    2  A    between atoms: C_3  and  C_17 
REMARK    3  A    between atoms: N_7  and  C_17 
REMARK    4  A    between atoms: Se_12  and  C_13 
REMARK    5  A    between atoms: C_13  and  C_14 
REMARK    6  A    between atoms: C_14  and  C_15 
REMARK    7  A    between atoms: C_15  and  C_16 
ROOT
HETATM    1  N           1     -21.055  -5.622  -4.926  0.00  0.00    -0.345 N 
HETATM    2  C           1     -21.500  -6.723  -4.246  0.00  0.00     0.243 C 
HETATM    3  O           1     -21.993  -7.647  -4.848  0.00  0.00    -0.272 OA
HETATM    4  H           1     -20.641  -4.848  -4.422  0.00  0.00     0.163 HD
ENDROOT
BRANCH   1   5
HETATM    5  C           1     -21.178  -5.563  -6.370  0.00  0.00     0.185 C 
BRANCH   5   6
HETATM    6  C           1     -21.698  -4.191  -6.779  0.00  0.00     0.036 C 
BRANCH   6   7
HETATM    7  C           1     -23.011  -4.350  -7.533  0.00  0.00     0.003 C 
BRANCH   7   8
HETATM    8 Se           1     -22.712  -4.039  -9.434  0.00  0.00     0.000 Se
HETATM    9  C           1     -24.515  -3.383  -9.778  0.00  0.00     0.000 C 
ENDBRANCH   7   8
ENDBRANCH   6   7
ENDBRANCH   5   6
BRANCH   5  10
HETATM   10  C           1     -19.826  -5.798  -6.998  0.00  0.00     0.196 C 
HETATM   11  O           1     -19.321  -6.941  -6.986  0.00  0.00    -0.646 OA
HETATM   12  O           1     -19.211  -4.848  -7.531  0.00  0.00    -0.646 OA
ENDBRANCH   5  10
ENDBRANCH   1   5
BRANCH   2  13
HETATM   13  C           1     -21.372  -6.784  -2.743  0.00  0.00     0.332 C 
BRANCH  13  14
HETATM   14  N           1     -22.312  -5.797  -2.120  0.00  0.00    -0.071 N 
HETATM   15  H           1     -22.163  -5.780  -1.085  0.00  0.00     0.274 HD
HETATM   16  H           1     -23.298  -6.077  -2.326  0.00  0.00     0.274 HD
HETATM   17  H           1     -22.132  -4.846  -2.513  0.00  0.00     0.274 HD
ENDBRANCH  13  14
ENDBRANCH   2  13
TORSDOF 7
ENDMDL
MODEL 9
REMARK VINA RESULT:      -4.2     19.404     20.550
REMARK  7 active torsions:
REMARK  status: ('A' for Active; 'I' for Inactive)
REMARK    1  A    between atoms: N_2  and  C_15 
REMARK       I    between atoms: N_2  and  C_3 
REMARK    2  A    between atoms: C_3  and  C_17 
REMARK    3  A    between atoms: N_7  and  C_17 
REMARK    4  A    between atoms: Se_12  and  C_13 
REMARK    5  A    between atoms: C_13  and  C_14 
REMARK    6  A    between atoms: C_14  and  C_15 
REMARK    7  A    between atoms: C_15  and  C_16 
ROOT
HETATM    1  N           1     -11.362   5.441 -21.463  0.00  0.00    -0.345 N 
HETATM    2  C           1     -11.791   4.271 -22.029  0.00  0.00     0.243 C 
HETATM    3  O           1     -11.183   3.246 -21.833  0.00  0.00    -0.272 OA
HETATM    4  H           1     -11.871   6.300 -21.626  0.00  0.00     0.163 HD
ENDROOT
BRANCH   1   5
HETATM    5  C           1     -10.176   5.450 -20.627  0.00  0.00     0.185 C 
BRANCH   5   6
HETATM    6  C           1      -9.337   6.679 -20.951  0.00  0.00     0.036 C 
BRANCH   6   7
HETATM    7  C           1     -10.253   7.828 -21.351  0.00  0.00     0.003 C 
BRANCH   7   8
HETATM    8 Se           1     -10.207   9.206 -19.974  0.00  0.00     0.000 Se
HETATM    9  C           1     -12.062   8.956 -19.431  0.00  0.00     0.000 C 
ENDBRANCH   7   8
ENDBRANCH   6   7
ENDBRANCH   5   6
BRANCH   5  10
HETATM   10  C           1     -10.586   5.489 -19.175  0.00  0.00     0.196 C 
HETATM   11  O           1     -11.760   5.209 -18.849  0.00  0.00    -0.646 OA
HETATM   12  O           1      -9.751   5.802 -18.298  0.00  0.00    -0.646 OA
ENDBRANCH   5  10
ENDBRANCH   1   5
BRANCH   2  13
HETATM   13  C           1     -13.024   4.262 -22.898  0.00  0.00     0.332 C 
BRANCH  13  14
HETATM   14  N           1     -13.840   3.040 -22.599  0.00  0.00    -0.071 N 
HETATM   15  H           1     -13.216   2.202 -22.579  0.00  0.00     0.274 HD
HETATM   16  H           1     -14.567   2.917 -23.340  0.00  0.00     0.274 HD
HETATM   17  H           1     -14.305   3.149 -21.670  0.00  0.00     0.274 HD
ENDBRANCH  13  14
ENDBRANCH   2  13
TORSDOF 7
ENDMDL
