MODEL 1
REMARK VINA RESULT:      -6.4      0.000      0.000
REMARK  9 active torsions:
REMARK  status: ('A' for Active; 'I' for Inactive)
REMARK    1  A    between atoms: N_3  and  C_11 
REMARK       I    between atoms: N_3  and  C_23 
REMARK    2  A    between atoms: C_6  and  C_18 
REMARK    3  A    between atoms: C_6  and  C_26 
REMARK    4  A    between atoms: C_11  and  C_12 
REMARK    5  A    between atoms: C_11  and  C_15 
REMARK    6  A    between atoms: C_12  and  C_13 
REMARK    7  A    between atoms: C_13  and  C_22 
REMARK       I    between atoms: N_17  and  C_22 
REMARK    8  A    between atoms: C_18  and  C_23 
REMARK    9  A    between atoms: C_18  and  N_19 
ROOT
HETATM    1  N           1     -21.290  -6.002  -5.677  0.00  0.00    -0.345 N 
HETATM    2  H           1     -21.979  -6.414  -6.295  0.00  0.00     0.163 HD
HETATM    3  C           1     -20.652  -4.847  -6.039  0.00  0.00     0.249 C 
HETATM    4  O           1     -19.830  -4.355  -5.303  0.00  0.00    -0.271 OA
ENDROOT
BRANCH   3   5
HETATM    5  C           1     -20.974  -4.187  -7.357  0.00  0.00     0.280 C 
BRANCH   5   6
HETATM    6  C           1     -21.796  -5.139  -8.216  0.00  0.00     0.101 C 
BRANCH   6   7
HETATM    7  C           1     -22.829  -4.364  -8.973  0.00  0.00     0.028 A 
HETATM    8  N           1     -24.026  -3.945  -8.453  0.00  0.00    -0.355 N 
HETATM    9  C           1     -24.626  -3.311  -9.433  0.00  0.00     0.180 A 
ATOM     10  HN          1     -24.375  -4.095  -7.506  1.00  0.00     0.166 HD
HETATM   11  N           1     -23.864  -3.303 -10.566  0.00  0.00    -0.360 N 
HETATM   12  H           1     -24.119  -2.862 -11.484  0.00  0.00     0.166 HD
HETATM   13  C           1     -22.707  -3.976 -10.286  0.00  0.00     0.114 A 
ENDBRANCH   6   7
ENDBRANCH   5   6
BRANCH   5  14
HETATM   14  N           1     -19.699  -3.847  -8.070  0.00  0.00    -0.066 N 
HETATM   15  H           1     -19.635  -4.402  -8.953  0.00  0.00     0.275 HD
HETATM   16  H           1     -18.885  -4.076  -7.455  0.00  0.00     0.275 HD
HETATM   17  H           1     -19.687  -2.827  -8.297  0.00  0.00     0.275 HD
ENDBRANCH   5  14
ENDBRANCH   3   5
BRANCH   1  18
HETATM   18  C           1     -20.982  -6.636  -4.410  0.00  0.00     0.186 C 
BRANCH  18  19
HETATM   19  C           1     -22.237  -6.693  -3.551  0.00  0.00     0.045 C 
BRANCH  19  20
HETATM   20  C           1     -21.949  -6.074  -2.189  0.00  0.00     0.105 C 
BRANCH  20  21
HETATM   21  C           1     -22.028  -7.140  -1.124  0.00  0.00     0.215 C 
HETATM   22  O           1     -22.968  -7.167  -0.364  0.00  0.00    -0.274 OA
HETATM   23  N           1     -21.036  -8.076  -1.018  0.00  0.00    -0.370 N 
HETATM   24  H           1     -20.249  -8.055  -1.654  0.00  0.00     0.159 HD
HETATM   25  H           1     -21.089  -8.792  -0.304  0.00  0.00     0.159 HD
ENDBRANCH  20  21
ENDBRANCH  19  20
ENDBRANCH  18  19
BRANCH  18  26
HETATM   26  C           1     -20.479  -8.037  -4.659  0.00  0.00     0.196 C 
HETATM   27  O           1     -20.762  -8.622  -5.726  0.00  0.00    -0.646 OA
HETATM   28  O           1     -19.779  -8.611  -3.797  0.00  0.00    -0.646 OA
ENDBRANCH  18  26
ENDBRANCH   1  18
TORSDOF 9
ENDMDL
MODEL 2
REMARK VINA RESULT:      -6.1      1.551      2.196
REMARK  9 active torsions:
REMARK  status: ('A' for Active; 'I' for Inactive)
REMARK    1  A    between atoms: N_3  and  C_11 
REMARK       I    between atoms: N_3  and  C_23 
REMARK    2  A    between atoms: C_6  and  C_18 
REMARK    3  A    between atoms: C_6  and  C_26 
REMARK    4  A    between atoms: C_11  and  C_12 
REMARK    5  A    between atoms: C_11  and  C_15 
REMARK    6  A    between atoms: C_12  and  C_13 
REMARK    7  A    between atoms: C_13  and  C_22 
REMARK       I    between atoms: N_17  and  C_22 
REMARK    8  A    between atoms: C_18  and  C_23 
REMARK    9  A    between atoms: C_18  and  N_19 
ROOT
HETATM    1  N           1     -21.227  -7.273  -5.546  0.00  0.00    -0.345 N 
HETATM    2  H           1     -21.669  -7.872  -6.232  0.00  0.00     0.163 HD
HETATM    3  C           1     -21.315  -5.913  -5.667  0.00  0.00     0.249 C 
HETATM    4  O           1     -20.788  -5.198  -4.849  0.00  0.00    -0.271 OA
ENDROOT
BRANCH   3   5
HETATM    5  C           1     -22.072  -5.305  -6.823  0.00  0.00     0.280 C 
BRANCH   5   6
HETATM    6  C           1     -21.335  -4.068  -7.320  0.00  0.00     0.101 C 
BRANCH   6   7
HETATM    7  C           1     -21.264  -4.095  -8.815  0.00  0.00     0.028 A 
HETATM    8  N           1     -20.154  -4.454  -9.536  0.00  0.00    -0.355 N 
HETATM    9  C           1     -20.509  -4.343 -10.796  0.00  0.00     0.180 A 
ATOM     10  HN          1     -19.247  -4.746  -9.172  1.00  0.00     0.166 HD
HETATM   11  N           1     -21.804  -3.925 -10.916  0.00  0.00    -0.360 N 
HETATM   12  H           1     -22.324  -3.761 -11.813  0.00  0.00     0.166 HD
HETATM   13  C           1     -22.302  -3.762  -9.653  0.00  0.00     0.114 A 
ENDBRANCH   6   7
ENDBRANCH   5   6
BRANCH   5  14
HETATM   14  N           1     -23.448  -4.918  -6.371  0.00  0.00    -0.066 N 
HETATM   15  H           1     -24.052  -4.743  -7.205  0.00  0.00     0.275 HD
HETATM   16  H           1     -23.393  -4.050  -5.792  0.00  0.00     0.275 HD
HETATM   17  H           1     -23.858  -5.691  -5.799  0.00  0.00     0.275 HD
ENDBRANCH   5  14
ENDBRANCH   3   5
BRANCH   1  18
HETATM   18  C           1     -20.500  -7.857  -4.435  0.00  0.00     0.186 C 
BRANCH  18  19
HETATM   19  C           1     -21.487  -8.361  -3.391  0.00  0.00     0.045 C 
BRANCH  19  20
HETATM   20  C           1     -21.084  -7.839  -2.018  0.00  0.00     0.105 C 
BRANCH  20  21
HETATM   21  C           1     -22.113  -6.846  -1.535  0.00  0.00     0.215 C 
HETATM   22  O           1     -22.790  -7.100  -0.566  0.00  0.00    -0.274 OA
HETATM   23  N           1     -22.281  -5.659  -2.194  0.00  0.00    -0.370 N 
HETATM   24  H           1     -21.714  -5.445  -3.005  0.00  0.00     0.159 HD
HETATM   25  H           1     -22.971  -4.992  -1.870  0.00  0.00     0.159 HD
ENDBRANCH  20  21
ENDBRANCH  19  20
ENDBRANCH  18  19
BRANCH  18  26
HETATM   26  C           1     -19.662  -9.009  -4.933  0.00  0.00     0.196 C 
HETATM   27  O           1     -20.141  -9.821  -5.754  0.00  0.00    -0.646 OA
HETATM   28  O           1     -18.490  -9.150  -4.524  0.00  0.00    -0.646 OA
ENDBRANCH  18  26
ENDBRANCH   1  18
TORSDOF 9
ENDMDL
MODEL 3
REMARK VINA RESULT:      -6.0      1.746      2.971
REMARK  9 active torsions:
REMARK  status: ('A' for Active; 'I' for Inactive)
REMARK    1  A    between atoms: N_3  and  C_11 
REMARK       I    between atoms: N_3  and  C_23 
REMARK    2  A    between atoms: C_6  and  C_18 
REMARK    3  A    between atoms: C_6  and  C_26 
REMARK    4  A    between atoms: C_11  and  C_12 
REMARK    5  A    between atoms: C_11  and  C_15 
REMARK    6  A    between atoms: C_12  and  C_13 
REMARK    7  A    between atoms: C_13  and  C_22 
REMARK       I    between atoms: N_17  and  C_22 
REMARK    8  A    between atoms: C_18  and  C_23 
REMARK    9  A    between atoms: C_18  and  N_19 
ROOT
HETATM    1  N           1     -21.098  -6.498  -4.950  0.00  0.00    -0.345 N 
HETATM    2  H           1     -20.091  -6.438  -5.027  0.00  0.00     0.163 HD
HETATM    3  C           1     -21.891  -5.693  -5.723  0.00  0.00     0.249 C 
HETATM    4  O           1     -23.093  -5.763  -5.633  0.00  0.00    -0.271 OA
ENDROOT
BRANCH   3   5
HETATM    5  C           1     -21.263  -4.718  -6.689  0.00  0.00     0.280 C 
BRANCH   5   6
HETATM    6  C           1     -21.401  -5.248  -8.110  0.00  0.00     0.101 C 
BRANCH   6   7
HETATM    7  C           1     -22.473  -4.486  -8.826  0.00  0.00     0.028 A 
HETATM    8  N           1     -23.647  -4.069  -8.254  0.00  0.00    -0.355 N 
HETATM    9  C           1     -24.296  -3.446  -9.211  0.00  0.00     0.180 A 
ATOM     10  HN          1     -23.952  -4.212  -7.290  1.00  0.00     0.166 HD
HETATM   11  N           1     -23.587  -3.445 -10.378  0.00  0.00    -0.360 N 
HETATM   12  H           1     -23.887  -3.013 -11.287  0.00  0.00     0.166 HD
HETATM   13  C           1     -22.414  -4.109 -10.146  0.00  0.00     0.114 A 
ENDBRANCH   6   7
ENDBRANCH   5   6
BRANCH   5  14
HETATM   14  N           1     -19.810  -4.552  -6.357  0.00  0.00    -0.066 N 
HETATM   15  H           1     -19.230  -4.983  -7.111  0.00  0.00     0.275 HD
HETATM   16  H           1     -19.605  -5.023  -5.447  0.00  0.00     0.275 HD
HETATM   17  H           1     -19.583  -3.535  -6.280  0.00  0.00     0.275 HD
ENDBRANCH   5  14
ENDBRANCH   3   5
BRANCH   1  18
HETATM   18  C           1     -21.702  -7.436  -4.023  0.00  0.00     0.186 C 
BRANCH  18  19
HETATM   19  C           1     -20.981  -8.774  -4.113  0.00  0.00     0.045 C 
BRANCH  19  20
HETATM   20  C           1     -19.679  -8.599  -4.883  0.00  0.00     0.105 C 
BRANCH  20  21
HETATM   21  C           1     -18.548  -9.231  -4.109  0.00  0.00     0.215 C 
HETATM   22  O           1     -17.606  -9.711  -4.697  0.00  0.00    -0.274 OA
HETATM   23  N           1     -18.587  -9.260  -2.742  0.00  0.00    -0.370 N 
HETATM   24  H           1     -19.374  -8.858  -2.248  0.00  0.00     0.159 HD
HETATM   25  H           1     -17.828  -9.684  -2.222  0.00  0.00     0.159 HD
ENDBRANCH  20  21
ENDBRANCH  19  20
ENDBRANCH  18  19
BRANCH  18  26
HETATM   26  C           1     -21.587  -6.896  -2.618  0.00  0.00     0.196 C 
HETATM   27  O           1     -20.789  -7.419  -1.811  0.00  0.00    -0.646 OA
HETATM   28  O           1     -22.291  -5.927  -2.263  0.00  0.00    -0.646 OA
ENDBRANCH  18  26
ENDBRANCH   1  18
TORSDOF 9
ENDMDL
MODEL 4
REMARK VINA RESULT:      -5.9      2.679      7.346
REMARK  9 active torsions:
REMARK  status: ('A' for Active; 'I' for Inactive)
REMARK    1  A    between atoms: N_3  and  C_11 
REMARK       I    between atoms: N_3  and  C_23 
REMARK    2  A    between atoms: C_6  and  C_18 
REMARK    3  A    between atoms: C_6  and  C_26 
REMARK    4  A    between atoms: C_11  and  C_12 
REMARK    5  A    between atoms: C_11  and  C_15 
REMARK    6  A    between atoms: C_12  and  C_13 
REMARK    7  A    between atoms: C_13  and  C_22 
REMARK       I    between atoms: N_17  and  C_22 
REMARK    8  A    between atoms: C_18  and  C_23 
REMARK    9  A    between atoms: C_18  and  N_19 
ROOT
HETATM    1  N           1     -21.608  -5.318  -6.296  0.00  0.00    -0.345 N 
HETATM    2  H           1     -21.763  -4.551  -5.653  0.00  0.00     0.163 HD
HETATM    3  C           1     -21.290  -6.559  -5.813  0.00  0.00     0.249 C 
HETATM    4  O           1     -21.104  -7.475  -6.578  0.00  0.00    -0.271 OA
ENDROOT
BRANCH   3   5
HETATM    5  C           1     -21.172  -6.784  -4.325  0.00  0.00     0.280 C 
BRANCH   5   6
HETATM    6  C           1     -21.244  -8.276  -4.029  0.00  0.00     0.101 C 
BRANCH   6   7
HETATM    7  C           1     -19.866  -8.803  -3.777  0.00  0.00     0.028 A 
HETATM    8  N           1     -18.944  -9.072  -4.755  0.00  0.00    -0.355 N 
HETATM    9  C           1     -17.882  -9.511  -4.119  0.00  0.00     0.180 A 
ATOM     10  HN          1     -19.058  -8.956  -5.763  1.00  0.00     0.166 HD
HETATM   11  N           1     -18.083  -9.537  -2.768  0.00  0.00    -0.360 N 
HETATM   12  H           1     -17.390  -9.845  -2.042  0.00  0.00     0.166 HD
HETATM   13  C           1     -19.352  -9.085  -2.533  0.00  0.00     0.114 A 
ENDBRANCH   6   7
ENDBRANCH   5   6
BRANCH   5  14
HETATM   14  N           1     -22.295  -6.080  -3.623  0.00  0.00    -0.066 N 
HETATM   15  H           1     -22.183  -5.047  -3.736  0.00  0.00     0.275 HD
HETATM   16  H           1     -22.277  -6.324  -2.607  0.00  0.00     0.275 HD
HETATM   17  H           1     -23.207  -6.380  -4.036  0.00  0.00     0.275 HD
ENDBRANCH   5  14
ENDBRANCH   3   5
BRANCH   1  18
HETATM   18  C           1     -21.721  -5.103  -7.725  0.00  0.00     0.186 C 
BRANCH  18  19
HETATM   19  C           1     -22.819  -4.084  -7.999  0.00  0.00     0.045 C 
BRANCH  19  20
HETATM   20  C           1     -22.827  -3.732  -9.481  0.00  0.00     0.105 C 
BRANCH  20  21
HETATM   21  C           1     -24.246  -3.746  -9.995  0.00  0.00     0.215 C 
HETATM   22  O           1     -24.599  -2.933 -10.817  0.00  0.00    -0.274 OA
HETATM   23  N           1     -25.133  -4.678  -9.530  0.00  0.00    -0.370 N 
HETATM   24  H           1     -24.838  -5.359  -8.842  0.00  0.00     0.159 HD
HETATM   25  H           1     -26.086  -4.687  -9.874  0.00  0.00     0.159 HD
ENDBRANCH  20  21
ENDBRANCH  19  20
ENDBRANCH  18  19
BRANCH  18  26
HETATM   26  C           1     -20.409  -4.584  -8.261  0.00  0.00     0.196 C 
HETATM   27  O           1     -19.829  -3.638  -7.685  0.00  0.00    -0.646 OA
HETATM   28  O           1     -19.903  -5.101  -9.279  0.00  0.00    -0.646 OA
ENDBRANCH  18  26
ENDBRANCH   1  18
TORSDOF 9
ENDMDL
MODEL 5
REMARK VINA RESULT:      -5.9      1.655      1.915
REMARK  9 active torsions:
REMARK  status: ('A' for Active; 'I' for Inactive)
REMARK    1  A    between atoms: N_3  and  C_11 
REMARK       I    between atoms: N_3  and  C_23 
REMARK    2  A    between atoms: C_6  and  C_18 
REMARK    3  A    between atoms: C_6  and  C_26 
REMARK    4  A    between atoms: C_11  and  C_12 
REMARK    5  A    between atoms: C_11  and  C_15 
REMARK    6  A    between atoms: C_12  and  C_13 
REMARK    7  A    between atoms: C_13  and  C_22 
REMARK       I    between atoms: N_17  and  C_22 
REMARK    8  A    between atoms: C_18  and  C_23 
REMARK    9  A    between atoms: C_18  and  N_19 
ROOT
HETATM    1  N           1     -21.326  -7.499  -5.264  0.00  0.00    -0.345 N 
HETATM    2  H           1     -22.093  -8.104  -5.529  0.00  0.00     0.163 HD
HETATM    3  C           1     -21.304  -6.198  -5.687  0.00  0.00     0.249 C 
HETATM    4  O           1     -20.389  -5.475  -5.372  0.00  0.00    -0.271 OA
ENDROOT
BRANCH   3   5
HETATM    5  C           1     -22.422  -5.665  -6.550  0.00  0.00     0.280 C 
BRANCH   5   6
HETATM    6  C           1     -22.064  -4.269  -7.042  0.00  0.00     0.101 C 
BRANCH   6   7
HETATM    7  C           1     -22.725  -4.020  -8.363  0.00  0.00     0.028 A 
HETATM    8  N           1     -24.046  -3.690  -8.523  0.00  0.00    -0.355 N 
HETATM    9  C           1     -24.216  -3.561  -9.819  0.00  0.00     0.180 A 
ATOM     10  HN          1     -24.747  -3.570  -7.791  1.00  0.00     0.166 HD
HETATM   11  N           1     -23.056  -3.796 -10.501  0.00  0.00    -0.360 N 
HETATM   12  H           1     -22.929  -3.756 -11.543  0.00  0.00     0.166 HD
HETATM   13  C           1     -22.090  -4.091  -9.580  0.00  0.00     0.114 A 
ENDBRANCH   6   7
ENDBRANCH   5   6
BRANCH   5  14
HETATM   14  N           1     -23.686  -5.602  -5.746  0.00  0.00    -0.066 N 
HETATM   15  H           1     -24.235  -4.758  -6.026  0.00  0.00     0.275 HD
HETATM   16  H           1     -23.449  -5.542  -4.729  0.00  0.00     0.275 HD
HETATM   17  H           1     -24.254  -6.462  -5.920  0.00  0.00     0.275 HD
ENDBRANCH   5  14
ENDBRANCH   3   5
BRANCH   1  18
HETATM   18  C           1     -20.251  -8.010  -4.435  0.00  0.00     0.186 C 
BRANCH  18  19
HETATM   19  C           1     -20.819  -8.490  -3.107  0.00  0.00     0.045 C 
BRANCH  19  20
HETATM   20  C           1     -20.663  -7.394  -2.061  0.00  0.00     0.105 C 
BRANCH  20  21
HETATM   21  C           1     -22.008  -6.771  -1.779  0.00  0.00     0.215 C 
HETATM   22  O           1     -22.508  -6.021  -2.585  0.00  0.00    -0.274 OA
HETATM   23  N           1     -22.663  -7.055  -0.611  0.00  0.00    -0.370 N 
HETATM   24  H           1     -22.245  -7.683   0.064  0.00  0.00     0.159 HD
HETATM   25  H           1     -23.566  -6.637  -0.422  0.00  0.00     0.159 HD
ENDBRANCH  20  21
ENDBRANCH  19  20
ENDBRANCH  18  19
BRANCH  18  26
HETATM   26  C           1     -19.578  -9.162  -5.140  0.00  0.00     0.196 C 
HETATM   27  O           1     -18.749  -8.940  -6.049  0.00  0.00    -0.646 OA
HETATM   28  O           1     -19.848 -10.337  -4.813  0.00  0.00    -0.646 OA
ENDBRANCH  18  26
ENDBRANCH   1  18
TORSDOF 9
ENDMDL
MODEL 6
REMARK VINA RESULT:      -5.6      2.488      7.401
REMARK  9 active torsions:
REMARK  status: ('A' for Active; 'I' for Inactive)
REMARK    1  A    between atoms: N_3  and  C_11 
REMARK       I    between atoms: N_3  and  C_23 
REMARK    2  A    between atoms: C_6  and  C_18 
REMARK    3  A    between atoms: C_6  and  C_26 
REMARK    4  A    between atoms: C_11  and  C_12 
REMARK    5  A    between atoms: C_11  and  C_15 
REMARK    6  A    between atoms: C_12  and  C_13 
REMARK    7  A    between atoms: C_13  and  C_22 
REMARK       I    between atoms: N_17  and  C_22 
REMARK    8  A    between atoms: C_18  and  C_23 
REMARK    9  A    between atoms: C_18  and  N_19 
ROOT
HETATM    1  N           1     -21.164  -6.340  -7.071  0.00  0.00    -0.345 N 
HETATM    2  H           1     -21.542  -7.124  -7.587  0.00  0.00     0.163 HD
HETATM    3  C           1     -20.954  -6.446  -5.723  0.00  0.00     0.249 C 
HETATM    4  O           1     -20.503  -5.511  -5.105  0.00  0.00    -0.271 OA
ENDROOT
BRANCH   3   5
HETATM    5  C           1     -21.287  -7.732  -5.006  0.00  0.00     0.280 C 
BRANCH   5   6
HETATM    6  C           1     -20.389  -7.881  -3.784  0.00  0.00     0.101 C 
BRANCH   6   7
HETATM    7  C           1     -21.189  -7.634  -2.543  0.00  0.00     0.028 A 
HETATM    8  N           1     -21.783  -6.440  -2.223  0.00  0.00    -0.355 N 
HETATM    9  C           1     -22.376  -6.646  -1.070  0.00  0.00     0.180 A 
ATOM     10  HN          1     -21.766  -5.576  -2.765  1.00  0.00     0.166 HD
HETATM   11  N           1     -22.189  -7.927  -0.633  0.00  0.00    -0.360 N 
HETATM   12  H           1     -22.560  -8.340   0.258  0.00  0.00     0.166 HD
HETATM   13  C           1     -21.429  -8.573  -1.568  0.00  0.00     0.114 A 
ENDBRANCH   6   7
ENDBRANCH   5   6
BRANCH   5  14
HETATM   14  N           1     -21.066  -8.891  -5.931  0.00  0.00    -0.066 N 
HETATM   15  H           1     -20.078  -8.882  -6.271  0.00  0.00     0.275 HD
HETATM   16  H           1     -21.715  -8.814  -6.747  0.00  0.00     0.275 HD
HETATM   17  H           1     -21.252  -9.785  -5.423  0.00  0.00     0.275 HD
ENDBRANCH   5  14
ENDBRANCH   3   5
BRANCH   1  18
HETATM   18  C           1     -20.844  -5.104  -7.759  0.00  0.00     0.186 C 
BRANCH  18  19
HETATM   19  C           1     -20.881  -5.336  -9.263  0.00  0.00     0.045 C 
BRANCH  19  20
HETATM   20  C           1     -20.537  -4.040  -9.986  0.00  0.00     0.105 C 
BRANCH  20  21
HETATM   21  C           1     -21.581  -3.758 -11.038  0.00  0.00     0.215 C 
HETATM   22  O           1     -22.651  -3.294 -10.719  0.00  0.00    -0.274 OA
HETATM   23  N           1     -21.317  -4.026 -12.354  0.00  0.00    -0.370 N 
HETATM   24  H           1     -20.421  -4.414 -12.622  0.00  0.00     0.159 HD
HETATM   25  H           1     -22.017  -3.836 -13.060  0.00  0.00     0.159 HD
ENDBRANCH  20  21
ENDBRANCH  19  20
ENDBRANCH  18  19
BRANCH  18  26
HETATM   26  C           1     -21.854  -4.046  -7.388  0.00  0.00     0.196 C 
HETATM   27  O           1     -21.469  -2.941  -6.950  0.00  0.00    -0.646 OA
HETATM   28  O           1     -23.075  -4.277  -7.520  0.00  0.00    -0.646 OA
ENDBRANCH  18  26
ENDBRANCH   1  18
TORSDOF 9
ENDMDL
MODEL 7
REMARK VINA RESULT:      -5.4      2.999      4.609
REMARK  9 active torsions:
REMARK  status: ('A' for Active; 'I' for Inactive)
REMARK    1  A    between atoms: N_3  and  C_11 
REMARK       I    between atoms: N_3  and  C_23 
REMARK    2  A    between atoms: C_6  and  C_18 
REMARK    3  A    between atoms: C_6  and  C_26 
REMARK    4  A    between atoms: C_11  and  C_12 
REMARK    5  A    between atoms: C_11  and  C_15 
REMARK    6  A    between atoms: C_12  and  C_13 
REMARK    7  A    between atoms: C_13  and  C_22 
REMARK       I    between atoms: N_17  and  C_22 
REMARK    8  A    between atoms: C_18  and  C_23 
REMARK    9  A    between atoms: C_18  and  N_19 
ROOT
HETATM    1  N           1     -21.057  -9.311  -2.694  0.00  0.00    -0.345 N 
HETATM    2  H           1     -21.585  -8.448  -2.726  0.00  0.00     0.163 HD
HETATM    3  C           1     -20.054  -9.533  -3.599  0.00  0.00     0.249 C 
HETATM    4  O           1     -19.423 -10.562  -3.562  0.00  0.00    -0.271 OA
ENDROOT
BRANCH   3   5
HETATM    5  C           1     -19.735  -8.491  -4.643  0.00  0.00     0.280 C 
BRANCH   5   6
HETATM    6  C           1     -21.031  -7.953  -5.238  0.00  0.00     0.101 C 
BRANCH   6   7
HETATM    7  C           1     -20.779  -6.614  -5.857  0.00  0.00     0.028 A 
HETATM    8  N           1     -20.583  -6.399  -7.197  0.00  0.00    -0.355 N 
HETATM    9  C           1     -20.399  -5.104  -7.316  0.00  0.00     0.180 A 
ATOM     10  HN          1     -20.581  -7.096  -7.942  1.00  0.00     0.166 HD
HETATM   11  N           1     -20.468  -4.475  -6.106  0.00  0.00    -0.360 N 
HETATM   12  H           1     -20.356  -3.445  -5.933  0.00  0.00     0.166 HD
HETATM   13  C           1     -20.712  -5.431  -5.159  0.00  0.00     0.114 A 
ENDBRANCH   6   7
ENDBRANCH   5   6
BRANCH   5  14
HETATM   14  N           1     -18.907  -9.110  -5.729  0.00  0.00    -0.066 N 
HETATM   15  H           1     -17.897  -9.070  -5.461  0.00  0.00     0.275 HD
HETATM   16  H           1     -19.052  -8.584  -6.621  0.00  0.00     0.275 HD
HETATM   17  H           1     -19.194 -10.106  -5.863  0.00  0.00     0.275 HD
ENDBRANCH   5  14
ENDBRANCH   3   5
BRANCH   1  18
HETATM   18  C           1     -21.362 -10.312  -1.690  0.00  0.00     0.186 C 
BRANCH  18  19
HETATM   19  C           1     -21.305  -9.678  -0.307  0.00  0.00     0.045 C 
BRANCH  19  20
HETATM   20  C           1     -21.144  -8.170  -0.445  0.00  0.00     0.105 C 
BRANCH  20  21
HETATM   21  C           1     -22.493  -7.506  -0.326  0.00  0.00     0.215 C 
HETATM   22  O           1     -22.755  -6.541  -1.006  0.00  0.00    -0.274 OA
HETATM   23  N           1     -23.422  -7.995   0.552  0.00  0.00    -0.370 N 
HETATM   24  H           1     -23.204  -8.803   1.121  0.00  0.00     0.159 HD
HETATM   25  H           1     -24.328  -7.550   0.631  0.00  0.00     0.159 HD
ENDBRANCH  20  21
ENDBRANCH  19  20
ENDBRANCH  18  19
BRANCH  18  26
HETATM   26  C           1     -22.747 -10.862  -1.934  0.00  0.00     0.196 C 
HETATM   27  O           1     -23.007 -11.444  -3.010  0.00  0.00    -0.646 OA
HETATM   28  O           1     -23.631 -10.735  -1.061  0.00  0.00    -0.646 OA
ENDBRANCH  18  26
ENDBRANCH   1  18
TORSDOF 9
ENDMDL
MODEL 8
REMARK VINA RESULT:      -5.3      4.167      7.054
REMARK  9 active torsions:
REMARK  status: ('A' for Active; 'I' for Inactive)
REMARK    1  A    between atoms: N_3  and  C_11 
REMARK       I    between atoms: N_3  and  C_23 
REMARK    2  A    between atoms: C_6  and  C_18 
REMARK    3  A    between atoms: C_6  and  C_26 
REMARK    4  A    between atoms: C_11  and  C_12 
REMARK    5  A    between atoms: C_11  and  C_15 
REMARK    6  A    between atoms: C_12  and  C_13 
REMARK    7  A    between atoms: C_13  and  C_22 
REMARK       I    between atoms: N_17  and  C_22 
REMARK    8  A    between atoms: C_18  and  C_23 
REMARK    9  A    between atoms: C_18  and  N_19 
ROOT
HETATM    1  N           1     -19.857  -8.856  -4.860  0.00  0.00    -0.345 N 
HETATM    2  H           1     -19.027  -8.316  -5.065  0.00  0.00     0.163 HD
HETATM    3  C           1     -19.881 -10.199  -5.122  0.00  0.00     0.249 C 
HETATM    4  O           1     -20.871 -10.846  -4.878  0.00  0.00    -0.271 OA
ENDROOT
BRANCH   3   5
HETATM    5  C           1     -18.668 -10.874  -5.717  0.00  0.00     0.280 C 
BRANCH   5   6
HETATM    6  C           1     -17.470  -9.938  -5.627  0.00  0.00     0.101 C 
BRANCH   6   7
HETATM    7  C           1     -16.644 -10.296  -4.431  0.00  0.00     0.028 A 
HETATM    8  N           1     -16.611  -9.577  -3.264  0.00  0.00    -0.355 N 
HETATM    9  C           1     -15.775 -10.223  -2.484  0.00  0.00     0.180 A 
ATOM     10  HN          1     -17.126  -8.724  -3.048  1.00  0.00     0.166 HD
HETATM   11  N           1     -15.267 -11.330  -3.102  0.00  0.00    -0.360 N 
HETATM   12  H           1     -14.581 -12.011  -2.691  0.00  0.00     0.166 HD
HETATM   13  C           1     -15.816 -11.390  -4.352  0.00  0.00     0.114 A 
ENDBRANCH   6   7
ENDBRANCH   5   6
BRANCH   5  14
HETATM   14  N           1     -18.937 -11.205  -7.155  0.00  0.00    -0.066 N 
HETATM   15  H           1     -18.687 -10.385  -7.753  0.00  0.00     0.275 HD
HETATM   16  H           1     -19.950 -11.430  -7.277  0.00  0.00     0.275 HD
HETATM   17  H           1     -18.361 -12.030  -7.437  0.00  0.00     0.275 HD
ENDBRANCH   5  14
ENDBRANCH   3   5
BRANCH   1  18
HETATM   18  C           1     -21.021  -8.209  -4.288  0.00  0.00     0.186 C 
BRANCH  18  19
HETATM   19  C           1     -20.638  -7.542  -2.974  0.00  0.00     0.045 C 
BRANCH  19  20
HETATM   20  C           1     -21.516  -8.082  -1.854  0.00  0.00     0.105 C 
BRANCH  20  21
HETATM   21  C           1     -22.326  -6.956  -1.260  0.00  0.00     0.215 C 
HETATM   22  O           1     -23.012  -7.154  -0.284  0.00  0.00    -0.274 OA
HETATM   23  N           1     -22.284  -5.711  -1.826  0.00  0.00    -0.370 N 
HETATM   24  H           1     -21.709  -5.544  -2.642  0.00  0.00     0.159 HD
HETATM   25  H           1     -22.827  -4.955  -1.427  0.00  0.00     0.159 HD
ENDBRANCH  20  21
ENDBRANCH  19  20
ENDBRANCH  18  19
BRANCH  18  26
HETATM   26  C           1     -21.539  -7.167  -5.249  0.00  0.00     0.196 C 
HETATM   27  O           1     -22.380  -6.325  -4.865  0.00  0.00    -0.646 OA
HETATM   28  O           1     -21.126  -7.145  -6.428  0.00  0.00    -0.646 OA
ENDBRANCH  18  26
ENDBRANCH   1  18
TORSDOF 9
ENDMDL
MODEL 9
REMARK VINA RESULT:      -5.2      2.178      3.191
REMARK  9 active torsions:
REMARK  status: ('A' for Active; 'I' for Inactive)
REMARK    1  A    between atoms: N_3  and  C_11 
REMARK       I    between atoms: N_3  and  C_23 
REMARK    2  A    between atoms: C_6  and  C_18 
REMARK    3  A    between atoms: C_6  and  C_26 
REMARK    4  A    between atoms: C_11  and  C_12 
REMARK    5  A    between atoms: C_11  and  C_15 
REMARK    6  A    between atoms: C_12  and  C_13 
REMARK    7  A    between atoms: C_13  and  C_22 
REMARK       I    between atoms: N_17  and  C_22 
REMARK    8  A    between atoms: C_18  and  C_23 
REMARK    9  A    between atoms: C_18  and  N_19 
ROOT
HETATM    1  N           1     -20.578  -8.175  -3.863  0.00  0.00    -0.345 N 
HETATM    2  H           1     -20.548  -8.746  -4.698  0.00  0.00     0.163 HD
HETATM    3  C           1     -21.050  -6.893  -3.928  0.00  0.00     0.249 C 
HETATM    4  O           1     -21.085  -6.210  -2.932  0.00  0.00    -0.271 OA
ENDROOT
BRANCH   3   5
HETATM    5  C           1     -21.528  -6.329  -5.245  0.00  0.00     0.280 C 
BRANCH   5   6
HETATM    6  C           1     -20.804  -5.020  -5.531  0.00  0.00     0.101 C 
BRANCH   6   7
HETATM    7  C           1     -20.837  -4.741  -7.001  0.00  0.00     0.028 A 
HETATM    8  N           1     -19.972  -5.282  -7.917  0.00  0.00    -0.355 N 
HETATM    9  C           1     -20.340  -4.786  -9.076  0.00  0.00     0.180 A 
ATOM     10  HN          1     -19.207  -5.932  -7.737  1.00  0.00     0.166 HD
HETATM   11  N           1     -21.409  -3.945  -8.944  0.00  0.00    -0.360 N 
HETATM   12  H           1     -21.889  -3.424  -9.719  0.00  0.00     0.166 HD
HETATM   13  C           1     -21.739  -3.906  -7.618  0.00  0.00     0.114 A 
ENDBRANCH   6   7
ENDBRANCH   5   6
BRANCH   5  14
HETATM   14  N           1     -23.004  -6.078  -5.174  0.00  0.00    -0.066 N 
HETATM   15  H           1     -23.440  -6.749  -4.501  0.00  0.00     0.275 HD
HETATM   16  H           1     -23.426  -6.212  -6.121  0.00  0.00     0.275 HD
HETATM   17  H           1     -23.177  -5.099  -4.852  0.00  0.00     0.275 HD
ENDBRANCH   5  14
ENDBRANCH   3   5
BRANCH   1  18
HETATM   18  C           1     -20.119  -8.716  -2.598  0.00  0.00     0.186 C 
BRANCH  18  19
HETATM   19  C           1     -21.253  -9.484  -1.933  0.00  0.00     0.045 C 
BRANCH  19  20
HETATM   20  C           1     -21.309  -9.127  -0.453  0.00  0.00     0.105 C 
BRANCH  20  21
HETATM   21  C           1     -22.520  -8.267  -0.188  0.00  0.00     0.215 C 
HETATM   22  O           1     -23.468  -8.725   0.408  0.00  0.00    -0.274 OA
HETATM   23  N           1     -22.547  -6.970  -0.621  0.00  0.00    -0.370 N 
HETATM   24  H           1     -21.754  -6.586  -1.120  0.00  0.00     0.159 HD
HETATM   25  H           1     -23.360  -6.392  -0.443  0.00  0.00     0.159 HD
ENDBRANCH  20  21
ENDBRANCH  19  20
ENDBRANCH  18  19
BRANCH  18  26
HETATM   26  C           1     -18.957  -9.647  -2.842  0.00  0.00     0.196 C 
HETATM   27  O           1     -19.165 -10.838  -3.157  0.00  0.00    -0.646 OA
HETATM   28  O           1     -17.786  -9.225  -2.729  0.00  0.00    -0.646 OA
ENDBRANCH  18  26
ENDBRANCH   1  18
TORSDOF 9
ENDMDL
