MODEL 1
REMARK VINA RESULT:      -7.5      0.000      0.000
REMARK  7 active torsions:
REMARK  status: ('A' for Active; 'I' for Inactive)
REMARK    1  A    between atoms: C_1  and  C_6 
REMARK    2  A    between atoms: C_1  and  C_13 
REMARK    3  A    between atoms: C_1  and  N_2 
REMARK    4  A    between atoms: N_4  and  C_17 
REMARK       I    between atoms: N_4  and  C_6 
REMARK    5  A    between atoms: C_11  and  C_13 
REMARK    6  A    between atoms: C_15  and  C_17 
REMARK    7  A    between atoms: C_17  and  C_19 
ROOT
HETATM    1  C           1     -21.156  -5.673  -6.923  0.00  0.00     0.278 C 
ENDROOT
BRANCH   1   2
HETATM    2  C           1     -21.688  -4.513  -7.728  0.00  0.00     0.249 C 
HETATM    3  N           1     -22.195  -4.725  -8.982  0.00  0.00    -0.344 N 
HETATM    4  H           1     -22.212  -5.660  -9.369  0.00  0.00     0.163 HD
HETATM    5  O           1     -21.667  -3.397  -7.267  0.00  0.00    -0.271 OA
BRANCH   3   6
HETATM    6  C           1     -22.705  -3.611  -9.757  0.00  0.00     0.189 C 
BRANCH   6   7
HETATM    7  C           1     -24.163  -3.841 -10.069  0.00  0.00     0.197 C 
HETATM    8  O           1     -24.710  -4.916  -9.741  0.00  0.00    -0.646 OA
HETATM    9  O           1     -24.825  -2.957 -10.654  0.00  0.00    -0.646 OA
ENDBRANCH   6   7
BRANCH   6  10
HETATM   10  C           1     -21.921  -3.493 -11.057  0.00  0.00     0.010 C 
HETATM   11  C           1     -22.225  -4.692 -11.946  0.00  0.00     0.012 C 
HETATM   12  C           1     -20.431  -3.457 -10.748  0.00  0.00     0.012 C 
ENDBRANCH   6  10
ENDBRANCH   3   6
ENDBRANCH   1   2
BRANCH   1  13
HETATM   13  C           1     -20.882  -5.218  -5.496  0.00  0.00     0.081 C 
BRANCH  13  14
HETATM   14  C           1     -21.155  -6.345  -4.551  0.00  0.00    -0.056 A 
HETATM   15  C           1     -21.269  -6.098  -3.183  0.00  0.00     0.007 A 
HETATM   16  C           1     -21.524  -7.148  -2.302  0.00  0.00     0.001 A 
HETATM   17  C           1     -21.664  -8.448  -2.788  0.00  0.00     0.000 A 
HETATM   18  C           1     -21.550  -8.697  -4.156  0.00  0.00     0.001 A 
HETATM   19  C           1     -21.295  -7.645  -5.037  0.00  0.00     0.007 A 
ENDBRANCH  13  14
ENDBRANCH   1  13
BRANCH   1  20
HETATM   20  N           1     -19.883  -6.170  -7.542  0.00  0.00    -0.066 N 
HETATM   21  H           1     -20.064  -6.455  -8.531  0.00  0.00     0.275 HD
HETATM   22  H           1     -19.168  -5.408  -7.524  0.00  0.00     0.275 HD
HETATM   23  H           1     -19.531  -6.992  -7.001  0.00  0.00     0.275 HD
ENDBRANCH   1  20
TORSDOF 7
ENDMDL
MODEL 2
REMARK VINA RESULT:      -7.3      2.659      7.248
REMARK  7 active torsions:
REMARK  status: ('A' for Active; 'I' for Inactive)
REMARK    1  A    between atoms: C_1  and  C_6 
REMARK    2  A    between atoms: C_1  and  C_13 
REMARK    3  A    between atoms: C_1  and  N_2 
REMARK    4  A    between atoms: N_4  and  C_17 
REMARK       I    between atoms: N_4  and  C_6 
REMARK    5  A    between atoms: C_11  and  C_13 
REMARK    6  A    between atoms: C_15  and  C_17 
REMARK    7  A    between atoms: C_17  and  C_19 
ROOT
HETATM    1  C           1     -22.316  -5.269  -6.793  0.00  0.00     0.278 C 
ENDROOT
BRANCH   1   2
HETATM    2  C           1     -21.365  -5.793  -5.745  0.00  0.00     0.249 C 
HETATM    3  N           1     -21.776  -6.763  -4.872  0.00  0.00    -0.344 N 
HETATM    4  H           1     -22.718  -7.129  -4.929  0.00  0.00     0.163 HD
HETATM    5  O           1     -20.241  -5.356  -5.677  0.00  0.00    -0.271 OA
BRANCH   3   6
HETATM    6  C           1     -20.863  -7.266  -3.864  0.00  0.00     0.189 C 
BRANCH   6   7
HETATM    7  C           1     -20.302  -8.594  -4.311  0.00  0.00     0.197 C 
HETATM    8  O           1     -19.071  -8.727  -4.476  0.00  0.00    -0.646 OA
HETATM    9  O           1     -21.068  -9.560  -4.515  0.00  0.00    -0.646 OA
ENDBRANCH   6   7
BRANCH   6  10
HETATM   10  C           1     -21.608  -7.448  -2.548  0.00  0.00     0.010 C 
HETATM   11  C           1     -22.172  -6.108  -2.093  0.00  0.00     0.012 C 
HETATM   12  C           1     -20.648  -7.979  -1.492  0.00  0.00     0.012 C 
ENDBRANCH   6  10
ENDBRANCH   3   6
ENDBRANCH   1   2
BRANCH   1  13
HETATM   13  C           1     -21.770  -3.970  -7.372  0.00  0.00     0.081 C 
BRANCH  13  14
HETATM   14  C           1     -21.692  -4.080  -8.862  0.00  0.00    -0.056 A 
HETATM   15  C           1     -22.861  -4.158  -9.618  0.00  0.00     0.007 A 
HETATM   16  C           1     -22.788  -4.260 -11.007  0.00  0.00     0.001 A 
HETATM   17  C           1     -21.546  -4.284 -11.641  0.00  0.00     0.000 A 
HETATM   18  C           1     -20.376  -4.205 -10.885  0.00  0.00     0.001 A 
HETATM   19  C           1     -20.450  -4.103  -9.495  0.00  0.00     0.007 A 
ENDBRANCH  13  14
ENDBRANCH   1  13
BRANCH   1  20
HETATM   20  N           1     -23.656  -5.014  -6.170  0.00  0.00    -0.066 N 
HETATM   21  H           1     -24.381  -5.589  -6.654  0.00  0.00     0.275 HD
HETATM   22  H           1     -23.623  -5.272  -5.158  0.00  0.00     0.275 HD
HETATM   23  H           1     -23.896  -4.000  -6.263  0.00  0.00     0.275 HD
ENDBRANCH   1  20
TORSDOF 7
ENDMDL
MODEL 3
REMARK VINA RESULT:      -7.0      4.291      7.950
REMARK  7 active torsions:
REMARK  status: ('A' for Active; 'I' for Inactive)
REMARK    1  A    between atoms: C_1  and  C_6 
REMARK    2  A    between atoms: C_1  and  C_13 
REMARK    3  A    between atoms: C_1  and  N_2 
REMARK    4  A    between atoms: N_4  and  C_17 
REMARK       I    between atoms: N_4  and  C_6 
REMARK    5  A    between atoms: C_11  and  C_13 
REMARK    6  A    between atoms: C_15  and  C_17 
REMARK    7  A    between atoms: C_17  and  C_19 
ROOT
HETATM    1  C           1     -20.400  -7.591  -4.889  0.00  0.00     0.278 C 
ENDROOT
BRANCH   1   2
HETATM    2  C           1     -20.397  -8.304  -3.559  0.00  0.00     0.249 C 
HETATM    3  N           1     -21.547  -8.382  -2.821  0.00  0.00    -0.344 N 
HETATM    4  H           1     -22.399  -7.962  -3.167  0.00  0.00     0.163 HD
HETATM    5  O           1     -19.379  -8.807  -3.145  0.00  0.00    -0.271 OA
BRANCH   3   6
HETATM    6  C           1     -21.544  -9.066  -1.543  0.00  0.00     0.189 C 
BRANCH   6   7
HETATM    7  C           1     -22.200 -10.416  -1.693  0.00  0.00     0.197 C 
HETATM    8  O           1     -23.355 -10.602  -1.251  0.00  0.00    -0.646 OA
HETATM    9  O           1     -21.591 -11.349  -2.259  0.00  0.00    -0.646 OA
ENDBRANCH   6   7
BRANCH   6  10
HETATM   10  C           1     -22.312  -8.239  -0.521  0.00  0.00     0.010 C 
HETATM   11  C           1     -22.361  -6.786  -0.974  0.00  0.00     0.012 C 
HETATM   12  C           1     -21.614  -8.326   0.829  0.00  0.00     0.012 C 
ENDBRANCH   6  10
ENDBRANCH   3   6
ENDBRANCH   1   2
BRANCH   1  13
HETATM   13  C           1     -21.065  -6.230  -4.734  0.00  0.00     0.081 C 
BRANCH  13  14
HETATM   14  C           1     -20.900  -5.446  -5.998  0.00  0.00    -0.056 A 
HETATM   15  C           1     -19.623  -5.185  -6.496  0.00  0.00     0.007 A 
HETATM   16  C           1     -19.469  -4.456  -7.675  0.00  0.00     0.001 A 
HETATM   17  C           1     -20.592  -3.987  -8.357  0.00  0.00     0.000 A 
HETATM   18  C           1     -21.869  -4.249  -7.860  0.00  0.00     0.001 A 
HETATM   19  C           1     -22.023  -4.978  -6.681  0.00  0.00     0.007 A 
ENDBRANCH  13  14
ENDBRANCH   1  13
BRANCH   1  20
HETATM   20  N           1     -21.161  -8.407  -5.892  0.00  0.00    -0.066 N 
HETATM   21  H           1     -20.490  -8.946  -6.485  0.00  0.00     0.275 HD
HETATM   22  H           1     -21.794  -9.071  -5.391  0.00  0.00     0.275 HD
HETATM   23  H           1     -21.730  -7.772  -6.497  0.00  0.00     0.275 HD
ENDBRANCH   1  20
TORSDOF 7
ENDMDL
MODEL 4
REMARK VINA RESULT:      -6.9     11.730     14.253
REMARK  7 active torsions:
REMARK  status: ('A' for Active; 'I' for Inactive)
REMARK    1  A    between atoms: C_1  and  C_6 
REMARK    2  A    between atoms: C_1  and  C_13 
REMARK    3  A    between atoms: C_1  and  N_2 
REMARK    4  A    between atoms: N_4  and  C_17 
REMARK       I    between atoms: N_4  and  C_6 
REMARK    5  A    between atoms: C_11  and  C_13 
REMARK    6  A    between atoms: C_15  and  C_17 
REMARK    7  A    between atoms: C_17  and  C_19 
ROOT
HETATM    1  C           1     -26.239  -7.554 -20.475  0.00  0.00     0.278 C 
ENDROOT
BRANCH   1   2
HETATM    2  C           1     -27.112  -6.508 -19.825  0.00  0.00     0.249 C 
HETATM    3  N           1     -27.544  -6.680 -18.538  0.00  0.00    -0.344 N 
HETATM    4  H           1     -27.278  -7.508 -18.022  0.00  0.00     0.163 HD
HETATM    5  O           1     -27.430  -5.519 -20.442  0.00  0.00    -0.271 OA
BRANCH   3   6
HETATM    6  C           1     -28.383  -5.676 -17.914  0.00  0.00     0.189 C 
BRANCH   6   7
HETATM    7  C           1     -27.579  -4.910 -16.893  0.00  0.00     0.197 C 
HETATM    8  O           1     -26.546  -5.416 -16.405  0.00  0.00    -0.646 OA
HETATM    9  O           1     -27.944  -3.769 -16.537  0.00  0.00    -0.646 OA
ENDBRANCH   6   7
BRANCH   6  10
HETATM   10  C           1     -29.562  -6.354 -17.227  0.00  0.00     0.010 C 
HETATM   11  C           1     -30.025  -7.541 -18.061  0.00  0.00     0.012 C 
HETATM   12  C           1     -30.705  -5.358 -17.083  0.00  0.00     0.012 C 
ENDBRANCH   6  10
ENDBRANCH   3   6
ENDBRANCH   1   2
BRANCH   1  13
HETATM   13  C           1     -25.335  -6.892 -21.507  0.00  0.00     0.081 C 
BRANCH  13  14
HETATM   14  C           1     -24.044  -7.643 -21.594  0.00  0.00    -0.056 A 
HETATM   15  C           1     -23.622  -8.167 -22.817  0.00  0.00     0.007 A 
HETATM   16  C           1     -22.419  -8.866 -22.899  0.00  0.00     0.001 A 
HETATM   17  C           1     -21.635  -9.043 -21.758  0.00  0.00     0.000 A 
HETATM   18  C           1     -22.056  -8.519 -20.536  0.00  0.00     0.001 A 
HETATM   19  C           1     -23.260  -7.819 -20.454  0.00  0.00     0.007 A 
ENDBRANCH  13  14
ENDBRANCH   1  13
BRANCH   1  20
HETATM   20  N           1     -27.103  -8.577 -21.150  0.00  0.00    -0.066 N 
HETATM   21  H           1     -26.547  -9.445 -21.322  0.00  0.00     0.275 HD
HETATM   22  H           1     -27.919  -8.801 -20.538  0.00  0.00     0.275 HD
HETATM   23  H           1     -27.445  -8.196 -22.062  0.00  0.00     0.275 HD
ENDBRANCH   1  20
TORSDOF 7
ENDMDL
MODEL 5
REMARK VINA RESULT:      -6.6      2.656      7.080
REMARK  7 active torsions:
REMARK  status: ('A' for Active; 'I' for Inactive)
REMARK    1  A    between atoms: C_1  and  C_6 
REMARK    2  A    between atoms: C_1  and  C_13 
REMARK    3  A    between atoms: C_1  and  N_2 
REMARK    4  A    between atoms: N_4  and  C_17 
REMARK       I    between atoms: N_4  and  C_6 
REMARK    5  A    between atoms: C_11  and  C_13 
REMARK    6  A    between atoms: C_15  and  C_17 
REMARK    7  A    between atoms: C_17  and  C_19 
ROOT
HETATM    1  C           1     -20.274  -5.506  -6.085  0.00  0.00     0.278 C 
ENDROOT
BRANCH   1   2
HETATM    2  C           1     -21.240  -6.216  -5.169  0.00  0.00     0.249 C 
HETATM    3  N           1     -20.769  -7.034  -4.178  0.00  0.00    -0.344 N 
HETATM    4  H           1     -19.772  -7.162  -4.060  0.00  0.00     0.163 HD
HETATM    5  O           1     -22.430  -6.063  -5.310  0.00  0.00    -0.271 OA
BRANCH   3   6
HETATM    6  C           1     -21.697  -7.717  -3.298  0.00  0.00     0.189 C 
BRANCH   6   7
HETATM    7  C           1     -21.825  -6.949  -2.007  0.00  0.00     0.197 C 
HETATM    8  O           1     -21.329  -7.407  -0.955  0.00  0.00    -0.646 OA
HETATM    9  O           1     -22.426  -5.853  -1.988  0.00  0.00    -0.646 OA
ENDBRANCH   6   7
BRANCH   6  10
HETATM   10  C           1     -21.180  -9.120  -3.005  0.00  0.00     0.010 C 
HETATM   11  C           1     -19.727  -9.232  -3.448  0.00  0.00     0.012 C 
HETATM   12  C           1     -22.021 -10.138  -3.763  0.00  0.00     0.012 C 
ENDBRANCH   6  10
ENDBRANCH   3   6
ENDBRANCH   1   2
BRANCH   1  13
HETATM   13  C           1     -20.868  -4.171  -6.514  0.00  0.00     0.081 C 
BRANCH  13  14
HETATM   14  C           1     -21.190  -4.214  -7.975  0.00  0.00    -0.056 A 
HETATM   15  C           1     -22.505  -4.415  -8.395  0.00  0.00     0.007 A 
HETATM   16  C           1     -22.805  -4.455  -9.756  0.00  0.00     0.001 A 
HETATM   17  C           1     -21.790  -4.294 -10.699  0.00  0.00     0.000 A 
HETATM   18  C           1     -20.475  -4.092 -10.280  0.00  0.00     0.001 A 
HETATM   19  C           1     -20.175  -4.052  -8.918  0.00  0.00     0.007 A 
ENDBRANCH  13  14
ENDBRANCH   1  13
BRANCH   1  20
HETATM   20  N           1     -20.019  -6.352  -7.297  0.00  0.00    -0.066 N 
HETATM   21  H           1     -19.775  -7.323  -6.999  0.00  0.00     0.275 HD
HETATM   22  H           1     -20.878  -6.375  -7.891  0.00  0.00     0.275 HD
HETATM   23  H           1     -19.226  -5.946  -7.844  0.00  0.00     0.275 HD
ENDBRANCH   1  20
TORSDOF 7
ENDMDL
MODEL 6
REMARK VINA RESULT:      -6.4      3.644      7.442
REMARK  7 active torsions:
REMARK  status: ('A' for Active; 'I' for Inactive)
REMARK    1  A    between atoms: C_1  and  C_6 
REMARK    2  A    between atoms: C_1  and  C_13 
REMARK    3  A    between atoms: C_1  and  N_2 
REMARK    4  A    between atoms: N_4  and  C_17 
REMARK       I    between atoms: N_4  and  C_6 
REMARK    5  A    between atoms: C_11  and  C_13 
REMARK    6  A    between atoms: C_15  and  C_17 
REMARK    7  A    between atoms: C_17  and  C_19 
ROOT
HETATM    1  C           1     -21.501  -6.417  -5.545  0.00  0.00     0.278 C 
ENDROOT
BRANCH   1   2
HETATM    2  C           1     -20.670  -7.651  -5.293  0.00  0.00     0.249 C 
HETATM    3  N           1     -21.032  -8.533  -4.311  0.00  0.00    -0.344 N 
HETATM    4  H           1     -21.858  -8.357  -3.754  0.00  0.00     0.163 HD
HETATM    5  O           1     -19.683  -7.861  -5.958  0.00  0.00    -0.271 OA
BRANCH   3   6
HETATM    6  C           1     -20.233  -9.718  -4.069  0.00  0.00     0.189 C 
BRANCH   6   7
HETATM    7  C           1     -21.123 -10.935  -4.074  0.00  0.00     0.197 C 
HETATM    8  O           1     -20.631 -12.068  -4.263  0.00  0.00    -0.646 OA
HETATM    9  O           1     -22.353 -10.812  -3.889  0.00  0.00    -0.646 OA
ENDBRANCH   6   7
BRANCH   6  10
HETATM   10  C           1     -19.544  -9.599  -2.715  0.00  0.00     0.010 C 
HETATM   11  C           1     -20.147  -8.437  -1.937  0.00  0.00     0.012 C 
HETATM   12  C           1     -18.057  -9.352  -2.924  0.00  0.00     0.012 C 
ENDBRANCH   6  10
ENDBRANCH   3   6
ENDBRANCH   1   2
BRANCH   1  13
HETATM   13  C           1     -20.592  -5.265  -5.951  0.00  0.00     0.081 C 
BRANCH  13  14
HETATM   14  C           1     -20.966  -4.792  -7.320  0.00  0.00    -0.056 A 
HETATM   15  C           1     -20.018  -4.796  -8.343  0.00  0.00     0.007 A 
HETATM   16  C           1     -20.367  -4.356  -9.620  0.00  0.00     0.001 A 
HETATM   17  C           1     -21.664  -3.910  -9.874  0.00  0.00     0.000 A 
HETATM   18  C           1     -22.613  -3.906  -8.851  0.00  0.00     0.001 A 
HETATM   19  C           1     -22.263  -4.347  -7.574  0.00  0.00     0.007 A 
ENDBRANCH  13  14
ENDBRANCH   1  13
BRANCH   1  20
HETATM   20  N           1     -22.243  -6.051  -4.294  0.00  0.00    -0.066 N 
HETATM   21  H           1     -22.320  -6.890  -3.675  0.00  0.00     0.275 HD
HETATM   22  H           1     -21.727  -5.294  -3.792  0.00  0.00     0.275 HD
HETATM   23  H           1     -23.201  -5.713  -4.544  0.00  0.00     0.275 HD
ENDBRANCH   1  20
TORSDOF 7
ENDMDL
MODEL 7
REMARK VINA RESULT:      -6.4      4.240      8.339
REMARK  7 active torsions:
REMARK  status: ('A' for Active; 'I' for Inactive)
REMARK    1  A    between atoms: C_1  and  C_6 
REMARK    2  A    between atoms: C_1  and  C_13 
REMARK    3  A    between atoms: C_1  and  N_2 
REMARK    4  A    between atoms: N_4  and  C_17 
REMARK       I    between atoms: N_4  and  C_6 
REMARK    5  A    between atoms: C_11  and  C_13 
REMARK    6  A    between atoms: C_15  and  C_17 
REMARK    7  A    between atoms: C_17  and  C_19 
ROOT
HETATM    1  C           1     -20.492  -7.702  -4.237  0.00  0.00     0.278 C 
ENDROOT
BRANCH   1   2
HETATM    2  C           1     -21.316  -7.943  -2.996  0.00  0.00     0.249 C 
HETATM    3  N           1     -21.354  -9.189  -2.430  0.00  0.00    -0.344 N 
HETATM    4  H           1     -20.829  -9.948  -2.844  0.00  0.00     0.163 HD
HETATM    5  O           1     -21.943  -7.036  -2.502  0.00  0.00    -0.271 OA
BRANCH   3   6
HETATM    6  C           1     -22.146  -9.420  -1.238  0.00  0.00     0.189 C 
BRANCH   6   7
HETATM    7  C           1     -21.273  -9.275  -0.016  0.00  0.00     0.197 C 
HETATM    8  O           1     -21.324  -8.230   0.667  0.00  0.00    -0.646 OA
HETATM    9  O           1     -20.499 -10.200   0.313  0.00  0.00    -0.646 OA
ENDBRANCH   6   7
BRANCH   6  10
HETATM   10  C           1     -22.730 -10.827  -1.280  0.00  0.00     0.010 C 
HETATM   11  C           1     -23.085 -11.189  -2.717  0.00  0.00     0.012 C 
HETATM   12  C           1     -23.984 -10.881  -0.419  0.00  0.00     0.012 C 
ENDBRANCH   6  10
ENDBRANCH   3   6
ENDBRANCH   1   2
BRANCH   1  13
HETATM   13  C           1     -21.414  -7.560  -5.440  0.00  0.00     0.081 C 
BRANCH  13  14
HETATM   14  C           1     -21.086  -6.299  -6.175  0.00  0.00    -0.056 A 
HETATM   15  C           1     -19.791  -6.083  -6.647  0.00  0.00     0.007 A 
HETATM   16  C           1     -19.485  -4.908  -7.332  0.00  0.00     0.001 A 
HETATM   17  C           1     -20.473  -3.948  -7.547  0.00  0.00     0.000 A 
HETATM   18  C           1     -21.769  -4.164  -7.077  0.00  0.00     0.001 A 
HETATM   19  C           1     -22.074  -5.340  -6.391  0.00  0.00     0.007 A 
ENDBRANCH  13  14
ENDBRANCH   1  13
BRANCH   1  20
HETATM   20  N           1     -19.563  -8.861  -4.453  0.00  0.00    -0.066 N 
HETATM   21  H           1     -18.898  -8.929  -3.650  0.00  0.00     0.275 HD
HETATM   22  H           1     -20.119  -9.743  -4.520  0.00  0.00     0.275 HD
HETATM   23  H           1     -19.028  -8.717  -5.339  0.00  0.00     0.275 HD
ENDBRANCH   1  20
TORSDOF 7
ENDMDL
MODEL 8
REMARK VINA RESULT:      -6.4     18.531     19.964
REMARK  7 active torsions:
REMARK  status: ('A' for Active; 'I' for Inactive)
REMARK    1  A    between atoms: C_1  and  C_6 
REMARK    2  A    between atoms: C_1  and  C_13 
REMARK    3  A    between atoms: C_1  and  N_2 
REMARK    4  A    between atoms: N_4  and  C_17 
REMARK       I    between atoms: N_4  and  C_6 
REMARK    5  A    between atoms: C_11  and  C_13 
REMARK    6  A    between atoms: C_15  and  C_17 
REMARK    7  A    between atoms: C_17  and  C_19 
ROOT
HETATM    1  C           1     -14.938   9.312   5.646  0.00  0.00     0.278 C 
ENDROOT
BRANCH   1   2
HETATM    2  C           1     -16.034  10.218   5.142  0.00  0.00     0.249 C 
HETATM    3  N           1     -17.198   9.683   4.662  0.00  0.00    -0.344 N 
HETATM    4  H           1     -17.324   8.679   4.645  0.00  0.00     0.163 HD
HETATM    5  O           1     -15.884  11.417   5.162  0.00  0.00    -0.271 OA
BRANCH   3   6
HETATM    6  C           1     -18.251  10.554   4.176  0.00  0.00     0.189 C 
BRANCH   6   7
HETATM    7  C           1     -19.516  10.297   4.957  0.00  0.00     0.197 C 
HETATM    8  O           1     -19.522   9.450   5.876  0.00  0.00    -0.646 OA
HETATM    9  O           1     -20.558  10.932   4.686  0.00  0.00    -0.646 OA
ENDBRANCH   6   7
BRANCH   6  10
HETATM   10  C           1     -18.501  10.276   2.700  0.00  0.00     0.010 C 
HETATM   11  C           1     -18.585   8.772   2.471  0.00  0.00     0.012 C 
HETATM   12  C           1     -17.358  10.851   1.876  0.00  0.00     0.012 C 
ENDBRANCH   6  10
ENDBRANCH   3   6
ENDBRANCH   1   2
BRANCH   1  13
HETATM   13  C           1     -14.824   8.097   4.736  0.00  0.00     0.081 C 
BRANCH  13  14
HETATM   14  C           1     -14.349   8.528   3.384  0.00  0.00    -0.056 A 
HETATM   15  C           1     -14.946   8.007   2.236  0.00  0.00     0.007 A 
HETATM   16  C           1     -14.504   8.410   0.976  0.00  0.00     0.001 A 
HETATM   17  C           1     -13.464   9.332   0.863  0.00  0.00     0.000 A 
HETATM   18  C           1     -12.867   9.854   2.011  0.00  0.00     0.001 A 
HETATM   19  C           1     -13.310   9.451   3.271  0.00  0.00     0.007 A 
ENDBRANCH  13  14
ENDBRANCH   1  13
BRANCH   1  20
HETATM   20  N           1     -15.262   8.863   7.040  0.00  0.00    -0.066 N 
HETATM   21  H           1     -14.576   9.278   7.709  0.00  0.00     0.275 HD
HETATM   22  H           1     -16.227   9.177   7.291  0.00  0.00     0.275 HD
HETATM   23  H           1     -15.211   7.820   7.090  0.00  0.00     0.275 HD
ENDBRANCH   1  20
TORSDOF 7
ENDMDL
MODEL 9
REMARK VINA RESULT:      -6.3     18.624     20.708
REMARK  7 active torsions:
REMARK  status: ('A' for Active; 'I' for Inactive)
REMARK    1  A    between atoms: C_1  and  C_6 
REMARK    2  A    between atoms: C_1  and  C_13 
REMARK    3  A    between atoms: C_1  and  N_2 
REMARK    4  A    between atoms: N_4  and  C_17 
REMARK       I    between atoms: N_4  and  C_6 
REMARK    5  A    between atoms: C_11  and  C_13 
REMARK    6  A    between atoms: C_15  and  C_17 
REMARK    7  A    between atoms: C_17  and  C_19 
ROOT
HETATM    1  C           1     -11.488   8.420 -19.759  0.00  0.00     0.278 C 
ENDROOT
BRANCH   1   2
HETATM    2  C           1     -12.126   7.343 -20.600  0.00  0.00     0.249 C 
HETATM    3  N           1     -12.584   6.196 -20.012  0.00  0.00    -0.344 N 
HETATM    4  H           1     -12.494   6.070 -19.012  0.00  0.00     0.163 HD
HETATM    5  O           1     -12.233   7.493 -21.795  0.00  0.00    -0.271 OA
BRANCH   3   6
HETATM    6  C           1     -13.197   5.160 -20.820  0.00  0.00     0.189 C 
BRANCH   6   7
HETATM    7  C           1     -14.697   5.230 -20.676  0.00  0.00     0.197 C 
HETATM    8  O           1     -15.219   5.173 -19.542  0.00  0.00    -0.646 OA
HETATM    9  O           1     -15.418   5.346 -21.691  0.00  0.00    -0.646 OA
ENDBRANCH   6   7
BRANCH   6  10
HETATM   10  C           1     -12.706   3.794 -20.356  0.00  0.00     0.010 C 
HETATM   11  C           1     -11.186   3.803 -20.264  0.00  0.00     0.012 C 
HETATM   12  C           1     -13.148   2.732 -21.352  0.00  0.00     0.012 C 
ENDBRANCH   6  10
ENDBRANCH   3   6
ENDBRANCH   1   2
BRANCH   1  13
HETATM   13  C           1     -11.847   9.788 -20.325  0.00  0.00     0.081 C 
BRANCH  13  14
HETATM   14  C           1     -13.043  10.328 -19.606  0.00  0.00    -0.056 A 
HETATM   15  C           1     -13.374   9.844 -18.340  0.00  0.00     0.007 A 
HETATM   16  C           1     -14.489  10.347 -17.670  0.00  0.00     0.001 A 
HETATM   17  C           1     -15.274  11.335 -18.266  0.00  0.00     0.000 A 
HETATM   18  C           1     -14.943  11.820 -19.531  0.00  0.00     0.001 A 
HETATM   19  C           1     -13.827  11.316 -20.201  0.00  0.00     0.007 A 
ENDBRANCH  13  14
ENDBRANCH   1  13
BRANCH   1  20
HETATM   20  N           1      -9.997   8.249 -19.774  0.00  0.00    -0.066 N 
HETATM   21  H           1      -9.749   7.319 -19.368  0.00  0.00     0.275 HD
HETATM   22  H           1      -9.651   8.305 -20.758  0.00  0.00     0.275 HD
HETATM   23  H           1      -9.555   9.007 -19.205  0.00  0.00     0.275 HD
ENDBRANCH   1  20
TORSDOF 7
ENDMDL
