MODEL 1
REMARK VINA RESULT:      -5.3      0.000      0.000
REMARK  6 active torsions:
REMARK  status: ('A' for Active; 'I' for Inactive)
REMARK    1  A    between atoms: C_5  and  C_13 
REMARK    2  A    between atoms: C_5  and  N_16 
REMARK    3  A    between atoms: C_6  and  C_7 
REMARK    4  A    between atoms: C_6  and  C_17 
REMARK    5  A    between atoms: C_6  and  N_12 
REMARK    6  A    between atoms: C_7  and  O_8 
REMARK       I    between atoms: N_12  and  C_13 
ROOT
HETATM    1  H           1     -21.985  -5.781  -9.363  0.00  0.00     0.163 HD
HETATM    2  O           1     -21.639  -3.230  -7.571  0.00  0.00    -0.271 OA
HETATM    3  N           1     -22.009  -4.801  -9.114  0.00  0.00    -0.343 N 
HETATM    4  C           1     -21.609  -4.400  -7.868  0.00  0.00     0.248 C 
ENDROOT
BRANCH   3   5
HETATM    5  C           1     -22.467  -3.820 -10.079  0.00  0.00     0.209 C 
BRANCH   5   6
HETATM    6  C           1     -21.792  -4.072 -11.420  0.00  0.00     0.200 C 
BRANCH   6   7
HETATM    7  O           1     -22.741  -4.536 -12.343  0.00  0.00    -0.398 OA
HETATM    8  H           1     -23.375  -3.847 -12.451  0.00  0.00     0.209 HD
ENDBRANCH   6   7
ENDBRANCH   5   6
BRANCH   5   9
HETATM    9  C           1     -23.963  -3.935 -10.239  0.00  0.00     0.198 C 
HETATM   10  O           1     -24.622  -2.966 -10.673  0.00  0.00    -0.646 OA
HETATM   11  O           1     -24.544  -5.000  -9.939  0.00  0.00    -0.646 OA
ENDBRANCH   5   9
ENDBRANCH   3   5
BRANCH   4  12
HETATM   12  C           1     -21.132  -5.421  -6.864  0.00  0.00     0.270 C 
HETATM   13  C           1     -20.510  -4.708  -5.671  0.00  0.00     0.050 C 
BRANCH  12  14
HETATM   14  N           1     -20.107  -6.309  -7.505  0.00  0.00    -0.067 N 
HETATM   15  H           1     -20.359  -6.467  -8.506  0.00  0.00     0.275 HD
HETATM   16  H           1     -20.078  -7.226  -7.004  0.00  0.00     0.275 HD
HETATM   17  H           1     -19.168  -5.854  -7.449  0.00  0.00     0.275 HD
ENDBRANCH  12  14
ENDBRANCH   4  12
TORSDOF 6
ENDMDL
MODEL 2
REMARK VINA RESULT:      -5.3     12.538     14.279
REMARK  6 active torsions:
REMARK  status: ('A' for Active; 'I' for Inactive)
REMARK    1  A    between atoms: C_5  and  C_13 
REMARK    2  A    between atoms: C_5  and  N_16 
REMARK    3  A    between atoms: C_6  and  C_7 
REMARK    4  A    between atoms: C_6  and  C_17 
REMARK    5  A    between atoms: C_6  and  N_12 
REMARK    6  A    between atoms: C_7  and  O_8 
REMARK       I    between atoms: N_12  and  C_13 
ROOT
HETATM    1  H           1     -34.203  -1.575 -14.113  0.00  0.00     0.163 HD
HETATM    2  O           1     -35.837  -2.159 -11.500  0.00  0.00    -0.271 OA
HETATM    3  N           1     -34.866  -1.411 -13.366  0.00  0.00    -0.343 N 
HETATM    4  C           1     -35.045  -2.355 -12.391  0.00  0.00     0.248 C 
ENDROOT
BRANCH   3   5
HETATM    5  C           1     -35.625  -0.176 -13.330  0.00  0.00     0.209 C 
BRANCH   5   6
HETATM    6  C           1     -34.773   0.960 -13.881  0.00  0.00     0.200 C 
BRANCH   6   7
HETATM    7  O           1     -35.518   1.694 -14.814  0.00  0.00    -0.398 OA
HETATM    8  H           1     -35.194   2.578 -14.788  0.00  0.00     0.209 HD
ENDBRANCH   6   7
ENDBRANCH   5   6
BRANCH   5   9
HETATM    9  C           1     -36.868  -0.327 -14.171  0.00  0.00     0.198 C 
HETATM   10  O           1     -36.802  -0.878 -15.292  0.00  0.00    -0.646 OA
HETATM   11  O           1     -37.965   0.098 -13.748  0.00  0.00    -0.646 OA
ENDBRANCH   5   9
ENDBRANCH   3   5
BRANCH   4  12
HETATM   12  C           1     -34.255  -3.639 -12.429  0.00  0.00     0.270 C 
HETATM   13  C           1     -33.005  -3.492 -11.573  0.00  0.00     0.050 C 
BRANCH  12  14
HETATM   14  N           1     -33.858  -3.939 -13.844  0.00  0.00    -0.067 N 
HETATM   15  H           1     -34.329  -4.817 -14.160  0.00  0.00     0.275 HD
HETATM   16  H           1     -32.822  -4.061 -13.897  0.00  0.00     0.275 HD
HETATM   17  H           1     -34.146  -3.147 -14.462  0.00  0.00     0.275 HD
ENDBRANCH  12  14
ENDBRANCH   4  12
TORSDOF 6
ENDMDL
MODEL 3
REMARK VINA RESULT:      -5.2      8.613      9.789
REMARK  6 active torsions:
REMARK  status: ('A' for Active; 'I' for Inactive)
REMARK    1  A    between atoms: C_5  and  C_13 
REMARK    2  A    between atoms: C_5  and  N_16 
REMARK    3  A    between atoms: C_6  and  C_7 
REMARK    4  A    between atoms: C_6  and  C_17 
REMARK    5  A    between atoms: C_6  and  N_12 
REMARK    6  A    between atoms: C_7  and  O_8 
REMARK       I    between atoms: N_12  and  C_13 
ROOT
HETATM    1  H           1     -26.799  -6.106 -18.012  0.00  0.00     0.163 HD
HETATM    2  O           1     -25.847  -7.404 -15.320  0.00  0.00    -0.271 OA
HETATM    3  N           1     -26.872  -6.478 -17.073  0.00  0.00    -0.343 N 
HETATM    4  C           1     -25.758  -6.959 -16.439  0.00  0.00     0.248 C 
ENDROOT
BRANCH   3   5
HETATM    5  C           1     -28.157  -6.501 -16.401  0.00  0.00     0.209 C 
BRANCH   5   6
HETATM    6  C           1     -28.461  -5.119 -15.840  0.00  0.00     0.200 C 
BRANCH   6   7
HETATM    7  O           1     -27.835  -4.144 -16.629  0.00  0.00    -0.398 OA
HETATM    8  H           1     -27.124  -3.794 -16.118  0.00  0.00     0.209 HD
ENDBRANCH   6   7
ENDBRANCH   5   6
BRANCH   5   9
HETATM    9  C           1     -29.231  -6.892 -17.386  0.00  0.00     0.198 C 
HETATM   10  O           1     -29.653  -6.057 -18.216  0.00  0.00    -0.646 OA
HETATM   11  O           1     -29.699  -8.050 -17.374  0.00  0.00    -0.646 OA
ENDBRANCH   5   9
ENDBRANCH   3   5
BRANCH   4  12
HETATM   12  C           1     -24.422  -6.935 -17.139  0.00  0.00     0.270 C 
HETATM   13  C           1     -24.633  -7.086 -18.639  0.00  0.00     0.050 C 
BRANCH  12  14
HETATM   14  N           1     -23.575  -8.066 -16.637  0.00  0.00    -0.067 N 
HETATM   15  H           1     -23.241  -8.637 -17.446  0.00  0.00     0.275 HD
HETATM   16  H           1     -24.141  -8.667 -15.996  0.00  0.00     0.275 HD
HETATM   17  H           1     -22.753  -7.683 -16.117  0.00  0.00     0.275 HD
ENDBRANCH  12  14
ENDBRANCH   4  12
TORSDOF 6
ENDMDL
MODEL 4
REMARK VINA RESULT:      -5.1      1.573      2.366
REMARK  6 active torsions:
REMARK  status: ('A' for Active; 'I' for Inactive)
REMARK    1  A    between atoms: C_5  and  C_13 
REMARK    2  A    between atoms: C_5  and  N_16 
REMARK    3  A    between atoms: C_6  and  C_7 
REMARK    4  A    between atoms: C_6  and  C_17 
REMARK    5  A    between atoms: C_6  and  N_12 
REMARK    6  A    between atoms: C_7  and  O_8 
REMARK       I    between atoms: N_12  and  C_13 
ROOT
HETATM    1  H           1     -22.160  -2.698  -8.528  0.00  0.00     0.163 HD
HETATM    2  O           1     -21.597  -5.768  -8.220  0.00  0.00    -0.271 OA
HETATM    3  N           1     -22.259  -3.690  -8.700  0.00  0.00    -0.343 N 
HETATM    4  C           1     -21.480  -4.584  -8.015  0.00  0.00     0.248 C 
ENDROOT
BRANCH   3   5
HETATM    5  C           1     -23.226  -4.165  -9.670  0.00  0.00     0.209 C 
BRANCH   5   6
HETATM    6  C           1     -24.537  -3.412  -9.492  0.00  0.00     0.200 C 
BRANCH   6   7
HETATM    7  O           1     -25.090  -3.129 -10.749  0.00  0.00    -0.398 OA
HETATM    8  H           1     -25.765  -2.486 -10.612  0.00  0.00     0.209 HD
ENDBRANCH   6   7
ENDBRANCH   5   6
BRANCH   5   9
HETATM    9  C           1     -22.695  -3.929 -11.063  0.00  0.00     0.198 C 
HETATM   10  O           1     -22.978  -4.727 -11.983  0.00  0.00    -0.646 OA
HETATM   11  O           1     -21.975  -2.936 -11.298  0.00  0.00    -0.646 OA
ENDBRANCH   5   9
ENDBRANCH   3   5
BRANCH   4  12
HETATM   12  C           1     -20.474  -4.088  -7.005  0.00  0.00     0.270 C 
HETATM   13  C           1     -19.066  -4.369  -7.512  0.00  0.00     0.050 C 
BRANCH  12  14
HETATM   14  N           1     -20.686  -4.798  -5.700  0.00  0.00    -0.067 N 
HETATM   15  H           1     -21.699  -5.031  -5.591  0.00  0.00     0.275 HD
HETATM   16  H           1     -20.383  -4.179  -4.914  0.00  0.00     0.275 HD
HETATM   17  H           1     -20.122  -5.678  -5.687  0.00  0.00     0.275 HD
ENDBRANCH  12  14
ENDBRANCH   4  12
TORSDOF 6
ENDMDL
MODEL 5
REMARK VINA RESULT:      -5.0      9.267     11.299
REMARK  6 active torsions:
REMARK  status: ('A' for Active; 'I' for Inactive)
REMARK    1  A    between atoms: C_5  and  C_13 
REMARK    2  A    between atoms: C_5  and  N_16 
REMARK    3  A    between atoms: C_6  and  C_7 
REMARK    4  A    between atoms: C_6  and  C_17 
REMARK    5  A    between atoms: C_6  and  N_12 
REMARK    6  A    between atoms: C_7  and  O_8 
REMARK       I    between atoms: N_12  and  C_13 
ROOT
HETATM    1  H           1     -28.330  -4.321 -16.876  0.00  0.00     0.163 HD
HETATM    2  O           1     -30.617  -6.400 -17.409  0.00  0.00    -0.271 OA
HETATM    3  N           1     -28.752  -5.217 -17.087  0.00  0.00    -0.343 N 
HETATM    4  C           1     -30.114  -5.332 -17.158  0.00  0.00     0.248 C 
ENDROOT
BRANCH   3   5
HETATM    5  C           1     -27.913  -6.377 -17.313  0.00  0.00     0.209 C 
BRANCH   5   6
HETATM    6  C           1     -27.317  -6.309 -18.712  0.00  0.00     0.200 C 
BRANCH   6   7
HETATM    7  O           1     -25.989  -6.758 -18.679  0.00  0.00    -0.398 OA
HETATM    8  H           1     -25.703  -6.699 -17.783  0.00  0.00     0.209 HD
ENDBRANCH   6   7
ENDBRANCH   5   6
BRANCH   5   9
HETATM    9  C           1     -26.801  -6.399 -16.293  0.00  0.00     0.198 C 
HETATM   10  O           1     -26.682  -7.373 -15.518  0.00  0.00    -0.646 OA
HETATM   11  O           1     -25.998  -5.444 -16.224  0.00  0.00    -0.646 OA
ENDBRANCH   5   9
ENDBRANCH   3   5
BRANCH   4  12
HETATM   12  C           1     -30.987  -4.123 -16.923  0.00  0.00     0.270 C 
HETATM   13  C           1     -32.442  -4.559 -16.827  0.00  0.00     0.050 C 
BRANCH  12  14
HETATM   14  N           1     -30.827  -3.163 -18.064  0.00  0.00    -0.067 N 
HETATM   15  H           1     -31.755  -3.003 -18.517  0.00  0.00     0.275 HD
HETATM   16  H           1     -30.161  -3.560 -18.763  0.00  0.00     0.275 HD
HETATM   17  H           1     -30.454  -2.255 -17.705  0.00  0.00     0.275 HD
ENDBRANCH  12  14
ENDBRANCH   4  12
TORSDOF 6
ENDMDL
MODEL 6
REMARK VINA RESULT:      -5.0      9.400     10.824
REMARK  6 active torsions:
REMARK  status: ('A' for Active; 'I' for Inactive)
REMARK    1  A    between atoms: C_5  and  C_13 
REMARK    2  A    between atoms: C_5  and  N_16 
REMARK    3  A    between atoms: C_6  and  C_7 
REMARK    4  A    between atoms: C_6  and  C_17 
REMARK    5  A    between atoms: C_6  and  N_12 
REMARK    6  A    between atoms: C_7  and  O_8 
REMARK       I    between atoms: N_12  and  C_13 
ROOT
HETATM    1  H           1     -25.723  -6.402 -17.134  0.00  0.00     0.163 HD
HETATM    2  O           1     -27.256  -6.653 -19.859  0.00  0.00    -0.271 OA
HETATM    3  N           1     -26.513  -6.423 -17.766  0.00  0.00    -0.343 N 
HETATM    4  C           1     -26.313  -6.628 -19.105  0.00  0.00     0.248 C 
ENDROOT
BRANCH   3   5
HETATM    5  C           1     -27.856  -6.236 -17.253  0.00  0.00     0.209 C 
BRANCH   5   6
HETATM    6  C           1     -27.947  -6.813 -15.847  0.00  0.00     0.200 C 
BRANCH   6   7
HETATM    7  O           1     -26.752  -7.475 -15.533  0.00  0.00    -0.398 OA
HETATM    8  H           1     -26.467  -7.910 -16.318  0.00  0.00     0.209 HD
ENDBRANCH   6   7
ENDBRANCH   5   6
BRANCH   5   9
HETATM    9  C           1     -28.178  -4.763 -17.215  0.00  0.00     0.198 C 
HETATM   10  O           1     -28.937  -4.266 -18.075  0.00  0.00    -0.646 OA
HETATM   11  O           1     -27.687  -4.039 -16.323  0.00  0.00    -0.646 OA
ENDBRANCH   5   9
ENDBRANCH   3   5
BRANCH   4  12
HETATM   12  C           1     -24.915  -6.823 -19.638  0.00  0.00     0.270 C 
HETATM   13  C           1     -24.968  -7.666 -20.905  0.00  0.00     0.050 C 
BRANCH  12  14
HETATM   14  N           1     -24.080  -7.523 -18.607  0.00  0.00    -0.067 N 
HETATM   15  H           1     -23.991  -6.916 -17.761  0.00  0.00     0.275 HD
HETATM   16  H           1     -23.131  -7.715 -18.999  0.00  0.00     0.275 HD
HETATM   17  H           1     -24.536  -8.425 -18.344  0.00  0.00     0.275 HD
ENDBRANCH  12  14
ENDBRANCH   4  12
TORSDOF 6
ENDMDL
MODEL 7
REMARK VINA RESULT:      -5.0      8.695     10.997
REMARK  6 active torsions:
REMARK  status: ('A' for Active; 'I' for Inactive)
REMARK    1  A    between atoms: C_5  and  C_13 
REMARK    2  A    between atoms: C_5  and  N_16 
REMARK    3  A    between atoms: C_6  and  C_7 
REMARK    4  A    between atoms: C_6  and  C_17 
REMARK    5  A    between atoms: C_6  and  N_12 
REMARK    6  A    between atoms: C_7  and  O_8 
REMARK       I    between atoms: N_12  and  C_13 
ROOT
HETATM    1  H           1     -27.660  -7.849 -17.426  0.00  0.00     0.163 HD
HETATM    2  O           1     -28.469  -4.892 -18.090  0.00  0.00    -0.271 OA
HETATM    3  N           1     -27.550  -6.848 -17.530  0.00  0.00    -0.343 N 
HETATM    4  C           1     -28.601  -6.085 -17.965  0.00  0.00     0.248 C 
ENDROOT
BRANCH   3   5
HETATM    5  C           1     -26.280  -6.223 -17.219  0.00  0.00     0.209 C 
BRANCH   5   6
HETATM    6  C           1     -25.840  -6.633 -15.821  0.00  0.00     0.200 C 
BRANCH   6   7
HETATM    7  O           1     -24.834  -5.766 -15.372  0.00  0.00    -0.398 OA
HETATM    8  H           1     -24.254  -6.277 -14.832  0.00  0.00     0.209 HD
ENDBRANCH   6   7
ENDBRANCH   5   6
BRANCH   5   9
HETATM    9  C           1     -25.243  -6.666 -18.223  0.00  0.00     0.198 C 
HETATM   10  O           1     -24.091  -6.964 -17.841  0.00  0.00    -0.646 OA
HETATM   11  O           1     -25.537  -6.736 -19.435  0.00  0.00    -0.646 OA
ENDBRANCH   5   9
ENDBRANCH   3   5
BRANCH   4  12
HETATM   12  C           1     -29.923  -6.737 -18.289  0.00  0.00     0.270 C 
HETATM   13  C           1     -30.924  -6.428 -17.184  0.00  0.00     0.050 C 
BRANCH  12  14
HETATM   14  N           1     -29.736  -8.222 -18.392  0.00  0.00    -0.067 N 
HETATM   15  H           1     -30.649  -8.701 -18.227  0.00  0.00     0.275 HD
HETATM   16  H           1     -29.043  -8.536 -17.676  0.00  0.00     0.275 HD
HETATM   17  H           1     -29.383  -8.463 -19.346  0.00  0.00     0.275 HD
ENDBRANCH  12  14
ENDBRANCH   4  12
TORSDOF 6
ENDMDL
MODEL 8
REMARK VINA RESULT:      -5.0     12.271     13.937
REMARK  6 active torsions:
REMARK  status: ('A' for Active; 'I' for Inactive)
REMARK    1  A    between atoms: C_5  and  C_13 
REMARK    2  A    between atoms: C_5  and  N_16 
REMARK    3  A    between atoms: C_6  and  C_7 
REMARK    4  A    between atoms: C_6  and  C_17 
REMARK    5  A    between atoms: C_6  and  N_12 
REMARK    6  A    between atoms: C_7  and  O_8 
REMARK       I    between atoms: N_12  and  C_13 
ROOT
HETATM    1  H           1     -34.995  -0.593 -11.549  0.00  0.00     0.163 HD
HETATM    2  O           1     -34.418  -3.119 -13.317  0.00  0.00    -0.271 OA
HETATM    3  N           1     -35.044  -1.204 -12.354  0.00  0.00    -0.343 N 
HETATM    4  C           1     -34.360  -2.391 -12.356  0.00  0.00     0.248 C 
ENDROOT
BRANCH   3   5
HETATM    5  C           1     -35.837  -0.823 -13.506  0.00  0.00     0.209 C 
BRANCH   5   6
HETATM    6  C           1     -37.163  -0.239 -13.038  0.00  0.00     0.200 C 
BRANCH   6   7
HETATM    7  O           1     -37.767   0.460 -14.094  0.00  0.00    -0.398 OA
HETATM    8  H           1     -37.940   1.331 -13.780  0.00  0.00     0.209 HD
ENDBRANCH   6   7
ENDBRANCH   5   6
BRANCH   5   9
HETATM    9  C           1     -35.089   0.211 -14.311  0.00  0.00     0.198 C 
HETATM   10  O           1     -34.718   1.276 -13.771  0.00  0.00    -0.646 OA
HETATM   11  O           1     -34.838   0.002 -15.517  0.00  0.00    -0.646 OA
ENDBRANCH   5   9
ENDBRANCH   3   5
BRANCH   4  12
HETATM   12  C           1     -33.534  -2.787 -11.157  0.00  0.00     0.270 C 
HETATM   13  C           1     -33.985  -4.154 -10.660  0.00  0.00     0.050 C 
BRANCH  12  14
HETATM   14  N           1     -33.719  -1.774 -10.066  0.00  0.00    -0.067 N 
HETATM   15  H           1     -34.166  -2.230  -9.239  0.00  0.00     0.275 HD
HETATM   16  H           1     -34.331  -1.000 -10.410  0.00  0.00     0.275 HD
HETATM   17  H           1     -32.789  -1.385  -9.790  0.00  0.00     0.275 HD
ENDBRANCH  12  14
ENDBRANCH   4  12
TORSDOF 6
ENDMDL
MODEL 9
REMARK VINA RESULT:      -4.7     12.213     14.043
REMARK  6 active torsions:
REMARK  status: ('A' for Active; 'I' for Inactive)
REMARK    1  A    between atoms: C_5  and  C_13 
REMARK    2  A    between atoms: C_5  and  N_16 
REMARK    3  A    between atoms: C_6  and  C_7 
REMARK    4  A    between atoms: C_6  and  C_17 
REMARK    5  A    between atoms: C_6  and  N_12 
REMARK    6  A    between atoms: C_7  and  O_8 
REMARK       I    between atoms: N_12  and  C_13 
ROOT
HETATM    1  H           1     -34.855  -1.465  -9.712  0.00  0.00     0.163 HD
HETATM    2  O           1     -35.691  -3.454 -11.989  0.00  0.00    -0.271 OA
HETATM    3  N           1     -35.408  -1.840 -10.473  0.00  0.00    -0.343 N 
HETATM    4  C           1     -35.032  -3.008 -11.081  0.00  0.00     0.248 C 
ENDROOT
BRANCH   3   5
HETATM    5  C           1     -36.596  -1.139 -10.919  0.00  0.00     0.209 C 
BRANCH   5   6
HETATM    6  C           1     -37.200  -0.369  -9.752  0.00  0.00     0.200 C 
BRANCH   6   7
HETATM    7  O           1     -37.534   0.927 -10.168  0.00  0.00    -0.398 OA
HETATM    8  H           1     -37.351   1.502  -9.444  0.00  0.00     0.209 HD
ENDBRANCH   6   7
ENDBRANCH   5   6
BRANCH   5   9
HETATM    9  C           1     -36.228  -0.176 -12.020  0.00  0.00     0.198 C 
HETATM   10  O           1     -35.145   0.447 -11.969  0.00  0.00    -0.646 OA
HETATM   11  O           1     -37.003  -0.003 -12.984  0.00  0.00    -0.646 OA
ENDBRANCH   5   9
ENDBRANCH   3   5
BRANCH   4  12
HETATM   12  C           1     -33.795  -3.736 -10.616  0.00  0.00     0.270 C 
HETATM   13  C           1     -32.745  -3.707 -11.719  0.00  0.00     0.050 C 
BRANCH  12  14
HETATM   14  N           1     -34.144  -5.159 -10.297  0.00  0.00    -0.067 N 
HETATM   15  H           1     -35.169  -5.307 -10.437  0.00  0.00     0.275 HD
HETATM   16  H           1     -33.896  -5.364  -9.302  0.00  0.00     0.275 HD
HETATM   17  H           1     -33.609  -5.799 -10.926  0.00  0.00     0.275 HD
ENDBRANCH  12  14
ENDBRANCH   4  12
TORSDOF 6
ENDMDL
