MODEL 1
REMARK VINA RESULT:      -7.8      0.000      0.000
REMARK  8 active torsions:
REMARK  status: ('A' for Active; 'I' for Inactive)
REMARK    1  A    between atoms: N_1  and  C_8 
REMARK       I    between atoms: N_1  and  C_21 
REMARK       I    between atoms: N_4  and  C_5 
REMARK    2  A    between atoms: C_5  and  C_19 
REMARK    3  A    between atoms: C_7  and  C_8 
REMARK    4  A    between atoms: C_8  and  C_19 
REMARK    5  A    between atoms: C_13  and  C_20 
REMARK    6  A    between atoms: C_13  and  C_14 
REMARK    7  A    between atoms: N_15  and  C_20 
REMARK    8  A    between atoms: C_20  and  C_21 
ROOT
HETATM    1  N           1     -35.578  -0.070 -13.545  0.00  0.00    -0.344 N 
HETATM    2  H           1     -34.579  -0.044 -13.386  0.00  0.00     0.163 HD
HETATM    3  O           1     -37.621  -0.385 -12.700  0.00  0.00    -0.271 OA
HETATM    4  C           1     -36.429  -0.353 -12.511  0.00  0.00     0.249 C 
ENDROOT
BRANCH   4   5
HETATM    5  C           1     -35.877  -0.622 -11.133  0.00  0.00     0.278 C 
BRANCH   5   6
HETATM    6  C           1     -36.287  -2.019 -10.685  0.00  0.00     0.081 C 
BRANCH   6   7
HETATM    7  C           1     -35.169  -2.979 -10.952  0.00  0.00    -0.056 A 
HETATM    8  C           1     -35.411  -4.353 -10.937  0.00  0.00     0.007 A 
HETATM    9  C           1     -34.369  -5.246 -11.185  0.00  0.00     0.001 A 
HETATM   10  C           1     -33.086  -4.766 -11.449  0.00  0.00     0.000 A 
HETATM   11  C           1     -32.845  -3.392 -11.466  0.00  0.00     0.001 A 
HETATM   12  C           1     -33.887  -2.498 -11.216  0.00  0.00     0.007 A 
ENDBRANCH   6   7
ENDBRANCH   5   6
BRANCH   5  13
HETATM   13  N           1     -36.421   0.391 -10.170  0.00  0.00    -0.066 N 
HETATM   14  H           1     -36.207   0.091  -9.191  0.00  0.00     0.275 HD
HETATM   15  H           1     -37.456   0.467 -10.291  0.00  0.00     0.275 HD
HETATM   16  H           1     -35.979   1.319 -10.355  0.00  0.00     0.275 HD
ENDBRANCH   5  13
ENDBRANCH   4   5
BRANCH   1  17
HETATM   17  C           1     -36.108   0.189 -14.870  0.00  0.00     0.194 C 
BRANCH  17  18
HETATM   18  C           1     -35.705  -0.927 -15.801  0.00  0.00     0.197 C 
HETATM   19  O           1     -36.105  -0.929 -16.985  0.00  0.00    -0.646 OA
HETATM   20  O           1     -34.969  -1.850 -15.388  0.00  0.00    -0.646 OA
ENDBRANCH  17  18
BRANCH  17  21
HETATM   21  C           1     -35.551   1.508 -15.390  0.00  0.00     0.138 C 
BRANCH  21  22
HETATM   22  C           1     -36.605   2.212 -16.209  0.00  0.00     0.217 C 
HETATM   23  N           1     -37.910   1.799 -16.146  0.00  0.00    -0.370 N 
HETATM   24  H           1     -38.167   1.023 -15.551  0.00  0.00     0.159 HD
HETATM   25  H           1     -38.617   2.272 -16.696  0.00  0.00     0.159 HD
HETATM   26  O           1     -36.299   3.138 -16.921  0.00  0.00    -0.274 OA
ENDBRANCH  21  22
ENDBRANCH  17  21
ENDBRANCH   1  17
TORSDOF 8
ENDMDL
MODEL 2
REMARK VINA RESULT:      -7.5      1.798      3.101
REMARK  8 active torsions:
REMARK  status: ('A' for Active; 'I' for Inactive)
REMARK    1  A    between atoms: N_1  and  C_8 
REMARK       I    between atoms: N_1  and  C_21 
REMARK       I    between atoms: N_4  and  C_5 
REMARK    2  A    between atoms: C_5  and  C_19 
REMARK    3  A    between atoms: C_7  and  C_8 
REMARK    4  A    between atoms: C_8  and  C_19 
REMARK    5  A    between atoms: C_13  and  C_20 
REMARK    6  A    between atoms: C_13  and  C_14 
REMARK    7  A    between atoms: N_15  and  C_20 
REMARK    8  A    between atoms: C_20  and  C_21 
ROOT
HETATM    1  N           1     -35.571  -0.759 -14.363  0.00  0.00    -0.344 N 
HETATM    2  H           1     -36.103  -1.601 -14.183  0.00  0.00     0.163 HD
HETATM    3  O           1     -34.348   0.919 -13.542  0.00  0.00    -0.271 OA
HETATM    4  C           1     -34.982  -0.086 -13.327  0.00  0.00     0.249 C 
ENDROOT
BRANCH   4   5
HETATM    5  C           1     -35.124  -0.600 -11.916  0.00  0.00     0.278 C 
BRANCH   5   6
HETATM    6  C           1     -35.914  -1.902 -11.926  0.00  0.00     0.081 C 
BRANCH   6   7
HETATM    7  C           1     -34.995  -3.048 -11.632  0.00  0.00    -0.056 A 
HETATM    8  C           1     -33.664  -2.997 -12.047  0.00  0.00     0.007 A 
HETATM    9  C           1     -32.808  -4.064 -11.773  0.00  0.00     0.001 A 
HETATM   10  C           1     -33.284  -5.181 -11.086  0.00  0.00     0.000 A 
HETATM   11  C           1     -34.615  -5.231 -10.671  0.00  0.00     0.001 A 
HETATM   12  C           1     -35.470  -4.164 -10.945  0.00  0.00     0.007 A 
ENDBRANCH   6   7
ENDBRANCH   5   6
BRANCH   5  13
HETATM   13  N           1     -35.847   0.417 -11.084  0.00  0.00    -0.066 N 
HETATM   14  H           1     -36.861   0.169 -11.035  0.00  0.00     0.275 HD
HETATM   15  H           1     -35.740   1.362 -11.516  0.00  0.00     0.275 HD
HETATM   16  H           1     -35.443   0.428 -10.120  0.00  0.00     0.275 HD
ENDBRANCH   5  13
ENDBRANCH   4   5
BRANCH   1  17
HETATM   17  C           1     -35.435  -0.266 -15.720  0.00  0.00     0.194 C 
BRANCH  17  18
HETATM   18  C           1     -36.426   0.848 -15.952  0.00  0.00     0.197 C 
HETATM   19  O           1     -37.652   0.607 -15.936  0.00  0.00    -0.646 OA
HETATM   20  O           1     -36.020   2.012 -16.159  0.00  0.00    -0.646 OA
ENDBRANCH  17  18
BRANCH  17  21
HETATM   21  C           1     -35.706  -1.398 -16.702  0.00  0.00     0.138 C 
BRANCH  21  22
HETATM   22  C           1     -34.689  -2.494 -16.499  0.00  0.00     0.217 C 
HETATM   23  N           1     -33.748  -2.741 -17.463  0.00  0.00    -0.370 N 
HETATM   24  H           1     -33.734  -2.189 -18.310  0.00  0.00     0.159 HD
HETATM   25  H           1     -33.065  -3.477 -17.327  0.00  0.00     0.159 HD
HETATM   26  O           1     -34.705  -3.154 -15.488  0.00  0.00    -0.274 OA
ENDBRANCH  21  22
ENDBRANCH  17  21
ENDBRANCH   1  17
TORSDOF 8
ENDMDL
MODEL 3
REMARK VINA RESULT:      -7.3      5.367      7.592
REMARK  8 active torsions:
REMARK  status: ('A' for Active; 'I' for Inactive)
REMARK    1  A    between atoms: N_1  and  C_8 
REMARK       I    between atoms: N_1  and  C_21 
REMARK       I    between atoms: N_4  and  C_5 
REMARK    2  A    between atoms: C_5  and  C_19 
REMARK    3  A    between atoms: C_7  and  C_8 
REMARK    4  A    between atoms: C_8  and  C_19 
REMARK    5  A    between atoms: C_13  and  C_20 
REMARK    6  A    between atoms: C_13  and  C_14 
REMARK    7  A    between atoms: N_15  and  C_20 
REMARK    8  A    between atoms: C_20  and  C_21 
ROOT
HETATM    1  N           1     -33.337  -4.023 -14.267  0.00  0.00    -0.344 N 
HETATM    2  H           1     -32.370  -3.737 -14.184  0.00  0.00     0.163 HD
HETATM    3  O           1     -34.978  -4.791 -15.573  0.00  0.00    -0.271 OA
HETATM    4  C           1     -33.824  -4.449 -15.473  0.00  0.00     0.249 C 
ENDROOT
BRANCH   4   5
HETATM    5  C           1     -32.918  -4.494 -16.679  0.00  0.00     0.278 C 
BRANCH   5   6
HETATM    6  C           1     -31.464  -4.476 -16.224  0.00  0.00     0.081 C 
BRANCH   6   7
HETATM    7  C           1     -30.652  -5.368 -17.111  0.00  0.00    -0.056 A 
HETATM    8  C           1     -29.481  -4.888 -17.698  0.00  0.00     0.007 A 
HETATM    9  C           1     -28.725  -5.718 -18.524  0.00  0.00     0.001 A 
HETATM   10  C           1     -29.139  -7.029 -18.763  0.00  0.00     0.000 A 
HETATM   11  C           1     -30.309  -7.510 -18.175  0.00  0.00     0.001 A 
HETATM   12  C           1     -31.066  -6.678 -17.349  0.00  0.00     0.007 A 
ENDBRANCH   6   7
ENDBRANCH   5   6
BRANCH   5  13
HETATM   13  N           1     -33.184  -3.300 -17.548  0.00  0.00    -0.066 N 
HETATM   14  H           1     -33.423  -3.620 -18.514  0.00  0.00     0.275 HD
HETATM   15  H           1     -32.331  -2.697 -17.583  0.00  0.00     0.275 HD
HETATM   16  H           1     -33.981  -2.753 -17.153  0.00  0.00     0.275 HD
ENDBRANCH   5  13
ENDBRANCH   4   5
BRANCH   1  17
HETATM   17  C           1     -34.207  -3.981 -13.107  0.00  0.00     0.194 C 
BRANCH  17  18
HETATM   18  C           1     -34.601  -2.552 -12.825  0.00  0.00     0.197 C 
HETATM   19  O           1     -35.063  -1.839 -13.741  0.00  0.00    -0.646 OA
HETATM   20  O           1     -34.465  -2.082 -11.675  0.00  0.00    -0.646 OA
ENDBRANCH  17  18
BRANCH  17  21
HETATM   21  C           1     -33.474  -4.552 -11.901  0.00  0.00     0.138 C 
BRANCH  21  22
HETATM   22  C           1     -34.251  -5.721 -11.347  0.00  0.00     0.217 C 
HETATM   23  N           1     -34.964  -6.531 -12.190  0.00  0.00    -0.370 N 
HETATM   24  H           1     -34.970  -6.346 -13.184  0.00  0.00     0.159 HD
HETATM   25  H           1     -35.485  -7.316 -11.818  0.00  0.00     0.159 HD
HETATM   26  O           1     -34.245  -5.942 -10.159  0.00  0.00    -0.274 OA
ENDBRANCH  21  22
ENDBRANCH  17  21
ENDBRANCH   1  17
TORSDOF 8
ENDMDL
MODEL 4
REMARK VINA RESULT:      -7.3     13.716     15.900
REMARK  8 active torsions:
REMARK  status: ('A' for Active; 'I' for Inactive)
REMARK    1  A    between atoms: N_1  and  C_8 
REMARK       I    between atoms: N_1  and  C_21 
REMARK       I    between atoms: N_4  and  C_5 
REMARK    2  A    between atoms: C_5  and  C_19 
REMARK    3  A    between atoms: C_7  and  C_8 
REMARK    4  A    between atoms: C_8  and  C_19 
REMARK    5  A    between atoms: C_13  and  C_20 
REMARK    6  A    between atoms: C_13  and  C_14 
REMARK    7  A    between atoms: N_15  and  C_20 
REMARK    8  A    between atoms: C_20  and  C_21 
ROOT
HETATM    1  N           1     -22.257  -4.858  -8.641  0.00  0.00    -0.344 N 
HETATM    2  H           1     -22.400  -5.848  -8.792  0.00  0.00     0.163 HD
HETATM    3  O           1     -21.433  -3.242  -7.338  0.00  0.00    -0.271 OA
HETATM    4  C           1     -21.604  -4.424  -7.519  0.00  0.00     0.249 C 
ENDROOT
BRANCH   4   5
HETATM    5  C           1     -21.095  -5.422  -6.509  0.00  0.00     0.278 C 
BRANCH   5   6
HETATM    6  C           1     -22.241  -5.866  -5.610  0.00  0.00     0.081 C 
BRANCH   6   7
HETATM    7  C           1     -21.711  -6.744  -4.519  0.00  0.00    -0.056 A 
HETATM    8  C           1     -21.124  -7.970  -4.834  0.00  0.00     0.007 A 
HETATM    9  C           1     -20.630  -8.787  -3.818  0.00  0.00     0.001 A 
HETATM   10  C           1     -20.723  -8.379  -2.486  0.00  0.00     0.000 A 
HETATM   11  C           1     -21.309  -7.153  -2.172  0.00  0.00     0.001 A 
HETATM   12  C           1     -21.803  -6.335  -3.189  0.00  0.00     0.007 A 
ENDBRANCH   6   7
ENDBRANCH   5   6
BRANCH   5  13
HETATM   13  N           1     -20.022  -4.787  -5.674  0.00  0.00    -0.066 N 
HETATM   14  H           1     -19.526  -5.525  -5.124  0.00  0.00     0.275 HD
HETATM   15  H           1     -20.453  -4.097  -5.019  0.00  0.00     0.275 HD
HETATM   16  H           1     -19.341  -4.298  -6.297  0.00  0.00     0.275 HD
ENDBRANCH   5  13
ENDBRANCH   4   5
BRANCH   1  17
HETATM   17  C           1     -22.746  -3.898  -9.612  0.00  0.00     0.194 C 
BRANCH  17  18
HETATM   18  C           1     -24.254  -3.926  -9.632  0.00  0.00     0.197 C 
HETATM   19  O           1     -24.856  -5.007  -9.806  0.00  0.00    -0.646 OA
HETATM   20  O           1     -24.901  -2.868  -9.473  0.00  0.00    -0.646 OA
ENDBRANCH  17  18
BRANCH  17  21
HETATM   21  C           1     -22.214  -4.258 -10.993  0.00  0.00     0.138 C 
BRANCH  21  22
HETATM   22  C           1     -20.733  -3.975 -11.052  0.00  0.00     0.217 C 
HETATM   23  N           1     -20.285  -2.778 -11.544  0.00  0.00    -0.370 N 
HETATM   24  H           1     -20.945  -2.084 -11.868  0.00  0.00     0.159 HD
HETATM   25  H           1     -19.291  -2.588 -11.584  0.00  0.00     0.159 HD
HETATM   26  O           1     -19.943  -4.803 -10.666  0.00  0.00    -0.274 OA
ENDBRANCH  21  22
ENDBRANCH  17  21
ENDBRANCH   1  17
TORSDOF 8
ENDMDL
MODEL 5
REMARK VINA RESULT:      -7.2     15.088     17.816
REMARK  8 active torsions:
REMARK  status: ('A' for Active; 'I' for Inactive)
REMARK    1  A    between atoms: N_1  and  C_8 
REMARK       I    between atoms: N_1  and  C_21 
REMARK       I    between atoms: N_4  and  C_5 
REMARK    2  A    between atoms: C_5  and  C_19 
REMARK    3  A    between atoms: C_7  and  C_8 
REMARK    4  A    between atoms: C_8  and  C_19 
REMARK    5  A    between atoms: C_13  and  C_20 
REMARK    6  A    between atoms: C_13  and  C_14 
REMARK    7  A    between atoms: N_15  and  C_20 
REMARK    8  A    between atoms: C_20  and  C_21 
ROOT
HETATM    1  N           1     -21.588  -6.890  -5.113  0.00  0.00    -0.344 N 
HETATM    2  H           1     -22.310  -7.507  -5.463  0.00  0.00     0.163 HD
HETATM    3  O           1     -20.555  -4.916  -5.254  0.00  0.00    -0.271 OA
HETATM    4  C           1     -21.416  -5.652  -5.670  0.00  0.00     0.249 C 
ENDROOT
BRANCH   4   5
HETATM    5  C           1     -22.304  -5.206  -6.806  0.00  0.00     0.278 C 
BRANCH   5   6
HETATM    6  C           1     -21.737  -3.936  -7.426  0.00  0.00     0.081 C 
BRANCH   6   7
HETATM    7  C           1     -21.680  -4.089  -8.915  0.00  0.00    -0.056 A 
HETATM    8  C           1     -20.452  -4.034  -9.575  0.00  0.00     0.007 A 
HETATM    9  C           1     -20.399  -4.176 -10.961  0.00  0.00     0.001 A 
HETATM   10  C           1     -21.573  -4.375 -11.687  0.00  0.00     0.000 A 
HETATM   11  C           1     -22.801  -4.431 -11.027  0.00  0.00     0.001 A 
HETATM   12  C           1     -22.854  -4.288  -9.641  0.00  0.00     0.007 A 
ENDBRANCH   6   7
ENDBRANCH   5   6
BRANCH   5  13
HETATM   13  N           1     -23.684  -4.933  -6.284  0.00  0.00    -0.066 N 
HETATM   14  H           1     -23.857  -3.903  -6.277  0.00  0.00     0.275 HD
HETATM   15  H           1     -23.769  -5.306  -5.311  0.00  0.00     0.275 HD
HETATM   16  H           1     -24.387  -5.401  -6.899  0.00  0.00     0.275 HD
ENDBRANCH   5  13
ENDBRANCH   4   5
BRANCH   1  17
HETATM   17  C           1     -20.735  -7.319  -4.022  0.00  0.00     0.194 C 
BRANCH  17  18
HETATM   18  C           1     -19.755  -8.350  -4.524  0.00  0.00     0.197 C 
HETATM   19  O           1     -19.607  -8.524  -5.753  0.00  0.00    -0.646 OA
HETATM   20  O           1     -19.091  -9.030  -3.712  0.00  0.00    -0.646 OA
ENDBRANCH  17  18
BRANCH  17  21
HETATM   21  C           1     -21.590  -7.928  -2.918  0.00  0.00     0.138 C 
BRANCH  21  22
HETATM   22  C           1     -22.001  -6.849  -1.946  0.00  0.00     0.217 C 
HETATM   23  N           1     -22.307  -7.175  -0.652  0.00  0.00    -0.370 N 
HETATM   24  H           1     -22.257  -8.138  -0.347  0.00  0.00     0.159 HD
HETATM   25  H           1     -22.583  -6.450   0.000  0.00  0.00     0.159 HD
HETATM   26  O           1     -22.062  -5.699  -2.311  0.00  0.00    -0.274 OA
ENDBRANCH  21  22
ENDBRANCH  17  21
ENDBRANCH   1  17
TORSDOF 8
ENDMDL
MODEL 6
REMARK VINA RESULT:      -7.2      2.168      3.884
REMARK  8 active torsions:
REMARK  status: ('A' for Active; 'I' for Inactive)
REMARK    1  A    between atoms: N_1  and  C_8 
REMARK       I    between atoms: N_1  and  C_21 
REMARK       I    between atoms: N_4  and  C_5 
REMARK    2  A    between atoms: C_5  and  C_19 
REMARK    3  A    between atoms: C_7  and  C_8 
REMARK    4  A    between atoms: C_8  and  C_19 
REMARK    5  A    between atoms: C_13  and  C_20 
REMARK    6  A    between atoms: C_13  and  C_14 
REMARK    7  A    between atoms: N_15  and  C_20 
REMARK    8  A    between atoms: C_20  and  C_21 
ROOT
HETATM    1  N           1     -34.911  -1.590 -13.086  0.00  0.00    -0.344 N 
HETATM    2  H           1     -35.281  -1.924 -13.966  0.00  0.00     0.163 HD
HETATM    3  O           1     -33.823  -2.053 -11.191  0.00  0.00    -0.271 OA
HETATM    4  C           1     -34.264  -2.452 -12.243  0.00  0.00     0.249 C 
ENDROOT
BRANCH   4   5
HETATM    5  C           1     -34.099  -3.902 -12.627  0.00  0.00     0.278 C 
BRANCH   5   6
HETATM    6  C           1     -33.012  -4.535 -11.770  0.00  0.00     0.081 C 
BRANCH   6   7
HETATM    7  C           1     -33.582  -5.698 -11.017  0.00  0.00    -0.056 A 
HETATM    8  C           1     -32.884  -6.904 -10.964  0.00  0.00     0.007 A 
HETATM    9  C           1     -33.415  -7.986 -10.263  0.00  0.00     0.001 A 
HETATM   10  C           1     -34.644  -7.862  -9.615  0.00  0.00     0.000 A 
HETATM   11  C           1     -35.342  -6.655  -9.666  0.00  0.00     0.001 A 
HETATM   12  C           1     -34.810  -5.573 -10.368  0.00  0.00     0.007 A 
ENDBRANCH   6   7
ENDBRANCH   5   6
BRANCH   5  13
HETATM   13  N           1     -33.712  -3.994 -14.073  0.00  0.00    -0.066 N 
HETATM   14  H           1     -34.487  -4.444 -14.613  0.00  0.00     0.275 HD
HETATM   15  H           1     -32.845  -4.569 -14.166  0.00  0.00     0.275 HD
HETATM   16  H           1     -33.537  -3.035 -14.449  0.00  0.00     0.275 HD
ENDBRANCH   5  13
ENDBRANCH   4   5
BRANCH   1  17
HETATM   17  C           1     -35.070  -0.196 -12.716  0.00  0.00     0.194 C 
BRANCH  17  18
HETATM   18  C           1     -36.334  -0.029 -11.911  0.00  0.00     0.197 C 
HETATM   19  O           1     -36.288   0.489 -10.775  0.00  0.00    -0.646 OA
HETATM   20  O           1     -37.429  -0.408 -12.382  0.00  0.00    -0.646 OA
ENDBRANCH  17  18
BRANCH  17  21
HETATM   21  C           1     -35.154   0.656 -13.975  0.00  0.00     0.138 C 
BRANCH  21  22
HETATM   22  C           1     -35.645  -0.189 -15.124  0.00  0.00     0.217 C 
HETATM   23  N           1     -36.981  -0.228 -15.423  0.00  0.00    -0.370 N 
HETATM   24  H           1     -37.638   0.310 -14.874  0.00  0.00     0.159 HD
HETATM   25  H           1     -37.311  -0.796 -16.195  0.00  0.00     0.159 HD
HETATM   26  O           1     -34.861  -0.833 -15.780  0.00  0.00    -0.274 OA
ENDBRANCH  21  22
ENDBRANCH  17  21
ENDBRANCH   1  17
TORSDOF 8
ENDMDL
MODEL 7
REMARK VINA RESULT:      -6.7     16.210     18.853
REMARK  8 active torsions:
REMARK  status: ('A' for Active; 'I' for Inactive)
REMARK    1  A    between atoms: N_1  and  C_8 
REMARK       I    between atoms: N_1  and  C_21 
REMARK       I    between atoms: N_4  and  C_5 
REMARK    2  A    between atoms: C_5  and  C_19 
REMARK    3  A    between atoms: C_7  and  C_8 
REMARK    4  A    between atoms: C_8  and  C_19 
REMARK    5  A    between atoms: C_13  and  C_20 
REMARK    6  A    between atoms: C_13  and  C_14 
REMARK    7  A    between atoms: N_15  and  C_20 
REMARK    8  A    between atoms: C_20  and  C_21 
ROOT
HETATM    1  N           1     -21.524  -7.811  -3.232  0.00  0.00    -0.344 N 
HETATM    2  H           1     -22.443  -7.454  -3.006  0.00  0.00     0.163 HD
HETATM    3  O           1     -19.839  -7.910  -4.695  0.00  0.00    -0.271 OA
HETATM    4  C           1     -20.936  -7.484  -4.424  0.00  0.00     0.249 C 
ENDROOT
BRANCH   4   5
HETATM    5  C           1     -21.658  -6.589  -5.400  0.00  0.00     0.278 C 
BRANCH   5   6
HETATM    6  C           1     -20.850  -5.316  -5.617  0.00  0.00     0.081 C 
BRANCH   6   7
HETATM    7  C           1     -20.990  -4.872  -7.041  0.00  0.00    -0.056 A 
HETATM    8  C           1     -19.973  -5.140  -7.957  0.00  0.00     0.007 A 
HETATM    9  C           1     -20.103  -4.726  -9.283  0.00  0.00     0.001 A 
HETATM   10  C           1     -21.250  -4.044  -9.691  0.00  0.00     0.000 A 
HETATM   11  C           1     -22.267  -3.777  -8.775  0.00  0.00     0.001 A 
HETATM   12  C           1     -22.136  -4.191  -7.449  0.00  0.00     0.007 A 
ENDBRANCH   6   7
ENDBRANCH   5   6
BRANCH   5  13
HETATM   13  N           1     -23.008  -6.235  -4.849  0.00  0.00    -0.066 N 
HETATM   14  H           1     -23.751  -6.635  -5.466  0.00  0.00     0.275 HD
HETATM   15  H           1     -23.109  -5.196  -4.814  0.00  0.00     0.275 HD
HETATM   16  H           1     -23.104  -6.627  -3.886  0.00  0.00     0.275 HD
ENDBRANCH   5  13
ENDBRANCH   4   5
BRANCH   1  17
HETATM   17  C           1     -20.829  -8.672  -2.293  0.00  0.00     0.194 C 
BRANCH  17  18
HETATM   18  C           1     -21.505 -10.020  -2.252  0.00  0.00     0.197 C 
HETATM   19  O           1     -21.219 -10.835  -1.349  0.00  0.00    -0.646 OA
HETATM   20  O           1     -22.350 -10.322  -3.123  0.00  0.00    -0.646 OA
ENDBRANCH  17  18
BRANCH  17  21
HETATM   21  C           1     -20.867  -8.044  -0.906  0.00  0.00     0.138 C 
BRANCH  21  22
HETATM   22  C           1     -22.257  -7.531  -0.623  0.00  0.00     0.217 C 
HETATM   23  N           1     -23.102  -8.251   0.179  0.00  0.00    -0.370 N 
HETATM   24  H           1     -22.795  -9.126   0.581  0.00  0.00     0.159 HD
HETATM   25  H           1     -24.035  -7.906   0.369  0.00  0.00     0.159 HD
HETATM   26  O           1     -22.625  -6.485  -1.103  0.00  0.00    -0.274 OA
ENDBRANCH  21  22
ENDBRANCH  17  21
ENDBRANCH   1  17
TORSDOF 8
ENDMDL
MODEL 8
REMARK VINA RESULT:      -6.6     14.140     16.332
REMARK  8 active torsions:
REMARK  status: ('A' for Active; 'I' for Inactive)
REMARK    1  A    between atoms: N_1  and  C_8 
REMARK       I    between atoms: N_1  and  C_21 
REMARK       I    between atoms: N_4  and  C_5 
REMARK    2  A    between atoms: C_5  and  C_19 
REMARK    3  A    between atoms: C_7  and  C_8 
REMARK    4  A    between atoms: C_8  and  C_19 
REMARK    5  A    between atoms: C_13  and  C_20 
REMARK    6  A    between atoms: C_13  and  C_14 
REMARK    7  A    between atoms: N_15  and  C_20 
REMARK    8  A    between atoms: C_20  and  C_21 
ROOT
HETATM    1  N           1     -22.118  -4.700  -7.330  0.00  0.00    -0.344 N 
HETATM    2  H           1     -22.647  -3.992  -6.838  0.00  0.00     0.163 HD
HETATM    3  O           1     -20.977  -6.618  -7.233  0.00  0.00    -0.271 OA
HETATM    4  C           1     -21.609  -5.772  -6.647  0.00  0.00     0.249 C 
ENDROOT
BRANCH   4   5
HETATM    5  C           1     -21.839  -5.898  -5.161  0.00  0.00     0.278 C 
BRANCH   5   6
HETATM    6  C           1     -20.960  -7.009  -4.603  0.00  0.00     0.081 C 
BRANCH   6   7
HETATM    7  C           1     -21.395  -7.338  -3.208  0.00  0.00    -0.056 A 
HETATM    8  C           1     -21.396  -8.663  -2.773  0.00  0.00     0.007 A 
HETATM    9  C           1     -21.801  -8.970  -1.474  0.00  0.00     0.001 A 
HETATM   10  C           1     -22.206  -7.951  -0.611  0.00  0.00     0.000 A 
HETATM   11  C           1     -22.204  -6.625  -1.046  0.00  0.00     0.001 A 
HETATM   12  C           1     -21.798  -6.320  -2.345  0.00  0.00     0.007 A 
ENDBRANCH   6   7
ENDBRANCH   5   6
BRANCH   5  13
HETATM   13  N           1     -23.280  -6.225  -4.904  0.00  0.00    -0.066 N 
HETATM   14  H           1     -23.490  -6.100  -3.888  0.00  0.00     0.275 HD
HETATM   15  H           1     -23.468  -7.215  -5.178  0.00  0.00     0.275 HD
HETATM   16  H           1     -23.887  -5.587  -5.467  0.00  0.00     0.275 HD
ENDBRANCH   5  13
ENDBRANCH   4   5
BRANCH   1  17
HETATM   17  C           1     -21.898  -4.579  -8.758  0.00  0.00     0.194 C 
BRANCH  17  18
HETATM   18  C           1     -20.430  -4.349  -9.023  0.00  0.00     0.197 C 
HETATM   19  O           1     -19.758  -3.643  -8.242  0.00  0.00    -0.646 OA
HETATM   20  O           1     -19.888  -4.865 -10.024  0.00  0.00    -0.646 OA
ENDBRANCH  17  18
BRANCH  17  21
HETATM   21  C           1     -22.701  -3.404  -9.298  0.00  0.00     0.138 C 
BRANCH  21  22
HETATM   22  C           1     -23.764  -3.911 -10.241  0.00  0.00     0.217 C 
HETATM   23  N           1     -23.806  -5.238 -10.576  0.00  0.00    -0.370 N 
HETATM   24  H           1     -23.125  -5.878 -10.191  0.00  0.00     0.159 HD
HETATM   25  H           1     -24.520  -5.578 -11.209  0.00  0.00     0.159 HD
HETATM   26  O           1     -24.578  -3.146 -10.702  0.00  0.00    -0.274 OA
ENDBRANCH  21  22
ENDBRANCH  17  21
ENDBRANCH   1  17
TORSDOF 8
ENDMDL
MODEL 9
REMARK VINA RESULT:      -6.4     10.588     12.643
REMARK  8 active torsions:
REMARK  status: ('A' for Active; 'I' for Inactive)
REMARK    1  A    between atoms: N_1  and  C_8 
REMARK       I    between atoms: N_1  and  C_21 
REMARK       I    between atoms: N_4  and  C_5 
REMARK    2  A    between atoms: C_5  and  C_19 
REMARK    3  A    between atoms: C_7  and  C_8 
REMARK    4  A    between atoms: C_8  and  C_19 
REMARK    5  A    between atoms: C_13  and  C_20 
REMARK    6  A    between atoms: C_13  and  C_14 
REMARK    7  A    between atoms: N_15  and  C_20 
REMARK    8  A    between atoms: C_20  and  C_21 
ROOT
HETATM    1  N           1     -25.973  -7.186 -19.404  0.00  0.00    -0.344 N 
HETATM    2  H           1     -26.106  -7.870 -18.672  0.00  0.00     0.163 HD
HETATM    3  O           1     -26.889  -5.686 -20.782  0.00  0.00    -0.271 OA
HETATM    4  C           1     -27.047  -6.503 -19.907  0.00  0.00     0.249 C 
ENDROOT
BRANCH   4   5
HETATM    5  C           1     -28.430  -6.771 -19.367  0.00  0.00     0.278 C 
BRANCH   5   6
HETATM    6  C           1     -28.482  -6.397 -17.892  0.00  0.00     0.081 C 
BRANCH   6   7
HETATM    7  C           1     -29.690  -5.551 -17.632  0.00  0.00    -0.056 A 
HETATM    8  C           1     -30.855  -6.134 -17.133  0.00  0.00     0.007 A 
HETATM    9  C           1     -31.980  -5.347 -16.891  0.00  0.00     0.001 A 
HETATM   10  C           1     -31.941  -3.976 -17.148  0.00  0.00     0.000 A 
HETATM   11  C           1     -30.775  -3.392 -17.646  0.00  0.00     0.001 A 
HETATM   12  C           1     -29.650  -4.181 -17.888  0.00  0.00     0.007 A 
ENDBRANCH   6   7
ENDBRANCH   5   6
BRANCH   5  13
HETATM   13  N           1     -28.756  -8.226 -19.525  0.00  0.00    -0.066 N 
HETATM   14  H           1     -29.750  -8.330 -19.830  0.00  0.00     0.275 HD
HETATM   15  H           1     -28.620  -8.716 -18.612  0.00  0.00     0.275 HD
HETATM   16  H           1     -28.124  -8.648 -20.243  0.00  0.00     0.275 HD
ENDBRANCH   5  13
ENDBRANCH   4   5
BRANCH   1  17
HETATM   17  C           1     -24.643  -6.928 -19.922  0.00  0.00     0.194 C 
BRANCH  17  18
HETATM   18  C           1     -24.311  -7.946 -20.985  0.00  0.00     0.197 C 
HETATM   19  O           1     -25.192  -8.320 -21.789  0.00  0.00    -0.646 OA
HETATM   20  O           1     -23.155  -8.416 -21.062  0.00  0.00    -0.646 OA
ENDBRANCH  17  18
BRANCH  17  21
HETATM   21  C           1     -23.629  -7.028 -18.791  0.00  0.00     0.138 C 
BRANCH  21  22
HETATM   22  C           1     -24.354  -7.113 -17.470  0.00  0.00     0.217 C 
HETATM   23  N           1     -24.089  -8.143 -16.608  0.00  0.00    -0.370 N 
HETATM   24  H           1     -23.407  -8.848 -16.857  0.00  0.00     0.159 HD
HETATM   25  H           1     -24.576  -8.200 -15.722  0.00  0.00     0.159 HD
HETATM   26  O           1     -25.170  -6.272 -17.174  0.00  0.00    -0.274 OA
ENDBRANCH  21  22
ENDBRANCH  17  21
ENDBRANCH   1  17
TORSDOF 8
ENDMDL
