MODEL 1
REMARK VINA RESULT:      -6.4      0.000      0.000
REMARK  10 active torsions:
REMARK  status: ('A' for Active; 'I' for Inactive)
REMARK       I    between atoms: C_4  and  N_5 
REMARK    1  A    between atoms: C_4  and  C_19 
REMARK    2  A    between atoms: N_5  and  C_8 
REMARK    3  A    between atoms: C_8  and  C_20 
REMARK    4  A    between atoms: C_8  and  C_9 
REMARK    5  A    between atoms: N_10  and  C_11 
REMARK    6  A    between atoms: C_11  and  C_21 
REMARK    7  A    between atoms: C_13  and  C_18 
REMARK    8  A    between atoms: N_15  and  C_19 
REMARK    9  A    between atoms: C_18  and  C_19 
REMARK   10  A    between atoms: C_20  and  C_21 
ROOT
HETATM    1  C           1     -34.011  -2.484 -11.742  0.00  0.00     0.249 C 
HETATM    2  N           1     -34.820  -1.767 -12.582  0.00  0.00    -0.345 N 
HETATM    3  O           1     -33.452  -1.932 -10.824  0.00  0.00    -0.271 OA
HETATM    4  H           1     -35.288  -2.230 -13.351  0.00  0.00     0.163 HD
ENDROOT
BRANCH   2   5
HETATM    5  C           1     -35.006  -0.345 -12.370  0.00  0.00     0.185 C 
BRANCH   5   6
HETATM    6  C           1     -35.057   0.366 -13.716  0.00  0.00     0.038 C 
BRANCH   6   7
HETATM    7  C           1     -35.389  -0.641 -14.810  0.00  0.00     0.030 C 
BRANCH   7   8
HETATM    8  C           1     -36.465  -0.064 -15.722  0.00  0.00     0.230 C 
BRANCH   8   9
HETATM    9  N           1     -36.346  -0.676 -17.086  0.00  0.00    -0.079 N 
HETATM   10  H           1     -36.048   0.055 -17.771  0.00  0.00     0.274 HD
HETATM   11  H           1     -37.272  -1.067 -17.373  0.00  0.00     0.274 HD
HETATM   12  H           1     -35.637  -1.443 -17.063  0.00  0.00     0.274 HD
ENDBRANCH   8   9
ENDBRANCH   7   8
ENDBRANCH   6   7
ENDBRANCH   5   6
BRANCH   5  13
HETATM   13  C           1     -36.300  -0.113 -11.628  0.00  0.00     0.196 C 
HETATM   14  O           1     -37.369  -0.584 -12.073  0.00  0.00    -0.646 OA
HETATM   15  O           1     -36.303   0.551 -10.569  0.00  0.00    -0.646 OA
ENDBRANCH   5  13
ENDBRANCH   2   5
BRANCH   1  16
HETATM   16  C           1     -33.817  -3.964 -11.962  0.00  0.00     0.278 C 
BRANCH  16  17
HETATM   17  N           1     -32.363  -4.247 -12.198  0.00  0.00    -0.066 N 
HETATM   18  H           1     -31.784  -3.567 -11.655  0.00  0.00     0.275 HD
HETATM   19  H           1     -32.143  -5.220 -11.885  0.00  0.00     0.275 HD
HETATM   20  H           1     -32.149  -4.152 -13.215  0.00  0.00     0.275 HD
ENDBRANCH  16  17
BRANCH  16  21
HETATM   21  C           1     -34.290  -4.728 -10.734  0.00  0.00     0.021 C 
HETATM   22  C           1     -35.804  -4.611 -10.613  0.00  0.00     0.012 C 
BRANCH  21  23
HETATM   23  C           1     -33.904  -6.195 -10.869  0.00  0.00     0.002 C 
HETATM   24  C           1     -34.777  -7.038  -9.949  0.00  0.00     0.005 C 
ENDBRANCH  21  23
ENDBRANCH  16  21
ENDBRANCH   1  16
TORSDOF 10
ENDMDL
MODEL 2
REMARK VINA RESULT:      -6.1      2.250      3.439
REMARK  10 active torsions:
REMARK  status: ('A' for Active; 'I' for Inactive)
REMARK       I    between atoms: C_4  and  N_5 
REMARK    1  A    between atoms: C_4  and  C_19 
REMARK    2  A    between atoms: N_5  and  C_8 
REMARK    3  A    between atoms: C_8  and  C_20 
REMARK    4  A    between atoms: C_8  and  C_9 
REMARK    5  A    between atoms: N_10  and  C_11 
REMARK    6  A    between atoms: C_11  and  C_21 
REMARK    7  A    between atoms: C_13  and  C_18 
REMARK    8  A    between atoms: N_15  and  C_19 
REMARK    9  A    between atoms: C_18  and  C_19 
REMARK   10  A    between atoms: C_20  and  C_21 
ROOT
HETATM    1  C           1     -34.585  -2.266 -12.590  0.00  0.00     0.249 C 
HETATM    2  N           1     -35.262  -1.121 -12.266  0.00  0.00    -0.345 N 
HETATM    3  O           1     -34.818  -2.831 -13.632  0.00  0.00    -0.271 OA
HETATM    4  H           1     -35.068  -0.648 -11.393  0.00  0.00     0.163 HD
ENDROOT
BRANCH   2   5
HETATM    5  C           1     -36.258  -0.587 -13.174  0.00  0.00     0.185 C 
BRANCH   5   6
HETATM    6  C           1     -37.444  -0.062 -12.375  0.00  0.00     0.038 C 
BRANCH   6   7
HETATM    7  C           1     -37.335  -0.538 -10.932  0.00  0.00     0.030 C 
BRANCH   7   8
HETATM    8  C           1     -37.724   0.597  -9.992  0.00  0.00     0.230 C 
BRANCH   8   9
HETATM    9  N           1     -36.488   1.194  -9.389  0.00  0.00    -0.079 N 
HETATM   10  H           1     -36.574   2.236  -9.378  0.00  0.00     0.274 HD
HETATM   11  H           1     -35.656   0.918  -9.957  0.00  0.00     0.274 HD
HETATM   12  H           1     -36.373   0.844  -8.411  0.00  0.00     0.274 HD
ENDBRANCH   8   9
ENDBRANCH   7   8
ENDBRANCH   6   7
ENDBRANCH   5   6
BRANCH   5  13
HETATM   13  C           1     -35.654   0.540 -13.976  0.00  0.00     0.196 C 
HETATM   14  O           1     -36.147   0.856 -15.081  0.00  0.00    -0.646 OA
HETATM   15  O           1     -34.660   1.157 -13.536  0.00  0.00    -0.646 OA
ENDBRANCH   5  13
ENDBRANCH   2   5
BRANCH   1  16
HETATM   16  C           1     -33.549  -2.823 -11.645  0.00  0.00     0.278 C 
BRANCH  16  17
HETATM   17  N           1     -33.896  -2.435 -10.238  0.00  0.00    -0.066 N 
HETATM   18  H           1     -33.162  -1.790  -9.864  0.00  0.00     0.275 HD
HETATM   19  H           1     -34.823  -1.951 -10.229  0.00  0.00     0.275 HD
HETATM   20  H           1     -33.943  -3.291  -9.642  0.00  0.00     0.275 HD
ENDBRANCH  16  17
BRANCH  16  21
HETATM   21  C           1     -33.520  -4.340 -11.759  0.00  0.00     0.021 C 
HETATM   22  C           1     -32.100  -4.801 -12.062  0.00  0.00     0.012 C 
BRANCH  21  23
HETATM   23  C           1     -33.984  -4.957 -10.446  0.00  0.00     0.002 C 
HETATM   24  C           1     -34.329  -6.424 -10.666  0.00  0.00     0.005 C 
ENDBRANCH  21  23
ENDBRANCH  16  21
ENDBRANCH   1  16
TORSDOF 10
ENDMDL
MODEL 3
REMARK VINA RESULT:      -6.1      2.286      6.380
REMARK  10 active torsions:
REMARK  status: ('A' for Active; 'I' for Inactive)
REMARK       I    between atoms: C_4  and  N_5 
REMARK    1  A    between atoms: C_4  and  C_19 
REMARK    2  A    between atoms: N_5  and  C_8 
REMARK    3  A    between atoms: C_8  and  C_20 
REMARK    4  A    between atoms: C_8  and  C_9 
REMARK    5  A    between atoms: N_10  and  C_11 
REMARK    6  A    between atoms: C_11  and  C_21 
REMARK    7  A    between atoms: C_13  and  C_18 
REMARK    8  A    between atoms: N_15  and  C_19 
REMARK    9  A    between atoms: C_18  and  C_19 
REMARK   10  A    between atoms: C_20  and  C_21 
ROOT
HETATM    1  C           1     -35.201  -1.874 -11.172  0.00  0.00     0.249 C 
HETATM    2  N           1     -35.322  -3.165 -11.609  0.00  0.00    -0.345 N 
HETATM    3  O           1     -34.240  -1.546 -10.516  0.00  0.00    -0.271 OA
HETATM    4  H           1     -36.126  -3.441 -12.158  0.00  0.00     0.163 HD
ENDROOT
BRANCH   2   5
HETATM    5  C           1     -34.297  -4.139 -11.286  0.00  0.00     0.185 C 
BRANCH   5   6
HETATM    6  C           1     -34.926  -5.522 -11.183  0.00  0.00     0.038 C 
BRANCH   6   7
HETATM    7  C           1     -33.964  -6.467 -10.473  0.00  0.00     0.030 C 
BRANCH   7   8
HETATM    8  C           1     -34.666  -7.789 -10.192  0.00  0.00     0.230 C 
BRANCH   8   9
HETATM    9  N           1     -33.653  -8.895 -10.147  0.00  0.00    -0.079 N 
HETATM   10  H           1     -34.086  -9.746  -9.723  0.00  0.00     0.274 HD
HETATM   11  H           1     -32.836  -8.593  -9.569  0.00  0.00     0.274 HD
HETATM   12  H           1     -33.333  -9.113 -11.117  0.00  0.00     0.274 HD
ENDBRANCH   8   9
ENDBRANCH   7   8
ENDBRANCH   6   7
ENDBRANCH   5   6
BRANCH   5  13
HETATM   13  C           1     -33.247  -4.143 -12.371  0.00  0.00     0.196 C 
HETATM   14  O           1     -32.052  -4.370 -12.084  0.00  0.00    -0.646 OA
HETATM   15  O           1     -33.574  -3.919 -13.557  0.00  0.00    -0.646 OA
ENDBRANCH   5  13
ENDBRANCH   2   5
BRANCH   1  16
HETATM   16  C           1     -36.267  -0.861 -11.507  0.00  0.00     0.278 C 
BRANCH  16  17
HETATM   17  N           1     -36.053   0.379 -10.689  0.00  0.00    -0.066 N 
HETATM   18  H           1     -35.411   1.026 -11.200  0.00  0.00     0.275 HD
HETATM   19  H           1     -36.972   0.852 -10.529  0.00  0.00     0.275 HD
HETATM   20  H           1     -35.628   0.121  -9.770  0.00  0.00     0.275 HD
ENDBRANCH  16  17
BRANCH  16  21
HETATM   21  C           1     -36.189  -0.511 -12.986  0.00  0.00     0.021 C 
HETATM   22  C           1     -37.557  -0.047 -13.472  0.00  0.00     0.012 C 
BRANCH  21  23
HETATM   23  C           1     -35.173   0.605 -13.192  0.00  0.00     0.002 C 
HETATM   24  C           1     -35.177   1.035 -14.652  0.00  0.00     0.005 C 
ENDBRANCH  21  23
ENDBRANCH  16  21
ENDBRANCH   1  16
TORSDOF 10
ENDMDL
MODEL 4
REMARK VINA RESULT:      -5.7     13.802     16.655
REMARK  10 active torsions:
REMARK  status: ('A' for Active; 'I' for Inactive)
REMARK       I    between atoms: C_4  and  N_5 
REMARK    1  A    between atoms: C_4  and  C_19 
REMARK    2  A    between atoms: N_5  and  C_8 
REMARK    3  A    between atoms: C_8  and  C_20 
REMARK    4  A    between atoms: C_8  and  C_9 
REMARK    5  A    between atoms: N_10  and  C_11 
REMARK    6  A    between atoms: C_11  and  C_21 
REMARK    7  A    between atoms: C_13  and  C_18 
REMARK    8  A    between atoms: N_15  and  C_19 
REMARK    9  A    between atoms: C_18  and  C_19 
REMARK   10  A    between atoms: C_20  and  C_21 
ROOT
HETATM    1  C           1     -21.595  -5.015  -6.866  0.00  0.00     0.249 C 
HETATM    2  N           1     -21.623  -6.255  -6.286  0.00  0.00    -0.345 N 
HETATM    3  O           1     -21.031  -4.102  -6.312  0.00  0.00    -0.271 OA
HETATM    4  H           1     -22.096  -7.020  -6.749  0.00  0.00     0.163 HD
ENDROOT
BRANCH   2   5
HETATM    5  C           1     -20.975  -6.471  -5.007  0.00  0.00     0.185 C 
BRANCH   5   6
HETATM    6  C           1     -22.032  -6.695  -3.934  0.00  0.00     0.038 C 
BRANCH   6   7
HETATM    7  C           1     -21.617  -5.981  -2.654  0.00  0.00     0.030 C 
BRANCH   7   8
HETATM    8  C           1     -22.067  -6.796  -1.448  0.00  0.00     0.230 C 
BRANCH   8   9
HETATM    9  N           1     -21.167  -7.985  -1.283  0.00  0.00    -0.079 N 
HETATM   10  H           1     -20.225  -7.766  -1.679  0.00  0.00     0.274 HD
HETATM   11  H           1     -21.577  -8.803  -1.788  0.00  0.00     0.274 HD
HETATM   12  H           1     -21.075  -8.213  -0.268  0.00  0.00     0.274 HD
ENDBRANCH   8   9
ENDBRANCH   7   8
ENDBRANCH   6   7
ENDBRANCH   5   6
BRANCH   5  13
HETATM   13  C           1     -20.082  -7.685  -5.096  0.00  0.00     0.196 C 
HETATM   14  O           1     -19.422  -7.901  -6.136  0.00  0.00    -0.646 OA
HETATM   15  O           1     -20.001  -8.474  -4.129  0.00  0.00    -0.646 OA
ENDBRANCH   5  13
ENDBRANCH   2   5
BRANCH   1  16
HETATM   16  C           1     -22.270  -4.790  -8.196  0.00  0.00     0.278 C 
BRANCH  16  17
HETATM   17  N           1     -23.581  -4.092  -7.980  0.00  0.00    -0.066 N 
HETATM   18  H           1     -23.707  -3.899  -6.960  0.00  0.00     0.275 HD
HETATM   19  H           1     -23.587  -3.191  -8.510  0.00  0.00     0.275 HD
HETATM   20  H           1     -24.359  -4.701  -8.318  0.00  0.00     0.275 HD
ENDBRANCH  16  17
BRANCH  16  21
HETATM   21  C           1     -21.378  -3.929  -9.080  0.00  0.00     0.021 C 
HETATM   22  C           1     -20.137  -4.720  -9.474  0.00  0.00     0.012 C 
BRANCH  21  23
HETATM   23  C           1     -22.143  -3.527 -10.335  0.00  0.00     0.002 C 
HETATM   24  C           1     -21.413  -4.048 -11.565  0.00  0.00     0.005 C 
ENDBRANCH  21  23
ENDBRANCH  16  21
ENDBRANCH   1  16
TORSDOF 10
ENDMDL
MODEL 5
REMARK VINA RESULT:      -5.6     14.034     16.136
REMARK  10 active torsions:
REMARK  status: ('A' for Active; 'I' for Inactive)
REMARK       I    between atoms: C_4  and  N_5 
REMARK    1  A    between atoms: C_4  and  C_19 
REMARK    2  A    between atoms: N_5  and  C_8 
REMARK    3  A    between atoms: C_8  and  C_20 
REMARK    4  A    between atoms: C_8  and  C_9 
REMARK    5  A    between atoms: N_10  and  C_11 
REMARK    6  A    between atoms: C_11  and  C_21 
REMARK    7  A    between atoms: C_13  and  C_18 
REMARK    8  A    between atoms: N_15  and  C_19 
REMARK    9  A    between atoms: C_18  and  C_19 
REMARK   10  A    between atoms: C_20  and  C_21 
ROOT
HETATM    1  C           1     -21.511  -6.590  -4.166  0.00  0.00     0.249 C 
HETATM    2  N           1     -21.035  -5.559  -4.931  0.00  0.00    -0.345 N 
HETATM    3  O           1     -22.081  -7.517  -4.691  0.00  0.00    -0.271 OA
HETATM    4  H           1     -20.558  -4.782  -4.492  0.00  0.00     0.163 HD
ENDROOT
BRANCH   2   5
HETATM    5  C           1     -21.214  -5.581  -6.370  0.00  0.00     0.185 C 
BRANCH   5   6
HETATM    6  C           1     -21.787  -4.248  -6.830  0.00  0.00     0.038 C 
BRANCH   6   7
HETATM    7  C           1     -23.176  -4.467  -7.416  0.00  0.00     0.030 C 
BRANCH   7   8
HETATM    8  C           1     -23.226  -3.902  -8.830  0.00  0.00     0.230 C 
BRANCH   8   9
HETATM    9  N           1     -24.642  -3.918  -9.327  0.00  0.00    -0.079 N 
HETATM   10  H           1     -24.859  -3.007  -9.789  0.00  0.00     0.274 HD
HETATM   11  H           1     -25.290  -4.065  -8.521  0.00  0.00     0.274 HD
HETATM   12  H           1     -24.760  -4.695 -10.015  0.00  0.00     0.274 HD
ENDBRANCH   8   9
ENDBRANCH   7   8
ENDBRANCH   6   7
ENDBRANCH   5   6
BRANCH   5  13
HETATM   13  C           1     -19.880  -5.814  -7.038  0.00  0.00     0.196 C 
HETATM   14  O           1     -19.344  -6.942  -6.987  0.00  0.00    -0.646 OA
HETATM   15  O           1     -19.312  -4.878  -7.642  0.00  0.00    -0.646 OA
ENDBRANCH   5  13
ENDBRANCH   2   5
BRANCH   1  16
HETATM   16  C           1     -21.327  -6.567  -2.669  0.00  0.00     0.278 C 
BRANCH  16  17
HETATM   17  N           1     -22.401  -5.725  -2.046  0.00  0.00    -0.066 N 
HETATM   18  H           1     -22.070  -4.736  -1.976  0.00  0.00     0.275 HD
HETATM   19  H           1     -23.261  -5.766  -2.637  0.00  0.00     0.275 HD
HETATM   20  H           1     -22.617  -6.088  -1.090  0.00  0.00     0.275 HD
ENDBRANCH  16  17
BRANCH  16  21
HETATM   21  C           1     -21.414  -7.986  -2.124  0.00  0.00     0.021 C 
HETATM   22  C           1     -20.020  -8.598  -2.072  0.00  0.00     0.012 C 
BRANCH  21  23
HETATM   23  C           1     -22.007  -7.955  -0.721  0.00  0.00     0.002 C 
HETATM   24  C           1     -22.691  -9.283  -0.428  0.00  0.00     0.005 C 
ENDBRANCH  21  23
ENDBRANCH  16  21
ENDBRANCH   1  16
TORSDOF 10
ENDMDL
MODEL 6
REMARK VINA RESULT:      -5.5      2.574      5.720
REMARK  10 active torsions:
REMARK  status: ('A' for Active; 'I' for Inactive)
REMARK       I    between atoms: C_4  and  N_5 
REMARK    1  A    between atoms: C_4  and  C_19 
REMARK    2  A    between atoms: N_5  and  C_8 
REMARK    3  A    between atoms: C_8  and  C_20 
REMARK    4  A    between atoms: C_8  and  C_9 
REMARK    5  A    between atoms: N_10  and  C_11 
REMARK    6  A    between atoms: C_11  and  C_21 
REMARK    7  A    between atoms: C_13  and  C_18 
REMARK    8  A    between atoms: N_15  and  C_19 
REMARK    9  A    between atoms: C_18  and  C_19 
REMARK   10  A    between atoms: C_20  and  C_21 
ROOT
HETATM    1  C           1     -35.604   0.079 -13.483  0.00  0.00     0.249 C 
HETATM    2  N           1     -35.801  -1.149 -12.912  0.00  0.00    -0.345 N 
HETATM    3  O           1     -34.751   0.817 -13.049  0.00  0.00    -0.271 OA
HETATM    4  H           1     -36.516  -1.767 -13.275  0.00  0.00     0.163 HD
ENDROOT
BRANCH   2   5
HETATM    5  C           1     -34.986  -1.565 -11.787  0.00  0.00     0.185 C 
BRANCH   5   6
HETATM    6  C           1     -35.888  -2.002 -10.641  0.00  0.00     0.038 C 
BRANCH   6   7
HETATM    7  C           1     -36.946  -0.934 -10.391  0.00  0.00     0.030 C 
BRANCH   7   8
HETATM    8  C           1     -36.678  -0.256  -9.053  0.00  0.00     0.230 C 
BRANCH   8   9
HETATM    9  N           1     -36.552   1.224  -9.258  0.00  0.00    -0.079 N 
HETATM   10  H           1     -35.670   1.563  -8.811  0.00  0.00     0.274 HD
HETATM   11  H           1     -37.371   1.706  -8.823  0.00  0.00     0.274 HD
HETATM   12  H           1     -36.528   1.433 -10.281  0.00  0.00     0.274 HD
ENDBRANCH   8   9
ENDBRANCH   7   8
ENDBRANCH   6   7
ENDBRANCH   5   6
BRANCH   5  13
HETATM   13  C           1     -34.106  -2.719 -12.204  0.00  0.00     0.196 C 
HETATM   14  O           1     -34.271  -3.259 -13.319  0.00  0.00    -0.646 OA
HETATM   15  O           1     -33.213  -3.134 -11.434  0.00  0.00    -0.646 OA
ENDBRANCH   5  13
ENDBRANCH   2   5
BRANCH   1  16
HETATM   16  C           1     -36.452   0.513 -14.652  0.00  0.00     0.278 C 
BRANCH  16  17
HETATM   17  N           1     -35.739   1.590 -15.416  0.00  0.00    -0.066 N 
HETATM   18  H           1     -36.158   2.518 -15.180  0.00  0.00     0.275 HD
HETATM   19  H           1     -34.727   1.587 -15.157  0.00  0.00     0.275 HD
HETATM   20  H           1     -35.838   1.414 -16.440  0.00  0.00     0.275 HD
ENDBRANCH  16  17
BRANCH  16  21
HETATM   21  C           1     -36.702  -0.677 -15.569  0.00  0.00     0.021 C 
HETATM   22  C           1     -38.075  -0.543 -16.215  0.00  0.00     0.012 C 
BRANCH  21  23
HETATM   23  C           1     -35.633  -0.716 -16.653  0.00  0.00     0.002 C 
HETATM   24  C           1     -34.994  -2.097 -16.690  0.00  0.00     0.005 C 
ENDBRANCH  21  23
ENDBRANCH  16  21
ENDBRANCH   1  16
TORSDOF 10
ENDMDL
MODEL 7
REMARK VINA RESULT:      -5.5      2.715      6.293
REMARK  10 active torsions:
REMARK  status: ('A' for Active; 'I' for Inactive)
REMARK       I    between atoms: C_4  and  N_5 
REMARK    1  A    between atoms: C_4  and  C_19 
REMARK    2  A    between atoms: N_5  and  C_8 
REMARK    3  A    between atoms: C_8  and  C_20 
REMARK    4  A    between atoms: C_8  and  C_9 
REMARK    5  A    between atoms: N_10  and  C_11 
REMARK    6  A    between atoms: C_11  and  C_21 
REMARK    7  A    between atoms: C_13  and  C_18 
REMARK    8  A    between atoms: N_15  and  C_19 
REMARK    9  A    between atoms: C_18  and  C_19 
REMARK   10  A    between atoms: C_20  and  C_21 
ROOT
HETATM    1  C           1     -34.928  -1.669 -10.842  0.00  0.00     0.249 C 
HETATM    2  N           1     -35.338  -2.965 -11.001  0.00  0.00    -0.345 N 
HETATM    3  O           1     -33.759  -1.422 -10.663  0.00  0.00    -0.271 OA
HETATM    4  H           1     -36.317  -3.171 -11.150  0.00  0.00     0.163 HD
ENDROOT
BRANCH   2   5
HETATM    5  C           1     -34.368  -4.042 -10.957  0.00  0.00     0.185 C 
BRANCH   5   6
HETATM    6  C           1     -35.075  -5.346 -10.614  0.00  0.00     0.038 C 
BRANCH   6   7
HETATM    7  C           1     -34.088  -6.503 -10.717  0.00  0.00     0.030 C 
BRANCH   7   8
HETATM    8  C           1     -34.693  -7.746 -10.078  0.00  0.00     0.230 C 
BRANCH   8   9
HETATM    9  N           1     -33.684  -8.856 -10.087  0.00  0.00    -0.079 N 
HETATM   10  H           1     -33.948  -9.572  -9.373  0.00  0.00     0.274 HD
HETATM   11  H           1     -32.740  -8.469  -9.862  0.00  0.00     0.274 HD
HETATM   12  H           1     -33.663  -9.299 -11.033  0.00  0.00     0.274 HD
ENDBRANCH   8   9
ENDBRANCH   7   8
ENDBRANCH   6   7
ENDBRANCH   5   6
BRANCH   5  13
HETATM   13  C           1     -33.699  -4.171 -12.303  0.00  0.00     0.196 C 
HETATM   14  O           1     -32.454  -4.261 -12.377  0.00  0.00    -0.646 OA
HETATM   15  O           1     -34.389  -4.189 -13.346  0.00  0.00    -0.646 OA
ENDBRANCH   5  13
ENDBRANCH   2   5
BRANCH   1  16
HETATM   16  C           1     -35.936  -0.547 -10.887  0.00  0.00     0.278 C 
BRANCH  16  17
HETATM   17  N           1     -36.773  -0.677 -12.126  0.00  0.00    -0.066 N 
HETATM   18  H           1     -36.279  -0.223 -12.928  0.00  0.00     0.275 HD
HETATM   19  H           1     -36.926  -1.689 -12.337  0.00  0.00     0.275 HD
HETATM   20  H           1     -37.694  -0.208 -11.975  0.00  0.00     0.275 HD
ENDBRANCH  16  17
BRANCH  16  21
HETATM   21  C           1     -36.834  -0.620  -9.660  0.00  0.00     0.021 C 
HETATM   22  C           1     -36.077  -0.101  -8.444  0.00  0.00     0.012 C 
BRANCH  21  23
HETATM   23  C           1     -38.075   0.233  -9.887  0.00  0.00     0.002 C 
HETATM   24  C           1     -37.971   1.511  -9.065  0.00  0.00     0.005 C 
ENDBRANCH  21  23
ENDBRANCH  16  21
ENDBRANCH   1  16
TORSDOF 10
ENDMDL
MODEL 8
REMARK VINA RESULT:      -5.4     13.938     15.978
REMARK  10 active torsions:
REMARK  status: ('A' for Active; 'I' for Inactive)
REMARK       I    between atoms: C_4  and  N_5 
REMARK    1  A    between atoms: C_4  and  C_19 
REMARK    2  A    between atoms: N_5  and  C_8 
REMARK    3  A    between atoms: C_8  and  C_20 
REMARK    4  A    between atoms: C_8  and  C_9 
REMARK    5  A    between atoms: N_10  and  C_11 
REMARK    6  A    between atoms: C_11  and  C_21 
REMARK    7  A    between atoms: C_13  and  C_18 
REMARK    8  A    between atoms: N_15  and  C_19 
REMARK    9  A    between atoms: C_18  and  C_19 
REMARK   10  A    between atoms: C_20  and  C_21 
ROOT
HETATM    1  C           1     -21.272  -7.277  -5.233  0.00  0.00     0.249 C 
HETATM    2  N           1     -21.669  -6.044  -5.678  0.00  0.00    -0.345 N 
HETATM    3  O           1     -20.478  -7.923  -5.874  0.00  0.00    -0.271 OA
HETATM    4  H           1     -22.334  -5.503  -5.142  0.00  0.00     0.163 HD
ENDROOT
BRANCH   2   5
HETATM    5  C           1     -21.134  -5.514  -6.917  0.00  0.00     0.185 C 
BRANCH   5   6
HETATM    6  C           1     -22.151  -4.572  -7.546  0.00  0.00     0.038 C 
BRANCH   6   7
HETATM    7  C           1     -22.063  -4.669  -9.064  0.00  0.00     0.030 C 
BRANCH   7   8
HETATM    8  C           1     -23.377  -4.204  -9.679  0.00  0.00     0.230 C 
BRANCH   8   9
HETATM    9  N           1     -24.283  -3.691  -8.599  0.00  0.00    -0.079 N 
HETATM   10  H           1     -23.712  -3.416  -7.768  0.00  0.00     0.274 HD
HETATM   11  H           1     -24.958  -4.440  -8.327  0.00  0.00     0.274 HD
HETATM   12  H           1     -24.809  -2.860  -8.952  0.00  0.00     0.274 HD
ENDBRANCH   8   9
ENDBRANCH   7   8
ENDBRANCH   6   7
ENDBRANCH   5   6
BRANCH   5  13
HETATM   13  C           1     -19.858  -4.760  -6.631  0.00  0.00     0.196 C 
HETATM   14  O           1     -19.048  -4.529  -7.556  0.00  0.00    -0.646 OA
HETATM   15  O           1     -19.610  -4.366  -5.471  0.00  0.00    -0.646 OA
ENDBRANCH   5  13
ENDBRANCH   2   5
BRANCH   1  16
HETATM   16  C           1     -21.829  -7.829  -3.945  0.00  0.00     0.278 C 
BRANCH  16  17
HETATM   17  N           1     -21.572  -9.306  -3.881  0.00  0.00    -0.066 N 
HETATM   18  H           1     -21.837  -9.664  -2.935  0.00  0.00     0.275 HD
HETATM   19  H           1     -22.144  -9.790  -4.611  0.00  0.00     0.275 HD
HETATM   20  H           1     -20.559  -9.491  -4.053  0.00  0.00     0.275 HD
ENDBRANCH  16  17
BRANCH  16  21
HETATM   21  C           1     -21.153  -7.146  -2.764  0.00  0.00     0.021 C 
HETATM   22  C           1     -22.151  -6.234  -2.063  0.00  0.00     0.012 C 
BRANCH  21  23
HETATM   23  C           1     -20.656  -8.201  -1.784  0.00  0.00     0.002 C 
HETATM   24  C           1     -21.377  -8.039  -0.453  0.00  0.00     0.005 C 
ENDBRANCH  21  23
ENDBRANCH  16  21
ENDBRANCH   1  16
TORSDOF 10
ENDMDL
MODEL 9
REMARK VINA RESULT:      -5.1     16.609     18.051
REMARK  10 active torsions:
REMARK  status: ('A' for Active; 'I' for Inactive)
REMARK       I    between atoms: C_4  and  N_5 
REMARK    1  A    between atoms: C_4  and  C_19 
REMARK    2  A    between atoms: N_5  and  C_8 
REMARK    3  A    between atoms: C_8  and  C_20 
REMARK    4  A    between atoms: C_8  and  C_9 
REMARK    5  A    between atoms: N_10  and  C_11 
REMARK    6  A    between atoms: C_11  and  C_21 
REMARK    7  A    between atoms: C_13  and  C_18 
REMARK    8  A    between atoms: N_15  and  C_19 
REMARK    9  A    between atoms: C_18  and  C_19 
REMARK   10  A    between atoms: C_20  and  C_21 
ROOT
HETATM    1  C           1     -21.322  -8.454  -2.353  0.00  0.00     0.249 C 
HETATM    2  N           1     -20.797  -7.696  -3.365  0.00  0.00    -0.345 N 
HETATM    3  O           1     -21.714  -9.575  -2.579  0.00  0.00    -0.271 OA
HETATM    4  H           1     -20.469  -6.757  -3.176  0.00  0.00     0.163 HD
ENDROOT
BRANCH   2   5
HETATM    5  C           1     -20.710  -8.238  -4.707  0.00  0.00     0.185 C 
BRANCH   5   6
HETATM    6  C           1     -21.117  -7.170  -5.713  0.00  0.00     0.038 C 
BRANCH   6   7
HETATM    7  C           1     -21.094  -5.803  -5.040  0.00  0.00     0.030 C 
BRANCH   7   8
HETATM    8  C           1     -20.143  -4.881  -5.793  0.00  0.00     0.230 C 
BRANCH   8   9
HETATM    9  N           1     -20.918  -4.065  -6.785  0.00  0.00    -0.079 N 
HETATM   10  H           1     -20.669  -4.365  -7.754  0.00  0.00     0.274 HD
HETATM   11  H           1     -20.683  -3.054  -6.661  0.00  0.00     0.274 HD
HETATM   12  H           1     -21.941  -4.206  -6.628  0.00  0.00     0.274 HD
ENDBRANCH   8   9
ENDBRANCH   7   8
ENDBRANCH   6   7
ENDBRANCH   5   6
BRANCH   5  13
HETATM   13  C           1     -19.292  -8.675  -4.982  0.00  0.00     0.196 C 
HETATM   14  O           1     -18.854  -8.676  -6.152  0.00  0.00    -0.646 OA
HETATM   15  O           1     -18.555  -9.036  -4.038  0.00  0.00    -0.646 OA
ENDBRANCH   5  13
ENDBRANCH   2   5
BRANCH   1  16
HETATM   16  C           1     -21.413  -7.890  -0.957  0.00  0.00     0.278 C 
BRANCH  16  17
HETATM   17  N           1     -22.457  -6.814  -0.919  0.00  0.00    -0.066 N 
HETATM   18  H           1     -22.924  -6.750  -1.852  0.00  0.00     0.275 HD
HETATM   19  H           1     -23.167  -7.044  -0.187  0.00  0.00     0.275 HD
HETATM   20  H           1     -22.006  -5.899  -0.693  0.00  0.00     0.275 HD
ENDBRANCH  16  17
BRANCH  16  21
HETATM   21  C           1     -21.792  -8.998   0.016  0.00  0.00     0.021 C 
HETATM   22  C           1     -21.062  -8.789   1.336  0.00  0.00     0.012 C 
BRANCH  21  23
HETATM   23  C           1     -23.296  -8.968   0.258  0.00  0.00     0.002 C 
HETATM   24  C           1     -23.876 -10.358   0.031  0.00  0.00     0.005 C 
ENDBRANCH  21  23
ENDBRANCH  16  21
ENDBRANCH   1  16
TORSDOF 10
ENDMDL
