MODEL 1
REMARK VINA RESULT:      -6.6      0.000      0.000
REMARK  7 active torsions:
REMARK  status: ('A' for Active; 'I' for Inactive)
REMARK    1  A    between atoms: C_1  and  C_7 
REMARK    2  A    between atoms: C_1  and  C_21 
REMARK    3  A    between atoms: C_1  and  N_6 
REMARK    4  A    between atoms: N_3  and  C_10 
REMARK       I    between atoms: N_3  and  C_7 
REMARK    5  A    between atoms: C_10  and  C_16 
REMARK       I    between atoms: N_18  and  C_19 
REMARK    6  A    between atoms: C_19  and  C_20 
REMARK    7  A    between atoms: C_20  and  C_21 
ROOT
HETATM    1  C           1     -34.290  -2.459 -11.767  0.00  0.00     0.275 C 
ENDROOT
BRANCH   1   2
HETATM    2  C           1     -35.239  -1.683 -12.646  0.00  0.00     0.249 C 
HETATM    3  N           1     -34.803  -1.163 -13.834  0.00  0.00    -0.345 N 
HETATM    4  H           1     -33.843  -1.300 -14.124  0.00  0.00     0.163 HD
HETATM    5  O           1     -36.386  -1.520 -12.300  0.00  0.00    -0.271 OA
BRANCH   3   6
HETATM    6  C           1     -35.716  -0.417 -14.679  0.00  0.00     0.181 C 
HETATM    7  C           1     -35.257   1.032 -14.765  0.00  0.00     0.043 C 
BRANCH   6   8
HETATM    8  C           1     -35.731  -1.024 -16.061  0.00  0.00     0.196 C 
HETATM    9  O           1     -36.387  -0.480 -16.975  0.00  0.00    -0.646 OA
HETATM   10  O           1     -35.088  -2.071 -16.291  0.00  0.00    -0.646 OA
ENDBRANCH   6   8
ENDBRANCH   3   6
ENDBRANCH   1   2
BRANCH   1  11
HETATM   11  C           1     -35.044  -3.586 -11.074  0.00  0.00     0.052 C 
BRANCH  11  12
HETATM   12  C           1     -34.053  -4.641 -10.598  0.00  0.00     0.105 C 
BRANCH  12  13
HETATM   13  C           1     -34.431  -5.984 -11.174  0.00  0.00     0.215 C 
HETATM   14  O           1     -34.375  -6.974 -10.484  0.00  0.00    -0.274 OA
HETATM   15  N           1     -34.836  -6.078 -12.478  0.00  0.00    -0.370 N 
HETATM   16  H           1     -34.883  -5.249 -13.055  0.00  0.00     0.159 HD
HETATM   17  H           1     -35.089  -6.980 -12.865  0.00  0.00     0.159 HD
ENDBRANCH  12  13
ENDBRANCH  11  12
ENDBRANCH   1  11
BRANCH   1  18
HETATM   18  N           1     -33.702  -1.543 -10.735  0.00  0.00    -0.066 N 
HETATM   19  H           1     -33.423  -2.097  -9.895  0.00  0.00     0.275 HD
HETATM   20  H           1     -32.862  -1.066 -11.133  0.00  0.00     0.275 HD
HETATM   21  H           1     -34.413  -0.827 -10.461  0.00  0.00     0.275 HD
ENDBRANCH   1  18
TORSDOF 7
ENDMDL
MODEL 2
REMARK VINA RESULT:      -6.5      9.251     10.485
REMARK  7 active torsions:
REMARK  status: ('A' for Active; 'I' for Inactive)
REMARK    1  A    between atoms: C_1  and  C_7 
REMARK    2  A    between atoms: C_1  and  C_21 
REMARK    3  A    between atoms: C_1  and  N_6 
REMARK    4  A    between atoms: N_3  and  C_10 
REMARK       I    between atoms: N_3  and  C_7 
REMARK    5  A    between atoms: C_10  and  C_16 
REMARK       I    between atoms: N_18  and  C_19 
REMARK    6  A    between atoms: C_19  and  C_20 
REMARK    7  A    between atoms: C_20  and  C_21 
ROOT
HETATM    1  C           1     -29.519  -6.713 -17.676  0.00  0.00     0.275 C 
ENDROOT
BRANCH   1   2
HETATM    2  C           1     -28.482  -6.336 -18.706  0.00  0.00     0.249 C 
HETATM    3  N           1     -27.694  -7.302 -19.269  0.00  0.00    -0.345 N 
HETATM    4  H           1     -27.807  -8.270 -18.996  0.00  0.00     0.163 HD
HETATM    5  O           1     -28.348  -5.180 -19.032  0.00  0.00    -0.271 OA
BRANCH   3   6
HETATM    6  C           1     -26.697  -6.939 -20.258  0.00  0.00     0.181 C 
HETATM    7  C           1     -25.378  -6.634 -19.561  0.00  0.00     0.043 C 
BRANCH   6   8
HETATM    8  C           1     -26.505  -8.086 -21.221  0.00  0.00     0.196 C 
HETATM    9  O           1     -27.471  -8.821 -21.518  0.00  0.00    -0.646 OA
HETATM   10  O           1     -25.380  -8.300 -21.722  0.00  0.00    -0.646 OA
ENDBRANCH   6   8
ENDBRANCH   3   6
ENDBRANCH   1   2
BRANCH   1  11
HETATM   11  C           1     -29.805  -5.516 -16.779  0.00  0.00     0.052 C 
BRANCH  11  12
HETATM   12  C           1     -31.240  -5.052 -16.994  0.00  0.00     0.105 C 
BRANCH  12  13
HETATM   13  C           1     -31.239  -3.635 -17.513  0.00  0.00     0.215 C 
HETATM   14  O           1     -32.285  -3.067 -17.718  0.00  0.00    -0.274 OA
HETATM   15  N           1     -30.053  -2.995 -17.752  0.00  0.00    -0.370 N 
HETATM   16  H           1     -29.177  -3.471 -17.580  0.00  0.00     0.159 HD
HETATM   17  H           1     -30.053  -2.044 -18.101  0.00  0.00     0.159 HD
ENDBRANCH  12  13
ENDBRANCH  11  12
ENDBRANCH   1  11
BRANCH   1  18
HETATM   18  N           1     -29.006  -7.850 -16.844  0.00  0.00    -0.066 N 
HETATM   19  H           1     -27.999  -8.019 -17.065  0.00  0.00     0.275 HD
HETATM   20  H           1     -29.104  -7.612 -15.831  0.00  0.00     0.275 HD
HETATM   21  H           1     -29.558  -8.712 -17.055  0.00  0.00     0.275 HD
ENDBRANCH   1  18
TORSDOF 7
ENDMDL
MODEL 3
REMARK VINA RESULT:      -6.3      1.914      2.299
REMARK  7 active torsions:
REMARK  status: ('A' for Active; 'I' for Inactive)
REMARK    1  A    between atoms: C_1  and  C_7 
REMARK    2  A    between atoms: C_1  and  C_21 
REMARK    3  A    between atoms: C_1  and  N_6 
REMARK    4  A    between atoms: N_3  and  C_10 
REMARK       I    between atoms: N_3  and  C_7 
REMARK    5  A    between atoms: C_10  and  C_16 
REMARK       I    between atoms: N_18  and  C_19 
REMARK    6  A    between atoms: C_19  and  C_20 
REMARK    7  A    between atoms: C_20  and  C_21 
ROOT
HETATM    1  C           1     -33.905  -3.630 -12.366  0.00  0.00     0.275 C 
ENDROOT
BRANCH   1   2
HETATM    2  C           1     -34.427  -2.229 -12.163  0.00  0.00     0.249 C 
HETATM    3  N           1     -34.956  -1.536 -13.218  0.00  0.00    -0.345 N 
HETATM    4  H           1     -34.997  -1.963 -14.134  0.00  0.00     0.163 HD
HETATM    5  O           1     -34.378  -1.719 -11.069  0.00  0.00    -0.271 OA
BRANCH   3   6
HETATM    6  C           1     -35.457  -0.189 -13.024  0.00  0.00     0.181 C 
HETATM    7  C           1     -34.985   0.698 -14.167  0.00  0.00     0.043 C 
BRANCH   6   8
HETATM    8  C           1     -36.967  -0.215 -12.996  0.00  0.00     0.196 C 
HETATM    9  O           1     -37.601  -0.687 -13.963  0.00  0.00    -0.646 OA
HETATM   10  O           1     -37.581   0.237 -12.005  0.00  0.00    -0.646 OA
ENDBRANCH   6   8
ENDBRANCH   3   6
ENDBRANCH   1   2
BRANCH   1  11
HETATM   11  C           1     -34.874  -4.629 -11.748  0.00  0.00     0.052 C 
BRANCH  11  12
HETATM   12  C           1     -34.246  -5.244 -10.504  0.00  0.00     0.105 C 
BRANCH  12  13
HETATM   13  C           1     -34.673  -6.686 -10.384  0.00  0.00     0.215 C 
HETATM   14  O           1     -34.677  -7.227  -9.303  0.00  0.00    -0.274 OA
HETATM   15  N           1     -35.056  -7.380 -11.499  0.00  0.00    -0.370 N 
HETATM   16  H           1     -35.053  -6.928 -12.404  0.00  0.00     0.159 HD
HETATM   17  H           1     -35.343  -8.349 -11.418  0.00  0.00     0.159 HD
ENDBRANCH  12  13
ENDBRANCH  11  12
ENDBRANCH   1  11
BRANCH   1  18
HETATM   18  N           1     -32.564  -3.763 -11.708  0.00  0.00    -0.066 N 
HETATM   19  H           1     -31.964  -4.410 -12.266  0.00  0.00     0.275 HD
HETATM   20  H           1     -32.108  -2.824 -11.656  0.00  0.00     0.275 HD
HETATM   21  H           1     -32.686  -4.146 -10.743  0.00  0.00     0.275 HD
ENDBRANCH   1  18
TORSDOF 7
ENDMDL
MODEL 4
REMARK VINA RESULT:      -6.0     13.149     14.674
REMARK  7 active torsions:
REMARK  status: ('A' for Active; 'I' for Inactive)
REMARK    1  A    between atoms: C_1  and  C_7 
REMARK    2  A    between atoms: C_1  and  C_21 
REMARK    3  A    between atoms: C_1  and  N_6 
REMARK    4  A    between atoms: N_3  and  C_10 
REMARK       I    between atoms: N_3  and  C_7 
REMARK    5  A    between atoms: C_10  and  C_16 
REMARK       I    between atoms: N_18  and  C_19 
REMARK    6  A    between atoms: C_19  and  C_20 
REMARK    7  A    between atoms: C_20  and  C_21 
ROOT
HETATM    1  C           1     -21.155  -5.919  -6.861  0.00  0.00     0.275 C 
ENDROOT
BRANCH   1   2
HETATM    2  C           1     -21.580  -4.726  -7.681  0.00  0.00     0.249 C 
HETATM    3  N           1     -21.904  -4.881  -9.001  0.00  0.00    -0.345 N 
HETATM    4  H           1     -21.859  -5.798  -9.428  0.00  0.00     0.163 HD
HETATM    5  O           1     -21.633  -3.632  -7.171  0.00  0.00    -0.271 OA
BRANCH   3   6
HETATM    6  C           1     -22.311  -3.734  -9.789  0.00  0.00     0.181 C 
HETATM    7  C           1     -21.313  -3.513 -10.918  0.00  0.00     0.043 C 
BRANCH   6   8
HETATM    8  C           1     -23.682  -3.985 -10.370  0.00  0.00     0.196 C 
HETATM    9  O           1     -24.444  -3.024 -10.608  0.00  0.00    -0.646 OA
HETATM   10  O           1     -24.054  -5.154 -10.612  0.00  0.00    -0.646 OA
ENDBRANCH   6   8
ENDBRANCH   3   6
ENDBRANCH   1   2
BRANCH   1  11
HETATM   11  C           1     -21.192  -5.560  -5.382  0.00  0.00     0.052 C 
BRANCH  11  12
HETATM   12  C           1     -22.140  -6.504  -4.654  0.00  0.00     0.105 C 
BRANCH  12  13
HETATM   13  C           1     -21.727  -6.616  -3.207  0.00  0.00     0.215 C 
HETATM   14  O           1     -20.832  -7.365  -2.890  0.00  0.00    -0.274 OA
HETATM   15  N           1     -22.366  -5.871  -2.253  0.00  0.00    -0.370 N 
HETATM   16  H           1     -23.115  -5.244  -2.518  0.00  0.00     0.159 HD
HETATM   17  H           1     -22.088  -5.946  -1.282  0.00  0.00     0.159 HD
ENDBRANCH  12  13
ENDBRANCH  11  12
ENDBRANCH   1  11
BRANCH   1  18
HETATM   18  N           1     -19.761  -6.318  -7.245  0.00  0.00    -0.066 N 
HETATM   19  H           1     -19.621  -7.334  -7.045  0.00  0.00     0.275 HD
HETATM   20  H           1     -19.617  -6.142  -8.265  0.00  0.00     0.275 HD
HETATM   21  H           1     -19.075  -5.757  -6.693  0.00  0.00     0.275 HD
ENDBRANCH   1  18
TORSDOF 7
ENDMDL
MODEL 5
REMARK VINA RESULT:      -6.0     12.708     14.878
REMARK  7 active torsions:
REMARK  status: ('A' for Active; 'I' for Inactive)
REMARK    1  A    between atoms: C_1  and  C_7 
REMARK    2  A    between atoms: C_1  and  C_21 
REMARK    3  A    between atoms: C_1  and  N_6 
REMARK    4  A    between atoms: N_3  and  C_10 
REMARK       I    between atoms: N_3  and  C_7 
REMARK    5  A    between atoms: C_10  and  C_16 
REMARK       I    between atoms: N_18  and  C_19 
REMARK    6  A    between atoms: C_19  and  C_20 
REMARK    7  A    between atoms: C_20  and  C_21 
ROOT
HETATM    1  C           1     -21.165  -3.476 -11.188  0.00  0.00     0.275 C 
ENDROOT
BRANCH   1   2
HETATM    2  C           1     -20.476  -4.415 -10.230  0.00  0.00     0.249 C 
HETATM    3  N           1     -20.770  -4.368  -8.894  0.00  0.00    -0.345 N 
HETATM    4  H           1     -21.450  -3.703  -8.549  0.00  0.00     0.163 HD
HETATM    5  O           1     -19.664  -5.210 -10.642  0.00  0.00    -0.271 OA
BRANCH   3   6
HETATM    6  C           1     -20.108  -5.271  -7.973  0.00  0.00     0.181 C 
HETATM    7  C           1     -19.049  -4.508  -7.188  0.00  0.00     0.043 C 
BRANCH   6   8
HETATM    8  C           1     -21.124  -5.849  -7.018  0.00  0.00     0.196 C 
HETATM    9  O           1     -22.089  -5.152  -6.636  0.00  0.00    -0.646 OA
HETATM   10  O           1     -21.001  -7.024  -6.609  0.00  0.00    -0.646 OA
ENDBRANCH   6   8
ENDBRANCH   3   6
ENDBRANCH   1   2
BRANCH   1  11
HETATM   11  C           1     -22.404  -2.889 -10.525  0.00  0.00     0.052 C 
BRANCH  11  12
HETATM   12  C           1     -23.587  -3.825 -10.741  0.00  0.00     0.105 C 
BRANCH  12  13
HETATM   13  C           1     -24.587  -3.639  -9.627  0.00  0.00     0.215 C 
HETATM   14  O           1     -25.689  -3.208  -9.870  0.00  0.00    -0.274 OA
HETATM   15  N           1     -24.244  -3.956  -8.340  0.00  0.00    -0.370 N 
HETATM   16  H           1     -23.321  -4.317  -8.136  0.00  0.00     0.159 HD
HETATM   17  H           1     -24.916  -3.831  -7.592  0.00  0.00     0.159 HD
ENDBRANCH  12  13
ENDBRANCH  11  12
ENDBRANCH   1  11
BRANCH   1  18
HETATM   18  N           1     -21.567  -4.228 -12.422  0.00  0.00    -0.066 N 
HETATM   19  H           1     -22.282  -4.948 -12.175  0.00  0.00     0.275 HD
HETATM   20  H           1     -21.972  -3.562 -13.119  0.00  0.00     0.275 HD
HETATM   21  H           1     -20.728  -4.696 -12.833  0.00  0.00     0.275 HD
ENDBRANCH   1  18
TORSDOF 7
ENDMDL
MODEL 6
REMARK VINA RESULT:      -5.9     13.514     16.337
REMARK  7 active torsions:
REMARK  status: ('A' for Active; 'I' for Inactive)
REMARK    1  A    between atoms: C_1  and  C_7 
REMARK    2  A    between atoms: C_1  and  C_21 
REMARK    3  A    between atoms: C_1  and  N_6 
REMARK    4  A    between atoms: N_3  and  C_10 
REMARK       I    between atoms: N_3  and  C_7 
REMARK    5  A    between atoms: C_10  and  C_16 
REMARK       I    between atoms: N_18  and  C_19 
REMARK    6  A    between atoms: C_19  and  C_20 
REMARK    7  A    between atoms: C_20  and  C_21 
ROOT
HETATM    1  C           1     -20.656  -4.782  -6.873  0.00  0.00     0.275 C 
ENDROOT
BRANCH   1   2
HETATM    2  C           1     -21.544  -5.571  -5.944  0.00  0.00     0.249 C 
HETATM    3  N           1     -20.999  -6.499  -5.098  0.00  0.00    -0.345 N 
HETATM    4  H           1     -19.999  -6.655  -5.096  0.00  0.00     0.163 HD
HETATM    5  O           1     -22.738  -5.384  -5.946  0.00  0.00    -0.271 OA
BRANCH   3   6
HETATM    6  C           1     -21.853  -7.257  -4.205  0.00  0.00     0.181 C 
HETATM    7  C           1     -21.511  -8.737  -4.311  0.00  0.00     0.043 C 
BRANCH   6   8
HETATM    8  C           1     -21.635  -6.790  -2.786  0.00  0.00     0.196 C 
HETATM    9  O           1     -20.778  -7.349  -2.069  0.00  0.00    -0.646 OA
HETATM   10  O           1     -22.313  -5.845  -2.328  0.00  0.00    -0.646 OA
ENDBRANCH   6   8
ENDBRANCH   3   6
ENDBRANCH   1   2
BRANCH   1  11
HETATM   11  C           1     -21.468  -3.681  -7.541  0.00  0.00     0.052 C 
BRANCH  11  12
HETATM   12  C           1     -21.706  -4.041  -9.003  0.00  0.00     0.105 C 
BRANCH  12  13
HETATM   13  C           1     -23.137  -3.732  -9.371  0.00  0.00     0.215 C 
HETATM   14  O           1     -23.404  -3.343 -10.483  0.00  0.00    -0.274 OA
HETATM   15  N           1     -24.131  -3.892  -8.444  0.00  0.00    -0.370 N 
HETATM   16  H           1     -23.908  -4.219  -7.513  0.00  0.00     0.159 HD
HETATM   17  H           1     -25.091  -3.685  -8.691  0.00  0.00     0.159 HD
ENDBRANCH  12  13
ENDBRANCH  11  12
ENDBRANCH   1  11
BRANCH   1  18
HETATM   18  N           1     -20.094  -5.695  -7.922  0.00  0.00    -0.066 N 
HETATM   19  H           1     -20.054  -5.193  -8.837  0.00  0.00     0.275 HD
HETATM   20  H           1     -19.131  -5.991  -7.646  0.00  0.00     0.275 HD
HETATM   21  H           1     -20.705  -6.537  -8.014  0.00  0.00     0.275 HD
ENDBRANCH   1  18
TORSDOF 7
ENDMDL
MODEL 7
REMARK VINA RESULT:      -5.7     10.873     11.678
REMARK  7 active torsions:
REMARK  status: ('A' for Active; 'I' for Inactive)
REMARK    1  A    between atoms: C_1  and  C_7 
REMARK    2  A    between atoms: C_1  and  C_21 
REMARK    3  A    between atoms: C_1  and  N_6 
REMARK    4  A    between atoms: N_3  and  C_10 
REMARK       I    between atoms: N_3  and  C_7 
REMARK    5  A    between atoms: C_10  and  C_16 
REMARK       I    between atoms: N_18  and  C_19 
REMARK    6  A    between atoms: C_19  and  C_20 
REMARK    7  A    between atoms: C_20  and  C_21 
ROOT
HETATM    1  C           1     -25.183  -6.565 -17.803  0.00  0.00     0.275 C 
ENDROOT
BRANCH   1   2
HETATM    2  C           1     -26.546  -6.167 -17.292  0.00  0.00     0.249 C 
HETATM    3  N           1     -27.660  -6.415 -18.046  0.00  0.00    -0.345 N 
HETATM    4  H           1     -27.570  -6.866 -18.948  0.00  0.00     0.163 HD
HETATM    5  O           1     -26.653  -5.629 -16.215  0.00  0.00    -0.271 OA
BRANCH   3   6
HETATM    6  C           1     -28.969  -6.032 -17.555  0.00  0.00     0.181 C 
HETATM    7  C           1     -29.434  -4.774 -18.276  0.00  0.00     0.043 C 
BRANCH   6   8
HETATM    8  C           1     -29.949  -7.152 -17.812  0.00  0.00     0.196 C 
HETATM    9  O           1     -29.605  -8.137 -18.500  0.00  0.00    -0.646 OA
HETATM   10  O           1     -31.104  -7.092 -17.338  0.00  0.00    -0.646 OA
ENDBRANCH   6   8
ENDBRANCH   3   6
ENDBRANCH   1   2
BRANCH   1  11
HETATM   11  C           1     -25.291  -6.994 -19.260  0.00  0.00     0.052 C 
BRANCH  11  12
HETATM   12  C           1     -23.898  -7.277 -19.810  0.00  0.00     0.105 C 
BRANCH  12  13
HETATM   13  C           1     -24.006  -8.184 -21.011  0.00  0.00     0.215 C 
HETATM   14  O           1     -24.972  -8.116 -21.735  0.00  0.00    -0.274 OA
HETATM   15  N           1     -23.011  -9.084 -21.280  0.00  0.00    -0.370 N 
HETATM   16  H           1     -22.202  -9.141 -20.675  0.00  0.00     0.159 HD
HETATM   17  H           1     -23.083  -9.692 -22.087  0.00  0.00     0.159 HD
ENDBRANCH  12  13
ENDBRANCH  11  12
ENDBRANCH   1  11
BRANCH   1  18
HETATM   18  N           1     -24.656  -7.706 -16.984  0.00  0.00    -0.066 N 
HETATM   19  H           1     -23.770  -8.061 -17.409  0.00  0.00     0.275 HD
HETATM   20  H           1     -24.467  -7.377 -16.011  0.00  0.00     0.275 HD
HETATM   21  H           1     -25.364  -8.474 -16.962  0.00  0.00     0.275 HD
ENDBRANCH   1  18
TORSDOF 7
ENDMDL
MODEL 8
REMARK VINA RESULT:      -5.7      2.392      3.665
REMARK  7 active torsions:
REMARK  status: ('A' for Active; 'I' for Inactive)
REMARK    1  A    between atoms: C_1  and  C_7 
REMARK    2  A    between atoms: C_1  and  C_21 
REMARK    3  A    between atoms: C_1  and  N_6 
REMARK    4  A    between atoms: N_3  and  C_10 
REMARK       I    between atoms: N_3  and  C_7 
REMARK    5  A    between atoms: C_10  and  C_16 
REMARK       I    between atoms: N_18  and  C_19 
REMARK    6  A    between atoms: C_19  and  C_20 
REMARK    7  A    between atoms: C_20  and  C_21 
ROOT
HETATM    1  C           1     -34.260  -2.986 -11.961  0.00  0.00     0.275 C 
ENDROOT
BRANCH   1   2
HETATM    2  C           1     -34.978  -1.668 -12.112  0.00  0.00     0.249 C 
HETATM    3  N           1     -35.900  -1.279 -11.179  0.00  0.00    -0.345 N 
HETATM    4  H           1     -36.100  -1.875 -10.387  0.00  0.00     0.163 HD
HETATM    5  O           1     -34.739  -0.956 -13.059  0.00  0.00    -0.271 OA
BRANCH   3   6
HETATM    6  C           1     -36.590  -0.012 -11.325  0.00  0.00     0.181 C 
HETATM    7  C           1     -37.861  -0.217 -12.139  0.00  0.00     0.043 C 
BRANCH   6   8
HETATM    8  C           1     -36.946   0.526  -9.960  0.00  0.00     0.196 C 
HETATM    9  O           1     -37.940   1.272  -9.823  0.00  0.00    -0.646 OA
HETATM   10  O           1     -36.248   0.225  -8.968  0.00  0.00    -0.646 OA
ENDBRANCH   6   8
ENDBRANCH   3   6
ENDBRANCH   1   2
BRANCH   1  11
HETATM   11  C           1     -35.141  -3.961 -11.190  0.00  0.00     0.052 C 
BRANCH  11  12
HETATM   12  C           1     -34.263  -4.951 -10.435  0.00  0.00     0.105 C 
BRANCH  12  13
HETATM   13  C           1     -34.596  -6.355 -10.874  0.00  0.00     0.215 C 
HETATM   14  O           1     -34.575  -7.259 -10.072  0.00  0.00    -0.274 OA
HETATM   15  N           1     -34.919  -6.605 -12.180  0.00  0.00    -0.370 N 
HETATM   16  H           1     -34.937  -5.848 -12.851  0.00  0.00     0.159 HD
HETATM   17  H           1     -35.143  -7.548 -12.474  0.00  0.00     0.159 HD
ENDBRANCH  12  13
ENDBRANCH  11  12
ENDBRANCH   1  11
BRANCH   1  18
HETATM   18  N           1     -32.977  -2.774 -11.215  0.00  0.00    -0.066 N 
HETATM   19  H           1     -32.179  -2.757 -11.889  0.00  0.00     0.275 HD
HETATM   20  H           1     -33.019  -1.864 -10.703  0.00  0.00     0.275 HD
HETATM   21  H           1     -32.839  -3.552 -10.532  0.00  0.00     0.275 HD
ENDBRANCH   1  18
TORSDOF 7
ENDMDL
MODEL 9
REMARK VINA RESULT:      -5.5     13.088     15.786
REMARK  7 active torsions:
REMARK  status: ('A' for Active; 'I' for Inactive)
REMARK    1  A    between atoms: C_1  and  C_7 
REMARK    2  A    between atoms: C_1  and  C_21 
REMARK    3  A    between atoms: C_1  and  N_6 
REMARK    4  A    between atoms: N_3  and  C_10 
REMARK       I    between atoms: N_3  and  C_7 
REMARK    5  A    between atoms: C_10  and  C_16 
REMARK       I    between atoms: N_18  and  C_19 
REMARK    6  A    between atoms: C_19  and  C_20 
REMARK    7  A    between atoms: C_20  and  C_21 
ROOT
HETATM    1  C           1     -21.291  -3.809  -7.131  0.00  0.00     0.275 C 
ENDROOT
BRANCH   1   2
HETATM    2  C           1     -20.788  -4.783  -6.095  0.00  0.00     0.249 C 
HETATM    3  N           1     -21.673  -5.561  -5.398  0.00  0.00    -0.345 N 
HETATM    4  H           1     -22.666  -5.483  -5.580  0.00  0.00     0.163 HD
HETATM    5  O           1     -19.603  -4.876  -5.879  0.00  0.00    -0.271 OA
BRANCH   3   6
HETATM    6  C           1     -21.190  -6.496  -4.402  0.00  0.00     0.181 C 
HETATM    7  C           1     -21.924  -6.263  -3.088  0.00  0.00     0.043 C 
BRANCH   6   8
HETATM    8  C           1     -21.440  -7.908  -4.875  0.00  0.00     0.196 C 
HETATM    9  O           1     -21.243  -8.209  -6.072  0.00  0.00    -0.646 OA
HETATM   10  O           1     -21.843  -8.775  -4.070  0.00  0.00    -0.646 OA
ENDBRANCH   6   8
ENDBRANCH   3   6
ENDBRANCH   1   2
BRANCH   1  11
HETATM   11  C           1     -22.652  -4.265  -7.641  0.00  0.00     0.052 C 
BRANCH  11  12
HETATM   12  C           1     -22.824  -3.826  -9.090  0.00  0.00     0.105 C 
BRANCH  12  13
HETATM   13  C           1     -24.294  -3.760  -9.424  0.00  0.00     0.215 C 
HETATM   14  O           1     -24.838  -2.688  -9.549  0.00  0.00    -0.274 OA
HETATM   15  N           1     -25.011  -4.915  -9.586  0.00  0.00    -0.370 N 
HETATM   16  H           1     -24.555  -5.813  -9.482  0.00  0.00     0.159 HD
HETATM   17  H           1     -25.997  -4.871  -9.811  0.00  0.00     0.159 HD
ENDBRANCH  12  13
ENDBRANCH  11  12
ENDBRANCH   1  11
BRANCH   1  18
HETATM   18  N           1     -20.322  -3.752  -8.275  0.00  0.00    -0.066 N 
HETATM   19  H           1     -19.359  -3.579  -7.908  0.00  0.00     0.275 HD
HETATM   20  H           1     -20.339  -4.661  -8.790  0.00  0.00     0.275 HD
HETATM   21  H           1     -20.593  -2.978  -8.922  0.00  0.00     0.275 HD
ENDBRANCH   1  18
TORSDOF 7
ENDMDL
