MODEL 1
REMARK VINA RESULT:      -7.6      0.000      0.000
REMARK  15 active torsions:
REMARK  status: ('A' for Active; 'I' for Inactive)
REMARK       I    between atoms: C_1  and  N_12 
REMARK    1  A    between atoms: C_1  and  C_6 
REMARK    2  A    between atoms: C_4  and  C_5 
REMARK    3  A    between atoms: C_5  and  C_13 
REMARK    4  A    between atoms: C_6  and  C_17 
REMARK    5  A    between atoms: C_6  and  N_19 
REMARK    6  A    between atoms: C_7  and  C_29 
REMARK    7  A    between atoms: C_7  and  C_8 
REMARK    8  A    between atoms: C_7  and  N_12 
REMARK    9  A    between atoms: C_13  and  C_33 
REMARK   10  A    between atoms: C_13  and  N_31 
REMARK   11  A    between atoms: C_17  and  C_25 
REMARK       I    between atoms: N_20  and  C_22 
REMARK       I    between atoms: N_21  and  C_22 
REMARK   12  A    between atoms: N_23  and  C_24 
REMARK   13  A    between atoms: C_24  and  C_25 
REMARK   14  A    between atoms: C_29  and  C_30 
REMARK   15  A    between atoms: C_30  and  N_31 
ROOT
HETATM    1  C           1     -20.596  -7.179  -6.021  0.00  0.00     0.249 C 
HETATM    2  N           1     -21.111  -8.262  -5.362  0.00  0.00    -0.345 N 
HETATM    3  O           1     -19.418  -7.134  -6.282  0.00  0.00    -0.271 OA
HETATM    4  H           1     -22.099  -8.299  -5.142  0.00  0.00     0.163 HD
ENDROOT
BRANCH   2   5
HETATM    5  C           1     -20.243  -9.357  -4.978  0.00  0.00     0.187 C 
BRANCH   5   6
HETATM    6  C           1     -20.647  -9.865  -3.600  0.00  0.00     0.066 C 
BRANCH   6   7
HETATM    7  C           1     -19.547  -9.540  -2.596  0.00  0.00     0.273 C 
BRANCH   7   8
HETATM    8  N           1     -19.837  -8.285  -1.957  0.00  0.00     0.098 N 
HETATM    9  H           1     -19.686  -7.523  -2.619  0.00  0.00     0.317 HD
BRANCH   8  10
HETATM   10  C           1     -21.219  -8.306  -1.558  0.00  0.00     0.324 C 
BRANCH  10  11
HETATM   11  C           1     -21.314  -8.656  -0.079  0.00  0.00     0.085 C 
BRANCH  11  12
HETATM   12  C           1     -22.050  -9.949   0.081  0.00  0.00    -0.056 A 
HETATM   13  C           1     -23.402 -10.029  -0.255  0.00  0.00     0.007 A 
HETATM   14  C           1     -24.088 -11.235  -0.105  0.00  0.00     0.001 A 
HETATM   15  C           1     -23.422 -12.360   0.380  0.00  0.00     0.000 A 
HETATM   16  C           1     -22.071 -12.280   0.715  0.00  0.00     0.001 A 
HETATM   17  C           1     -21.385 -11.075   0.565  0.00  0.00     0.007 A 
ENDBRANCH  11  12
ENDBRANCH  10  11
BRANCH  10  18
HETATM   18  C           1     -21.829  -6.946  -1.794  0.00  0.00     0.207 C 
HETATM   19  O           1     -22.645  -6.476  -0.972  0.00  0.00    -0.646 OA
HETATM   20  O           1     -21.519  -6.290  -2.812  0.00  0.00    -0.646 OA
ENDBRANCH  10  18
ENDBRANCH   8  10
ENDBRANCH   7   8
ENDBRANCH   6   7
ENDBRANCH   5   6
BRANCH   5  21
HETATM   21  C           1     -20.369 -10.475  -5.983  0.00  0.00     0.196 C 
HETATM   22  O           1     -21.493 -10.790  -6.430  0.00  0.00    -0.646 OA
HETATM   23  O           1     -19.349 -11.088  -6.369  0.00  0.00    -0.646 OA
ENDBRANCH   5  21
ENDBRANCH   2   5
BRANCH   1  24
HETATM   24  C           1     -21.501  -6.038  -6.420  0.00  0.00     0.274 C 
BRANCH  24  25
HETATM   25  C           1     -20.687  -4.755  -6.523  0.00  0.00     0.044 C 
BRANCH  25  26
HETATM   26  C           1     -21.506  -3.690  -7.241  0.00  0.00     0.023 C 
BRANCH  26  27
HETATM   27  C           1     -22.175  -4.303  -8.464  0.00  0.00     0.138 C 
BRANCH  27  28
HETATM   28  N           1     -23.534  -3.758  -8.606  0.00  0.00    -0.227 N 
HETATM   29  C           1     -24.255  -4.104  -9.587  0.00  0.00     0.665 C 
HETATM   30  N           1     -23.795  -4.939 -10.470  0.00  0.00    -0.235 N 
HETATM   31  N           1     -25.425  -3.635  -9.708  0.00  0.00    -0.235 N 
HETATM   32  H           1     -24.390  -5.224 -11.281  0.00  0.00     0.174 HD
HETATM   33  H           1     -22.829  -5.326 -10.370  0.00  0.00     0.174 HD
HETATM   34  H           1     -26.023  -3.921 -10.522  0.00  0.00     0.174 HD
HETATM   35  H           1     -25.797  -2.960  -8.995  0.00  0.00     0.174 HD
HETATM   36  H           1     -23.905  -3.084  -7.892  0.00  0.00     0.177 HD
ENDBRANCH  27  28
ENDBRANCH  26  27
ENDBRANCH  25  26
ENDBRANCH  24  25
BRANCH  24  37
HETATM   37  N           1     -22.575  -5.867  -5.388  0.00  0.00    -0.067 N 
HETATM   38  H           1     -23.490  -5.697  -5.862  0.00  0.00     0.275 HD
HETATM   39  H           1     -22.344  -5.052  -4.775  0.00  0.00     0.275 HD
HETATM   40  H           1     -22.639  -6.732  -4.806  0.00  0.00     0.275 HD
ENDBRANCH  24  37
ENDBRANCH   1  24
TORSDOF 15
ENDMDL
MODEL 2
REMARK VINA RESULT:      -7.5     14.900     17.481
REMARK  15 active torsions:
REMARK  status: ('A' for Active; 'I' for Inactive)
REMARK       I    between atoms: C_1  and  N_12 
REMARK    1  A    between atoms: C_1  and  C_6 
REMARK    2  A    between atoms: C_4  and  C_5 
REMARK    3  A    between atoms: C_5  and  C_13 
REMARK    4  A    between atoms: C_6  and  C_17 
REMARK    5  A    between atoms: C_6  and  N_19 
REMARK    6  A    between atoms: C_7  and  C_29 
REMARK    7  A    between atoms: C_7  and  C_8 
REMARK    8  A    between atoms: C_7  and  N_12 
REMARK    9  A    between atoms: C_13  and  C_33 
REMARK   10  A    between atoms: C_13  and  N_31 
REMARK   11  A    between atoms: C_17  and  C_25 
REMARK       I    between atoms: N_20  and  C_22 
REMARK       I    between atoms: N_21  and  C_22 
REMARK   12  A    between atoms: N_23  and  C_24 
REMARK   13  A    between atoms: C_24  and  C_25 
REMARK   14  A    between atoms: C_29  and  C_30 
REMARK   15  A    between atoms: C_30  and  N_31 
ROOT
HETATM    1  C           1     -34.279  -2.992 -15.965  0.00  0.00     0.249 C 
HETATM    2  N           1     -34.745  -1.763 -16.350  0.00  0.00    -0.345 N 
HETATM    3  O           1     -34.582  -3.442 -14.886  0.00  0.00    -0.271 OA
HETATM    4  H           1     -34.490  -1.386 -17.254  0.00  0.00     0.163 HD
ENDROOT
BRANCH   2   5
HETATM    5  C           1     -35.601  -1.002 -15.462  0.00  0.00     0.187 C 
BRANCH   5   6
HETATM    6  C           1     -34.802   0.133 -14.837  0.00  0.00     0.066 C 
BRANCH   6   7
HETATM    7  C           1     -34.934   0.073 -13.320  0.00  0.00     0.273 C 
BRANCH   7   8
HETATM    8  N           1     -36.181  -0.554 -12.972  0.00  0.00     0.098 N 
HETATM    9  H           1     -36.423  -1.248 -13.680  0.00  0.00     0.317 HD
BRANCH   8  10
HETATM   10  C           1     -36.002  -1.207 -11.703  0.00  0.00     0.324 C 
BRANCH  10  11
HETATM   11  C           1     -34.516  -1.435 -11.454  0.00  0.00     0.085 C 
BRANCH  11  12
HETATM   12  C           1     -34.248  -2.904 -11.345  0.00  0.00    -0.056 A 
HETATM   13  C           1     -32.995  -3.412 -11.687  0.00  0.00     0.007 A 
HETATM   14  C           1     -32.746  -4.781 -11.586  0.00  0.00     0.001 A 
HETATM   15  C           1     -33.750  -5.641 -11.140  0.00  0.00     0.000 A 
HETATM   16  C           1     -35.003  -5.132 -10.799  0.00  0.00     0.001 A 
HETATM   17  C           1     -35.252  -3.764 -10.900  0.00  0.00     0.007 A 
ENDBRANCH  11  12
ENDBRANCH  10  11
BRANCH  10  18
HETATM   18  C           1     -36.568  -0.338 -10.607  0.00  0.00     0.207 C 
HETATM   19  O           1     -36.056  -0.355  -9.468  0.00  0.00    -0.646 OA
HETATM   20  O           1     -37.550   0.400 -10.840  0.00  0.00    -0.646 OA
ENDBRANCH  10  18
ENDBRANCH   8  10
ENDBRANCH   7   8
ENDBRANCH   6   7
ENDBRANCH   5   6
BRANCH   5  21
HETATM   21  C           1     -36.757  -0.431 -16.247  0.00  0.00     0.196 C 
HETATM   22  O           1     -37.408   0.532 -15.789  0.00  0.00    -0.646 OA
HETATM   23  O           1     -37.064  -0.922 -17.356  0.00  0.00    -0.646 OA
ENDBRANCH   5  21
ENDBRANCH   2   5
BRANCH   1  24
HETATM   24  C           1     -33.387  -3.784 -16.889  0.00  0.00     0.274 C 
BRANCH  24  25
HETATM   25  C           1     -32.621  -4.828 -16.087  0.00  0.00     0.044 C 
BRANCH  25  26
HETATM   26  C           1     -31.524  -5.431 -16.954  0.00  0.00     0.023 C 
BRANCH  26  27
HETATM   27  C           1     -30.205  -5.406 -16.194  0.00  0.00     0.138 C 
BRANCH  27  28
HETATM   28  N           1     -29.088  -5.378 -17.150  0.00  0.00    -0.227 N 
HETATM   29  C           1     -28.339  -6.390 -17.278  0.00  0.00     0.665 C 
HETATM   30  N           1     -28.556  -7.455 -16.565  0.00  0.00    -0.235 N 
HETATM   31  N           1     -27.377  -6.365 -18.101  0.00  0.00    -0.235 N 
HETATM   32  H           1     -27.937  -8.290 -16.670  0.00  0.00     0.174 HD
HETATM   33  H           1     -29.350  -7.475 -15.885  0.00  0.00     0.174 HD
HETATM   34  H           1     -26.756  -7.205 -18.208  0.00  0.00     0.174 HD
HETATM   35  H           1     -27.201  -5.506 -18.678  0.00  0.00     0.174 HD
HETATM   36  H           1     -28.913  -4.518 -17.727  0.00  0.00     0.177 HD
ENDBRANCH  27  28
ENDBRANCH  26  27
ENDBRANCH  25  26
ENDBRANCH  24  25
BRANCH  24  37
HETATM   37  N           1     -32.416  -2.859 -17.561  0.00  0.00    -0.067 N 
HETATM   38  H           1     -32.411  -3.046 -18.589  0.00  0.00     0.275 HD
HETATM   39  H           1     -31.458  -3.018 -17.174  0.00  0.00     0.275 HD
HETATM   40  H           1     -32.702  -1.869 -17.387  0.00  0.00     0.275 HD
ENDBRANCH  24  37
ENDBRANCH   1  24
TORSDOF 15
ENDMDL
MODEL 3
REMARK VINA RESULT:      -7.3     15.255     18.352
REMARK  15 active torsions:
REMARK  status: ('A' for Active; 'I' for Inactive)
REMARK       I    between atoms: C_1  and  N_12 
REMARK    1  A    between atoms: C_1  and  C_6 
REMARK    2  A    between atoms: C_4  and  C_5 
REMARK    3  A    between atoms: C_5  and  C_13 
REMARK    4  A    between atoms: C_6  and  C_17 
REMARK    5  A    between atoms: C_6  and  N_19 
REMARK    6  A    between atoms: C_7  and  C_29 
REMARK    7  A    between atoms: C_7  and  C_8 
REMARK    8  A    between atoms: C_7  and  N_12 
REMARK    9  A    between atoms: C_13  and  C_33 
REMARK   10  A    between atoms: C_13  and  N_31 
REMARK   11  A    between atoms: C_17  and  C_25 
REMARK       I    between atoms: N_20  and  C_22 
REMARK       I    between atoms: N_21  and  C_22 
REMARK   12  A    between atoms: N_23  and  C_24 
REMARK   13  A    between atoms: C_24  and  C_25 
REMARK   14  A    between atoms: C_29  and  C_30 
REMARK   15  A    between atoms: C_30  and  N_31 
ROOT
HETATM    1  C           1     -35.057  -0.008 -13.722  0.00  0.00     0.249 C 
HETATM    2  N           1     -35.484  -0.977 -14.589  0.00  0.00    -0.345 N 
HETATM    3  O           1     -34.920   1.129 -14.106  0.00  0.00    -0.271 OA
HETATM    4  H           1     -35.598  -1.930 -14.267  0.00  0.00     0.163 HD
ENDROOT
BRANCH   2   5
HETATM    5  C           1     -35.772  -0.639 -15.969  0.00  0.00     0.187 C 
BRANCH   5   6
HETATM    6  C           1     -35.430  -1.824 -16.863  0.00  0.00     0.066 C 
BRANCH   6   7
HETATM    7  C           1     -33.971  -2.213 -16.656  0.00  0.00     0.273 C 
BRANCH   7   8
HETATM    8  N           1     -33.623  -3.270 -17.567  0.00  0.00     0.098 N 
HETATM    9  H           1     -32.885  -2.949 -18.194  0.00  0.00     0.317 HD
BRANCH   8  10
HETATM   10  C           1     -33.141  -4.378 -16.786  0.00  0.00     0.324 C 
BRANCH  10  11
HETATM   11  C           1     -31.688  -4.130 -16.398  0.00  0.00     0.085 C 
BRANCH  11  12
HETATM   12  C           1     -30.802  -5.066 -17.160  0.00  0.00    -0.056 A 
HETATM   13  C           1     -29.717  -4.568 -17.882  0.00  0.00     0.007 A 
HETATM   14  C           1     -28.893  -5.442 -18.592  0.00  0.00     0.001 A 
HETATM   15  C           1     -29.153  -6.812 -18.579  0.00  0.00     0.000 A 
HETATM   16  C           1     -30.237  -7.309 -17.857  0.00  0.00     0.001 A 
HETATM   17  C           1     -31.061  -6.437 -17.147  0.00  0.00     0.007 A 
ENDBRANCH  11  12
ENDBRANCH  10  11
BRANCH  10  18
HETATM   18  C           1     -33.978  -4.514 -15.539  0.00  0.00     0.207 C 
HETATM   19  O           1     -35.064  -5.132 -15.579  0.00  0.00    -0.646 OA
HETATM   20  O           1     -33.587  -4.007 -14.465  0.00  0.00    -0.646 OA
ENDBRANCH  10  18
ENDBRANCH   8  10
ENDBRANCH   7   8
ENDBRANCH   6   7
ENDBRANCH   5   6
BRANCH   5  21
HETATM   21  C           1     -37.238  -0.309 -16.109  0.00  0.00     0.196 C 
HETATM   22  O           1     -38.075  -1.226 -16.250  0.00  0.00    -0.646 OA
HETATM   23  O           1     -37.615   0.883 -16.086  0.00  0.00    -0.646 OA
ENDBRANCH   5  21
ENDBRANCH   2   5
BRANCH   1  24
HETATM   24  C           1     -34.756  -0.359 -12.285  0.00  0.00     0.274 C 
BRANCH  24  25
HETATM   25  C           1     -34.653  -1.872 -12.142  0.00  0.00     0.044 C 
BRANCH  25  26
HETATM   26  C           1     -33.661  -2.211 -11.037  0.00  0.00     0.023 C 
BRANCH  26  27
HETATM   27  C           1     -33.911  -3.632 -10.550  0.00  0.00     0.138 C 
BRANCH  27  28
HETATM   28  N           1     -34.701  -4.363 -11.551  0.00  0.00    -0.227 N 
HETATM   29  C           1     -34.435  -5.574 -11.807  0.00  0.00     0.665 C 
HETATM   30  N           1     -33.463  -6.171 -11.184  0.00  0.00    -0.235 N 
HETATM   31  N           1     -35.116  -6.203 -12.668  0.00  0.00    -0.235 N 
HETATM   32  H           1     -33.243  -7.171 -11.395  0.00  0.00     0.174 HD
HETATM   33  H           1     -32.901  -5.652 -10.472  0.00  0.00     0.174 HD
HETATM   34  H           1     -34.896  -7.207 -12.881  0.00  0.00     0.174 HD
HETATM   35  H           1     -35.902  -5.721 -13.172  0.00  0.00     0.174 HD
HETATM   36  H           1     -35.487  -3.880 -12.053  0.00  0.00     0.177 HD
ENDBRANCH  27  28
ENDBRANCH  26  27
ENDBRANCH  25  26
ENDBRANCH  24  25
BRANCH  24  37
HETATM   37  N           1     -35.858   0.152 -11.405  0.00  0.00    -0.067 N 
HETATM   38  H           1     -36.667   0.449 -11.996  0.00  0.00     0.275 HD
HETATM   39  H           1     -35.512   0.969 -10.852  0.00  0.00     0.275 HD
HETATM   40  H           1     -36.162  -0.606 -10.753  0.00  0.00     0.275 HD
ENDBRANCH  24  37
ENDBRANCH   1  24
TORSDOF 15
ENDMDL
MODEL 4
REMARK VINA RESULT:      -7.3      1.496      1.970
REMARK  15 active torsions:
REMARK  status: ('A' for Active; 'I' for Inactive)
REMARK       I    between atoms: C_1  and  N_12 
REMARK    1  A    between atoms: C_1  and  C_6 
REMARK    2  A    between atoms: C_4  and  C_5 
REMARK    3  A    between atoms: C_5  and  C_13 
REMARK    4  A    between atoms: C_6  and  C_17 
REMARK    5  A    between atoms: C_6  and  N_19 
REMARK    6  A    between atoms: C_7  and  C_29 
REMARK    7  A    between atoms: C_7  and  C_8 
REMARK    8  A    between atoms: C_7  and  N_12 
REMARK    9  A    between atoms: C_13  and  C_33 
REMARK   10  A    between atoms: C_13  and  N_31 
REMARK   11  A    between atoms: C_17  and  C_25 
REMARK       I    between atoms: N_20  and  C_22 
REMARK       I    between atoms: N_21  and  C_22 
REMARK   12  A    between atoms: N_23  and  C_24 
REMARK   13  A    between atoms: C_24  and  C_25 
REMARK   14  A    between atoms: C_29  and  C_30 
REMARK   15  A    between atoms: C_30  and  N_31 
ROOT
HETATM    1  C           1     -20.453  -5.788  -5.453  0.00  0.00     0.249 C 
HETATM    2  N           1     -19.899  -6.971  -5.860  0.00  0.00    -0.345 N 
HETATM    3  O           1     -20.945  -5.697  -4.354  0.00  0.00    -0.271 OA
HETATM    4  H           1     -19.488  -7.047  -6.782  0.00  0.00     0.163 HD
ENDROOT
BRANCH   2   5
HETATM    5  C           1     -19.902  -8.116  -4.972  0.00  0.00     0.187 C 
BRANCH   5   6
HETATM    6  C           1     -21.189  -8.907  -5.169  0.00  0.00     0.066 C 
BRANCH   6   7
HETATM    7  C           1     -21.805  -9.222  -3.811  0.00  0.00     0.273 C 
BRANCH   7   8
HETATM    8  N           1     -21.325  -8.280  -2.837  0.00  0.00     0.098 N 
HETATM    9  H           1     -21.582  -7.335  -3.122  0.00  0.00     0.317 HD
BRANCH   8  10
HETATM   10  C           1     -21.956  -8.591  -1.582  0.00  0.00     0.324 C 
BRANCH  10  11
HETATM   11  C           1     -21.026  -9.464  -0.749  0.00  0.00     0.085 C 
BRANCH  11  12
HETATM   12  C           1     -21.792 -10.630  -0.206  0.00  0.00    -0.056 A 
HETATM   13  C           1     -21.139 -11.601   0.554  0.00  0.00     0.007 A 
HETATM   14  C           1     -21.853 -12.688   1.059  0.00  0.00     0.001 A 
HETATM   15  C           1     -23.220 -12.803   0.806  0.00  0.00     0.000 A 
HETATM   16  C           1     -23.872 -11.832   0.046  0.00  0.00     0.001 A 
HETATM   17  C           1     -23.159 -10.746  -0.459  0.00  0.00     0.007 A 
ENDBRANCH  11  12
ENDBRANCH  10  11
BRANCH  10  18
HETATM   18  C           1     -22.245  -7.311  -0.836  0.00  0.00     0.207 C 
HETATM   19  O           1     -22.213  -7.294   0.413  0.00  0.00    -0.646 OA
HETATM   20  O           1     -22.517  -6.268  -1.469  0.00  0.00    -0.646 OA
ENDBRANCH  10  18
ENDBRANCH   8  10
ENDBRANCH   7   8
ENDBRANCH   6   7
ENDBRANCH   5   6
BRANCH   5  21
HETATM   21  C           1     -18.717  -8.997  -5.284  0.00  0.00     0.196 C 
HETATM   22  O           1     -18.163  -9.646  -4.371  0.00  0.00    -0.646 OA
HETATM   23  O           1     -18.289  -9.078  -6.456  0.00  0.00    -0.646 OA
ENDBRANCH   5  21
ENDBRANCH   2   5
BRANCH   1  24
HETATM   24  C           1     -20.451  -4.595  -6.379  0.00  0.00     0.274 C 
BRANCH  24  25
HETATM   25  C           1     -21.836  -4.417  -6.984  0.00  0.00     0.044 C 
BRANCH  25  26
HETATM   26  C           1     -21.816  -4.863  -8.440  0.00  0.00     0.023 C 
BRANCH  26  27
HETATM   27  C           1     -22.323  -3.731  -9.324  0.00  0.00     0.138 C 
BRANCH  27  28
HETATM   28  N           1     -23.735  -3.460  -9.014  0.00  0.00    -0.227 N 
HETATM   29  C           1     -24.634  -3.739  -9.860  0.00  0.00     0.665 C 
HETATM   30  N           1     -24.310  -4.265 -11.003  0.00  0.00    -0.235 N 
HETATM   31  N           1     -25.849  -3.506  -9.591  0.00  0.00    -0.235 N 
HETATM   32  H           1     -25.052  -4.495 -11.702  0.00  0.00     0.174 HD
HETATM   33  H           1     -23.307  -4.458 -11.225  0.00  0.00     0.174 HD
HETATM   34  H           1     -26.595  -3.737 -10.293  0.00  0.00     0.174 HD
HETATM   35  H           1     -26.111  -3.081  -8.668  0.00  0.00     0.174 HD
HETATM   36  H           1     -23.996  -3.036  -8.089  0.00  0.00     0.177 HD
ENDBRANCH  27  28
ENDBRANCH  26  27
ENDBRANCH  25  26
ENDBRANCH  24  25
BRANCH  24  37
HETATM   37  N           1     -19.452  -4.816  -7.475  0.00  0.00    -0.067 N 
HETATM   38  H           1     -18.488  -4.827  -7.071  0.00  0.00     0.275 HD
HETATM   39  H           1     -19.526  -4.044  -8.176  0.00  0.00     0.275 HD
HETATM   40  H           1     -19.644  -5.731  -7.942  0.00  0.00     0.275 HD
ENDBRANCH  24  37
ENDBRANCH   1  24
TORSDOF 15
ENDMDL
MODEL 5
REMARK VINA RESULT:      -7.1      1.705      2.084
REMARK  15 active torsions:
REMARK  status: ('A' for Active; 'I' for Inactive)
REMARK       I    between atoms: C_1  and  N_12 
REMARK    1  A    between atoms: C_1  and  C_6 
REMARK    2  A    between atoms: C_4  and  C_5 
REMARK    3  A    between atoms: C_5  and  C_13 
REMARK    4  A    between atoms: C_6  and  C_17 
REMARK    5  A    between atoms: C_6  and  N_19 
REMARK    6  A    between atoms: C_7  and  C_29 
REMARK    7  A    between atoms: C_7  and  C_8 
REMARK    8  A    between atoms: C_7  and  N_12 
REMARK    9  A    between atoms: C_13  and  C_33 
REMARK   10  A    between atoms: C_13  and  N_31 
REMARK   11  A    between atoms: C_17  and  C_25 
REMARK       I    between atoms: N_20  and  C_22 
REMARK       I    between atoms: N_21  and  C_22 
REMARK   12  A    between atoms: N_23  and  C_24 
REMARK   13  A    between atoms: C_24  and  C_25 
REMARK   14  A    between atoms: C_29  and  C_30 
REMARK   15  A    between atoms: C_30  and  N_31 
ROOT
HETATM    1  C           1     -21.353  -6.155  -5.745  0.00  0.00     0.249 C 
HETATM    2  N           1     -20.584  -7.257  -6.006  0.00  0.00    -0.345 N 
HETATM    3  O           1     -21.767  -5.957  -4.628  0.00  0.00    -0.271 OA
HETATM    4  H           1     -20.237  -7.423  -6.942  0.00  0.00     0.163 HD
ENDROOT
BRANCH   2   5
HETATM    5  C           1     -20.267  -8.188  -4.941  0.00  0.00     0.187 C 
BRANCH   5   6
HETATM    6  C           1     -21.332  -9.274  -4.883  0.00  0.00     0.066 C 
BRANCH   6   7
HETATM    7  C           1     -21.640  -9.607  -3.428  0.00  0.00     0.273 C 
BRANCH   7   8
HETATM    8  N           1     -21.411  -8.446  -2.611  0.00  0.00     0.098 N 
HETATM    9  H           1     -21.824  -7.627  -3.059  0.00  0.00     0.317 HD
BRANCH   8  10
HETATM   10  C           1     -22.049  -8.671  -1.342  0.00  0.00     0.324 C 
BRANCH  10  11
HETATM   11  C           1     -21.125  -9.486  -0.447  0.00  0.00     0.085 C 
BRANCH  11  12
HETATM   12  C           1     -21.844 -10.710   0.029  0.00  0.00    -0.056 A 
HETATM   13  C           1     -23.199 -10.880  -0.258  0.00  0.00     0.007 A 
HETATM   14  C           1     -23.868 -12.020   0.188  0.00  0.00     0.001 A 
HETATM   15  C           1     -23.182 -12.991   0.917  0.00  0.00     0.000 A 
HETATM   16  C           1     -21.828 -12.821   1.204  0.00  0.00     0.001 A 
HETATM   17  C           1     -21.159 -11.681   0.759  0.00  0.00     0.007 A 
ENDBRANCH  11  12
ENDBRANCH  10  11
BRANCH  10  18
HETATM   18  C           1     -22.343  -7.344  -0.687  0.00  0.00     0.207 C 
HETATM   19  O           1     -22.358  -7.252   0.559  0.00  0.00    -0.646 OA
HETATM   20  O           1     -22.573  -6.337  -1.391  0.00  0.00    -0.646 OA
ENDBRANCH  10  18
ENDBRANCH   8  10
ENDBRANCH   7   8
ENDBRANCH   6   7
ENDBRANCH   5   6
BRANCH   5  21
HETATM   21  C           1     -18.921  -8.816  -5.207  0.00  0.00     0.196 C 
HETATM   22  O           1     -18.468  -8.855  -6.371  0.00  0.00    -0.646 OA
HETATM   23  O           1     -18.258  -9.299  -4.263  0.00  0.00    -0.646 OA
ENDBRANCH   5  21
ENDBRANCH   2   5
BRANCH   1  24
HETATM   24  C           1     -21.684  -5.186  -6.855  0.00  0.00     0.274 C 
BRANCH  24  25
HETATM   25  C           1     -20.743  -3.991  -6.784  0.00  0.00     0.044 C 
BRANCH  25  26
HETATM   26  C           1     -19.744  -4.063  -7.933  0.00  0.00     0.023 C 
BRANCH  26  27
HETATM   27  C           1     -20.250  -5.040  -8.985  0.00  0.00     0.138 C 
BRANCH  27  28
HETATM   28  N           1     -20.175  -4.414 -10.314  0.00  0.00    -0.227 N 
HETATM   29  C           1     -21.237  -4.131 -10.941  0.00  0.00     0.665 C 
HETATM   30  N           1     -22.394  -4.393 -10.411  0.00  0.00    -0.235 N 
HETATM   31  N           1     -21.172  -3.592 -12.084  0.00  0.00    -0.235 N 
HETATM   32  H           1     -23.272  -4.160 -10.929  0.00  0.00     0.174 HD
HETATM   33  H           1     -22.449  -4.839  -9.467  0.00  0.00     0.174 HD
HETATM   34  H           1     -22.053  -3.357 -12.605  0.00  0.00     0.174 HD
HETATM   35  H           1     -20.237  -3.379 -12.513  0.00  0.00     0.174 HD
HETATM   36  H           1     -19.239  -4.202 -10.741  0.00  0.00     0.177 HD
ENDBRANCH  27  28
ENDBRANCH  26  27
ENDBRANCH  25  26
ENDBRANCH  24  25
BRANCH  24  37
HETATM   37  N           1     -23.100  -4.717  -6.702  0.00  0.00    -0.067 N 
HETATM   38  H           1     -23.600  -4.815  -7.614  0.00  0.00     0.275 HD
HETATM   39  H           1     -23.105  -3.713  -6.408  0.00  0.00     0.275 HD
HETATM   40  H           1     -23.582  -5.294  -5.976  0.00  0.00     0.275 HD
ENDBRANCH  24  37
ENDBRANCH   1  24
TORSDOF 15
ENDMDL
MODEL 6
REMARK VINA RESULT:      -7.0      3.136      8.056
REMARK  15 active torsions:
REMARK  status: ('A' for Active; 'I' for Inactive)
REMARK       I    between atoms: C_1  and  N_12 
REMARK    1  A    between atoms: C_1  and  C_6 
REMARK    2  A    between atoms: C_4  and  C_5 
REMARK    3  A    between atoms: C_5  and  C_13 
REMARK    4  A    between atoms: C_6  and  C_17 
REMARK    5  A    between atoms: C_6  and  N_19 
REMARK    6  A    between atoms: C_7  and  C_29 
REMARK    7  A    between atoms: C_7  and  C_8 
REMARK    8  A    between atoms: C_7  and  N_12 
REMARK    9  A    between atoms: C_13  and  C_33 
REMARK   10  A    between atoms: C_13  and  N_31 
REMARK   11  A    between atoms: C_17  and  C_25 
REMARK       I    between atoms: N_20  and  C_22 
REMARK       I    between atoms: N_21  and  C_22 
REMARK   12  A    between atoms: N_23  and  C_24 
REMARK   13  A    between atoms: C_24  and  C_25 
REMARK   14  A    between atoms: C_29  and  C_30 
REMARK   15  A    between atoms: C_30  and  N_31 
ROOT
HETATM    1  C           1     -20.796  -9.711  -2.250  0.00  0.00     0.249 C 
HETATM    2  N           1     -21.797  -8.844  -1.905  0.00  0.00    -0.345 N 
HETATM    3  O           1     -19.687  -9.566  -1.795  0.00  0.00    -0.271 OA
HETATM    4  H           1     -22.727  -8.966  -2.287  0.00  0.00     0.163 HD
ENDROOT
BRANCH   2   5
HETATM    5  C           1     -21.527  -7.752  -0.992  0.00  0.00     0.187 C 
BRANCH   5   6
HETATM    6  C           1     -22.225  -6.492  -1.489  0.00  0.00     0.066 C 
BRANCH   6   7
HETATM    7  C           1     -22.280  -6.508  -3.011  0.00  0.00     0.273 C 
BRANCH   7   8
HETATM    8  N           1     -21.185  -5.739  -3.539  0.00  0.00     0.098 N 
HETATM    9  H           1     -20.305  -6.102  -3.171  0.00  0.00     0.317 HD
BRANCH   8  10
HETATM   10  C           1     -21.201  -5.881  -4.970  0.00  0.00     0.324 C 
BRANCH  10  11
HETATM   11  C           1     -20.280  -4.840  -5.594  0.00  0.00     0.085 C 
BRANCH  11  12
HETATM   12  C           1     -20.713  -4.570  -7.001  0.00  0.00    -0.056 A 
HETATM   13  C           1     -22.032  -4.199  -7.267  0.00  0.00     0.007 A 
HETATM   14  C           1     -22.434  -3.949  -8.579  0.00  0.00     0.001 A 
HETATM   15  C           1     -21.518  -4.068  -9.624  0.00  0.00     0.000 A 
HETATM   16  C           1     -20.201  -4.439  -9.358  0.00  0.00     0.001 A 
HETATM   17  C           1     -19.798  -4.689  -8.047  0.00  0.00     0.007 A 
ENDBRANCH  11  12
ENDBRANCH  10  11
BRANCH  10  18
HETATM   18  C           1     -20.723  -7.263  -5.342  0.00  0.00     0.207 C 
HETATM   19  O           1     -19.718  -7.749  -4.780  0.00  0.00    -0.646 OA
HETATM   20  O           1     -21.331  -7.922  -6.212  0.00  0.00    -0.646 OA
ENDBRANCH  10  18
ENDBRANCH   8  10
ENDBRANCH   7   8
ENDBRANCH   6   7
ENDBRANCH   5   6
BRANCH   5  21
HETATM   21  C           1     -22.044  -8.105   0.381  0.00  0.00     0.196 C 
HETATM   22  O           1     -23.268  -8.042   0.624  0.00  0.00    -0.646 OA
HETATM   23  O           1     -21.247  -8.460   1.277  0.00  0.00    -0.646 OA
ENDBRANCH   5  21
ENDBRANCH   2   5
BRANCH   1  24
HETATM   24  C           1     -21.077 -10.849  -3.201  0.00  0.00     0.274 C 
BRANCH  24  25
HETATM   25  C           1     -19.765 -11.499  -3.620  0.00  0.00     0.044 C 
BRANCH  25  26
HETATM   26  C           1     -19.510 -11.223  -5.097  0.00  0.00     0.023 C 
BRANCH  26  27
HETATM   27  C           1     -18.052 -10.831  -5.295  0.00  0.00     0.138 C 
BRANCH  27  28
HETATM   28  N           1     -17.625  -9.954  -4.194  0.00  0.00    -0.227 N 
HETATM   29  C           1     -16.450 -10.044  -3.733  0.00  0.00     0.665 C 
HETATM   30  N           1     -15.620 -10.912  -4.231  0.00  0.00    -0.235 N 
HETATM   31  N           1     -16.083  -9.289  -2.786  0.00  0.00    -0.235 N 
HETATM   32  H           1     -14.650 -10.987  -3.849  0.00  0.00     0.174 HD
HETATM   33  H           1     -15.923 -11.536  -5.013  0.00  0.00     0.174 HD
HETATM   34  H           1     -15.108  -9.364  -2.402  0.00  0.00     0.174 HD
HETATM   35  H           1     -16.752  -8.587  -2.383  0.00  0.00     0.174 HD
HETATM   36  H           1     -18.295  -9.252  -3.793  0.00  0.00     0.177 HD
ENDBRANCH  27  28
ENDBRANCH  26  27
ENDBRANCH  25  26
ENDBRANCH  24  25
BRANCH  24  37
HETATM   37  N           1     -21.783 -10.323  -4.415  0.00  0.00    -0.067 N 
HETATM   38  H           1     -21.635  -9.290  -4.484  0.00  0.00     0.275 HD
HETATM   39  H           1     -22.806 -10.523  -4.339  0.00  0.00     0.275 HD
HETATM   40  H           1     -21.400 -10.787  -5.270  0.00  0.00     0.275 HD
ENDBRANCH  24  37
ENDBRANCH   1  24
TORSDOF 15
ENDMDL
MODEL 7
REMARK VINA RESULT:      -7.0      1.987      3.551
REMARK  15 active torsions:
REMARK  status: ('A' for Active; 'I' for Inactive)
REMARK       I    between atoms: C_1  and  N_12 
REMARK    1  A    between atoms: C_1  and  C_6 
REMARK    2  A    between atoms: C_4  and  C_5 
REMARK    3  A    between atoms: C_5  and  C_13 
REMARK    4  A    between atoms: C_6  and  C_17 
REMARK    5  A    between atoms: C_6  and  N_19 
REMARK    6  A    between atoms: C_7  and  C_29 
REMARK    7  A    between atoms: C_7  and  C_8 
REMARK    8  A    between atoms: C_7  and  N_12 
REMARK    9  A    between atoms: C_13  and  C_33 
REMARK   10  A    between atoms: C_13  and  N_31 
REMARK   11  A    between atoms: C_17  and  C_25 
REMARK       I    between atoms: N_20  and  C_22 
REMARK       I    between atoms: N_21  and  C_22 
REMARK   12  A    between atoms: N_23  and  C_24 
REMARK   13  A    between atoms: C_24  and  C_25 
REMARK   14  A    between atoms: C_29  and  C_30 
REMARK   15  A    between atoms: C_30  and  N_31 
ROOT
HETATM    1  C           1     -21.373  -6.084  -5.464  0.00  0.00     0.249 C 
HETATM    2  N           1     -20.715  -7.013  -4.704  0.00  0.00    -0.345 N 
HETATM    3  O           1     -22.566  -5.938  -5.341  0.00  0.00    -0.271 OA
HETATM    4  H           1     -19.715  -7.135  -4.808  0.00  0.00     0.163 HD
ENDROOT
BRANCH   2   5
HETATM    5  C           1     -21.449  -7.822  -3.752  0.00  0.00     0.187 C 
BRANCH   5   6
HETATM    6  C           1     -20.813  -9.204  -3.664  0.00  0.00     0.066 C 
BRANCH   6   7
HETATM    7  C           1     -21.734 -10.229  -4.313  0.00  0.00     0.273 C 
BRANCH   7   8
HETATM    8  N           1     -22.673 -10.717  -3.339  0.00  0.00     0.098 N 
HETATM    9  H           1     -23.318 -11.370  -3.784  0.00  0.00     0.317 HD
BRANCH   8  10
HETATM   10  C           1     -21.926 -11.402  -2.318  0.00  0.00     0.324 C 
BRANCH  10  11
HETATM   11  C           1     -22.757 -11.475  -1.044  0.00  0.00     0.085 C 
BRANCH  11  12
HETATM   12  C           1     -22.457 -10.286  -0.184  0.00  0.00    -0.056 A 
HETATM   13  C           1     -23.401  -9.268  -0.047  0.00  0.00     0.007 A 
HETATM   14  C           1     -23.120  -8.160   0.753  0.00  0.00     0.001 A 
HETATM   15  C           1     -21.897  -8.071   1.417  0.00  0.00     0.000 A 
HETATM   16  C           1     -20.954  -9.089   1.279  0.00  0.00     0.001 A 
HETATM   17  C           1     -21.234 -10.196   0.480  0.00  0.00     0.007 A 
ENDBRANCH  11  12
ENDBRANCH  10  11
BRANCH  10  18
HETATM   18  C           1     -21.601 -12.799  -2.787  0.00  0.00     0.207 C 
HETATM   19  O           1     -20.419 -13.204  -2.777  0.00  0.00    -0.646 OA
HETATM   20  O           1     -22.515 -13.551  -3.188  0.00  0.00    -0.646 OA
ENDBRANCH  10  18
ENDBRANCH   8  10
ENDBRANCH   7   8
ENDBRANCH   6   7
ENDBRANCH   5   6
BRANCH   5  21
HETATM   21  C           1     -21.408  -7.162  -2.395  0.00  0.00     0.196 C 
HETATM   22  O           1     -22.304  -6.357  -2.065  0.00  0.00    -0.646 OA
HETATM   23  O           1     -20.476  -7.421  -1.602  0.00  0.00    -0.646 OA
ENDBRANCH   5  21
ENDBRANCH   2   5
BRANCH   1  24
HETATM   24  C           1     -20.609  -5.242  -6.456  0.00  0.00     0.274 C 
BRANCH  24  25
HETATM   25  C           1     -21.579  -4.353  -7.223  0.00  0.00     0.044 C 
BRANCH  25  26
HETATM   26  C           1     -21.023  -4.077  -8.615  0.00  0.00     0.023 C 
BRANCH  26  27
HETATM   27  C           1     -22.081  -4.409  -9.659  0.00  0.00     0.138 C 
BRANCH  27  28
HETATM   28  N           1     -23.384  -3.884  -9.222  0.00  0.00    -0.227 N 
HETATM   29  C           1     -24.388  -3.967  -9.988  0.00  0.00     0.665 C 
HETATM   30  N           1     -24.269  -4.515 -11.160  0.00  0.00    -0.235 N 
HETATM   31  N           1     -25.509  -3.516  -9.611  0.00  0.00    -0.235 N 
HETATM   32  H           1     -25.098  -4.583 -11.793  0.00  0.00     0.174 HD
HETATM   33  H           1     -23.343  -4.888 -11.471  0.00  0.00     0.174 HD
HETATM   34  H           1     -26.343  -3.583 -10.246  0.00  0.00     0.174 HD
HETATM   35  H           1     -25.606  -3.072  -8.664  0.00  0.00     0.174 HD
HETATM   36  H           1     -23.480  -3.442  -8.274  0.00  0.00     0.177 HD
ENDBRANCH  27  28
ENDBRANCH  26  27
ENDBRANCH  25  26
ENDBRANCH  24  25
BRANCH  24  37
HETATM   37  N           1     -19.884  -6.136  -7.418  0.00  0.00    -0.067 N 
HETATM   38  H           1     -19.561  -5.576  -8.239  0.00  0.00     0.275 HD
HETATM   39  H           1     -20.528  -6.892  -7.744  0.00  0.00     0.275 HD
HETATM   40  H           1     -19.059  -6.564  -6.941  0.00  0.00     0.275 HD
ENDBRANCH  24  37
ENDBRANCH   1  24
TORSDOF 15
ENDMDL
MODEL 8
REMARK VINA RESULT:      -6.8      1.540      3.575
REMARK  15 active torsions:
REMARK  status: ('A' for Active; 'I' for Inactive)
REMARK       I    between atoms: C_1  and  N_12 
REMARK    1  A    between atoms: C_1  and  C_6 
REMARK    2  A    between atoms: C_4  and  C_5 
REMARK    3  A    between atoms: C_5  and  C_13 
REMARK    4  A    between atoms: C_6  and  C_17 
REMARK    5  A    between atoms: C_6  and  N_19 
REMARK    6  A    between atoms: C_7  and  C_29 
REMARK    7  A    between atoms: C_7  and  C_8 
REMARK    8  A    between atoms: C_7  and  N_12 
REMARK    9  A    between atoms: C_13  and  C_33 
REMARK   10  A    between atoms: C_13  and  N_31 
REMARK   11  A    between atoms: C_17  and  C_25 
REMARK       I    between atoms: N_20  and  C_22 
REMARK       I    between atoms: N_21  and  C_22 
REMARK   12  A    between atoms: N_23  and  C_24 
REMARK   13  A    between atoms: C_24  and  C_25 
REMARK   14  A    between atoms: C_29  and  C_30 
REMARK   15  A    between atoms: C_30  and  N_31 
ROOT
HETATM    1  C           1     -21.223  -6.741  -4.976  0.00  0.00     0.249 C 
HETATM    2  N           1     -20.862  -6.614  -3.661  0.00  0.00    -0.345 N 
HETATM    3  O           1     -21.865  -7.699  -5.337  0.00  0.00    -0.271 OA
HETATM    4  H           1     -20.324  -5.812  -3.359  0.00  0.00     0.163 HD
ENDROOT
BRANCH   2   5
HETATM    5  C           1     -21.251  -7.628  -2.702  0.00  0.00     0.187 C 
BRANCH   5   6
HETATM    6  C           1     -20.004  -8.298  -2.139  0.00  0.00     0.066 C 
BRANCH   6   7
HETATM    7  C           1     -19.994  -9.769  -2.537  0.00  0.00     0.273 C 
BRANCH   7   8
HETATM    8  N           1     -20.567  -9.915  -3.848  0.00  0.00     0.098 N 
HETATM    9  H           1     -19.824  -9.898  -4.548  0.00  0.00     0.317 HD
BRANCH   8  10
HETATM   10  C           1     -21.238 -11.187  -3.892  0.00  0.00     0.324 C 
BRANCH  10  11
HETATM   11  C           1     -22.720 -10.988  -3.601  0.00  0.00     0.085 C 
BRANCH  11  12
HETATM   12  C           1     -23.039 -11.532  -2.244  0.00  0.00    -0.056 A 
HETATM   13  C           1     -23.424 -10.667  -1.218  0.00  0.00     0.007 A 
HETATM   14  C           1     -23.720 -11.175   0.047  0.00  0.00     0.001 A 
HETATM   15  C           1     -23.633 -12.546   0.286  0.00  0.00     0.000 A 
HETATM   16  C           1     -23.248 -13.410  -0.738  0.00  0.00     0.001 A 
HETATM   17  C           1     -22.952 -12.903  -2.003  0.00  0.00     0.007 A 
ENDBRANCH  11  12
ENDBRANCH  10  11
BRANCH  10  18
HETATM   18  C           1     -21.071 -11.794  -5.263  0.00  0.00     0.207 C 
HETATM   19  O           1     -20.914 -13.028  -5.386  0.00  0.00    -0.646 OA
HETATM   20  O           1     -21.089 -11.063  -6.277  0.00  0.00    -0.646 OA
ENDBRANCH  10  18
ENDBRANCH   8  10
ENDBRANCH   7   8
ENDBRANCH   6   7
ENDBRANCH   5   6
BRANCH   5  21
HETATM   21  C           1     -22.028  -6.986  -1.579  0.00  0.00     0.196 C 
HETATM   22  O           1     -22.670  -5.934  -1.785  0.00  0.00    -0.646 OA
HETATM   23  O           1     -22.028  -7.505  -0.441  0.00  0.00    -0.646 OA
ENDBRANCH   5  21
ENDBRANCH   2   5
BRANCH   1  24
HETATM   24  C           1     -20.818  -5.685  -5.975  0.00  0.00     0.274 C 
BRANCH  24  25
HETATM   25  C           1     -22.061  -4.993  -6.517  0.00  0.00     0.044 C 
BRANCH  25  26
HETATM   26  C           1     -21.648  -3.871  -7.460  0.00  0.00     0.023 C 
BRANCH  26  27
HETATM   27  C           1     -22.333  -4.061  -8.807  0.00  0.00     0.138 C 
BRANCH  27  28
HETATM   28  N           1     -23.772  -3.792  -8.668  0.00  0.00    -0.227 N 
HETATM   29  C           1     -24.518  -3.795  -9.691  0.00  0.00     0.665 C 
HETATM   30  N           1     -24.012  -4.035 -10.864  0.00  0.00    -0.235 N 
HETATM   31  N           1     -25.756  -3.563  -9.571  0.00  0.00    -0.235 N 
HETATM   32  H           1     -24.628  -4.037 -11.708  0.00  0.00     0.174 HD
HETATM   33  H           1     -22.989  -4.226 -10.963  0.00  0.00     0.174 HD
HETATM   34  H           1     -26.375  -3.565 -10.419  0.00  0.00     0.174 HD
HETATM   35  H           1     -26.166  -3.369  -8.623  0.00  0.00     0.174 HD
HETATM   36  H           1     -24.180  -3.598  -7.720  0.00  0.00     0.177 HD
ENDBRANCH  27  28
ENDBRANCH  26  27
ENDBRANCH  25  26
ENDBRANCH  24  25
BRANCH  24  37
HETATM   37  N           1     -20.071  -6.328  -7.106  0.00  0.00    -0.067 N 
HETATM   38  H           1     -19.072  -6.462  -6.832  0.00  0.00     0.275 HD
HETATM   39  H           1     -20.121  -5.715  -7.951  0.00  0.00     0.275 HD
HETATM   40  H           1     -20.500  -7.256  -7.324  0.00  0.00     0.275 HD
ENDBRANCH  24  37
ENDBRANCH   1  24
TORSDOF 15
ENDMDL
MODEL 9
REMARK VINA RESULT:      -6.7      3.078      5.316
REMARK  15 active torsions:
REMARK  status: ('A' for Active; 'I' for Inactive)
REMARK       I    between atoms: C_1  and  N_12 
REMARK    1  A    between atoms: C_1  and  C_6 
REMARK    2  A    between atoms: C_4  and  C_5 
REMARK    3  A    between atoms: C_5  and  C_13 
REMARK    4  A    between atoms: C_6  and  C_17 
REMARK    5  A    between atoms: C_6  and  N_19 
REMARK    6  A    between atoms: C_7  and  C_29 
REMARK    7  A    between atoms: C_7  and  C_8 
REMARK    8  A    between atoms: C_7  and  N_12 
REMARK    9  A    between atoms: C_13  and  C_33 
REMARK   10  A    between atoms: C_13  and  N_31 
REMARK   11  A    between atoms: C_17  and  C_25 
REMARK       I    between atoms: N_20  and  C_22 
REMARK       I    between atoms: N_21  and  C_22 
REMARK   12  A    between atoms: N_23  and  C_24 
REMARK   13  A    between atoms: C_24  and  C_25 
REMARK   14  A    between atoms: C_29  and  C_30 
REMARK   15  A    between atoms: C_30  and  N_31 
ROOT
HETATM    1  C           1     -21.434  -6.042  -5.354  0.00  0.00     0.249 C 
HETATM    2  N           1     -20.844  -6.893  -4.458  0.00  0.00    -0.345 N 
HETATM    3  O           1     -22.636  -5.927  -5.377  0.00  0.00    -0.271 OA
HETATM    4  H           1     -19.837  -6.989  -4.440  0.00  0.00     0.163 HD
ENDROOT
BRANCH   2   5
HETATM    5  C           1     -21.662  -7.656  -3.537  0.00  0.00     0.187 C 
BRANCH   5   6
HETATM    6  C           1     -21.088  -9.059  -3.393  0.00  0.00     0.066 C 
BRANCH   6   7
HETATM    7  C           1     -19.616  -9.050  -3.790  0.00  0.00     0.273 C 
BRANCH   7   8
HETATM    8  N           1     -18.801  -9.112  -2.607  0.00  0.00     0.098 N 
HETATM    9  H           1     -19.399  -9.187  -1.784  0.00  0.00     0.317 HD
BRANCH   8  10
HETATM   10  C           1     -17.975 -10.286  -2.707  0.00  0.00     0.324 C 
BRANCH  10  11
HETATM   11  C           1     -16.510  -9.873  -2.755  0.00  0.00     0.085 C 
BRANCH  11  12
HETATM   12  C           1     -15.811 -10.640  -3.834  0.00  0.00    -0.056 A 
HETATM   13  C           1     -16.044 -10.329  -5.174  0.00  0.00     0.007 A 
HETATM   14  C           1     -15.392 -11.045  -6.179  0.00  0.00     0.001 A 
HETATM   15  C           1     -14.507 -12.070  -5.844  0.00  0.00     0.000 A 
HETATM   16  C           1     -14.275 -12.380  -4.504  0.00  0.00     0.001 A 
HETATM   17  C           1     -14.925 -11.665  -3.500  0.00  0.00     0.007 A 
ENDBRANCH  11  12
ENDBRANCH  10  11
BRANCH  10  18
HETATM   18  C           1     -18.210 -11.168  -1.506  0.00  0.00     0.207 C 
HETATM   19  O           1     -17.239 -11.630  -0.869  0.00  0.00    -0.646 OA
HETATM   20  O           1     -19.377 -11.438  -1.147  0.00  0.00    -0.646 OA
ENDBRANCH  10  18
ENDBRANCH   8  10
ENDBRANCH   7   8
ENDBRANCH   6   7
ENDBRANCH   5   6
BRANCH   5  21
HETATM   21  C           1     -21.671  -6.975  -2.191  0.00  0.00     0.196 C 
HETATM   22  O           1     -21.101  -7.511  -1.216  0.00  0.00    -0.646 OA
HETATM   23  O           1     -22.249  -5.876  -2.049  0.00  0.00    -0.646 OA
ENDBRANCH   5  21
ENDBRANCH   2   5
BRANCH   1  24
HETATM   24  C           1     -20.582  -5.247  -6.314  0.00  0.00     0.274 C 
BRANCH  24  25
HETATM   25  C           1     -21.474  -4.357  -7.169  0.00  0.00     0.044 C 
BRANCH  25  26
HETATM   26  C           1     -20.748  -4.000  -8.460  0.00  0.00     0.023 C 
BRANCH  26  27
HETATM   27  C           1     -21.706  -4.139  -9.636  0.00  0.00     0.138 C 
BRANCH  27  28
HETATM   28  N           1     -23.059  -3.745  -9.217  0.00  0.00    -0.227 N 
HETATM   29  C           1     -24.054  -4.024  -9.947  0.00  0.00     0.665 C 
HETATM   30  N           1     -23.881  -4.660 -11.067  0.00  0.00    -0.235 N 
HETATM   31  N           1     -25.219  -3.685  -9.585  0.00  0.00    -0.235 N 
HETATM   32  H           1     -24.703  -4.891 -11.670  0.00  0.00     0.174 HD
HETATM   33  H           1     -22.919  -4.941 -11.366  0.00  0.00     0.174 HD
HETATM   34  H           1     -26.045  -3.917 -10.191  0.00  0.00     0.174 HD
HETATM   35  H           1     -25.360  -3.171  -8.680  0.00  0.00     0.174 HD
HETATM   36  H           1     -23.199  -3.232  -8.311  0.00  0.00     0.177 HD
ENDBRANCH  27  28
ENDBRANCH  26  27
ENDBRANCH  25  26
ENDBRANCH  24  25
BRANCH  24  37
HETATM   37  N           1     -19.818  -6.186  -7.199  0.00  0.00    -0.067 N 
HETATM   38  H           1     -18.826  -6.241  -6.874  0.00  0.00     0.275 HD
HETATM   39  H           1     -19.843  -5.836  -8.184  0.00  0.00     0.275 HD
HETATM   40  H           1     -20.252  -7.136  -7.156  0.00  0.00     0.275 HD
ENDBRANCH  24  37
ENDBRANCH   1  24
TORSDOF 15
ENDMDL
