MODEL 1
REMARK VINA RESULT:      -6.2      0.000      0.000
REMARK  7 active torsions:
REMARK  status: ('A' for Active; 'I' for Inactive)
REMARK    1  A    between atoms: C_5  and  C_7 
REMARK    2  A    between atoms: C_7  and  C_8 
REMARK    3  A    between atoms: C_8  and  C_9 
REMARK    4  A    between atoms: C_9  and  C_10 
REMARK    5  A    between atoms: C_9  and  N_13 
REMARK       I    between atoms: N_13  and  C_14 
REMARK    6  A    between atoms: C_14  and  C_16 
REMARK    7  A    between atoms: C_16  and  N_18 
ROOT
HETATM    1  H           1     -35.944  -2.237 -13.511  0.00  0.00     0.163 HD
HETATM    2  N           1     -35.453  -1.682 -12.823  0.00  0.00    -0.345 N 
HETATM    3  C           1     -34.437  -2.237 -12.093  0.00  0.00     0.248 C 
HETATM    4  O           1     -33.851  -1.573 -11.271  0.00  0.00    -0.271 OA
ENDROOT
BRANCH   2   5
HETATM    5  C           1     -35.828  -0.298 -12.608  0.00  0.00     0.186 C 
BRANCH   5   6
HETATM    6  C           1     -36.442   0.266 -13.883  0.00  0.00     0.046 C 
BRANCH   6   7
HETATM    7  C           1     -35.387   0.308 -14.980  0.00  0.00     0.116 C 
BRANCH   7   8
HETATM    8  C           1     -35.657  -0.790 -15.980  0.00  0.00     0.172 C 
HETATM    9  O           1     -35.134  -1.915 -15.830  0.00  0.00    -0.648 OA
HETATM   10  O           1     -36.404  -0.574 -16.959  0.00  0.00    -0.648 OA
ENDBRANCH   7   8
ENDBRANCH   6   7
ENDBRANCH   5   6
BRANCH   5  11
HETATM   11  C           1     -36.833  -0.216 -11.486  0.00  0.00     0.196 C 
HETATM   12  O           1     -36.556   0.417 -10.444  0.00  0.00    -0.646 OA
HETATM   13  O           1     -37.941  -0.782 -11.597  0.00  0.00    -0.646 OA
ENDBRANCH   5  11
ENDBRANCH   2   5
BRANCH   3  14
HETATM   14  C           1     -34.048  -3.677 -12.317  0.00  0.00     0.270 C 
HETATM   15  C           1     -32.703  -3.950 -11.655  0.00  0.00     0.050 C 
BRANCH  14  16
HETATM   16  N           1     -33.943  -3.945 -13.789  0.00  0.00    -0.067 N 
HETATM   17  H           1     -34.030  -3.044 -14.313  0.00  0.00     0.275 HD
HETATM   18  H           1     -34.710  -4.593 -14.080  0.00  0.00     0.275 HD
HETATM   19  H           1     -33.018  -4.382 -13.999  0.00  0.00     0.275 HD
ENDBRANCH  14  16
ENDBRANCH   3  14
TORSDOF 7
ENDMDL
MODEL 2
REMARK VINA RESULT:      -5.8      2.039      4.193
REMARK  7 active torsions:
REMARK  status: ('A' for Active; 'I' for Inactive)
REMARK    1  A    between atoms: C_5  and  C_7 
REMARK    2  A    between atoms: C_7  and  C_8 
REMARK    3  A    between atoms: C_8  and  C_9 
REMARK    4  A    between atoms: C_9  and  C_10 
REMARK    5  A    between atoms: C_9  and  N_13 
REMARK       I    between atoms: N_13  and  C_14 
REMARK    6  A    between atoms: C_14  and  C_16 
REMARK    7  A    between atoms: C_16  and  N_18 
ROOT
HETATM    1  H           1     -35.039   0.039 -12.484  0.00  0.00     0.163 HD
HETATM    2  N           1     -35.981  -0.330 -12.525  0.00  0.00    -0.345 N 
HETATM    3  C           1     -36.686  -0.277 -13.696  0.00  0.00     0.248 C 
HETATM    4  O           1     -37.809  -0.718 -13.746  0.00  0.00    -0.271 OA
ENDROOT
BRANCH   2   5
HETATM    5  C           1     -36.582  -0.915 -11.342  0.00  0.00     0.186 C 
BRANCH   5   6
HETATM    6  C           1     -35.582  -1.847 -10.672  0.00  0.00     0.046 C 
BRANCH   6   7
HETATM    7  C           1     -34.286  -1.863 -11.472  0.00  0.00     0.116 C 
BRANCH   7   8
HETATM    8  C           1     -34.255  -3.086 -12.356  0.00  0.00     0.172 C 
HETATM    9  O           1     -34.496  -2.981 -13.578  0.00  0.00    -0.648 OA
HETATM   10  O           1     -33.988  -4.204 -11.866  0.00  0.00    -0.648 OA
ENDBRANCH   7   8
ENDBRANCH   6   7
ENDBRANCH   5   6
BRANCH   5  11
HETATM   11  C           1     -36.971   0.181 -10.381  0.00  0.00     0.196 C 
HETATM   12  O           1     -38.074   0.757 -10.504  0.00  0.00    -0.646 OA
HETATM   13  O           1     -36.191   0.515  -9.464  0.00  0.00    -0.646 OA
ENDBRANCH   5  11
ENDBRANCH   2   5
BRANCH   3  14
HETATM   14  C           1     -36.060   0.332 -14.927  0.00  0.00     0.270 C 
HETATM   15  C           1     -34.908   1.240 -14.516  0.00  0.00     0.050 C 
BRANCH  14  16
HETATM   16  N           1     -37.089   1.134 -15.667  0.00  0.00    -0.067 N 
HETATM   17  H           1     -36.610   1.833 -16.280  0.00  0.00     0.275 HD
HETATM   18  H           1     -37.701   1.631 -14.983  0.00  0.00     0.275 HD
HETATM   19  H           1     -37.671   0.496 -16.257  0.00  0.00     0.275 HD
ENDBRANCH  14  16
ENDBRANCH   3  14
TORSDOF 7
ENDMDL
MODEL 3
REMARK VINA RESULT:      -5.6      2.396      5.135
REMARK  7 active torsions:
REMARK  status: ('A' for Active; 'I' for Inactive)
REMARK    1  A    between atoms: C_5  and  C_7 
REMARK    2  A    between atoms: C_7  and  C_8 
REMARK    3  A    between atoms: C_8  and  C_9 
REMARK    4  A    between atoms: C_9  and  C_10 
REMARK    5  A    between atoms: C_9  and  N_13 
REMARK       I    between atoms: N_13  and  C_14 
REMARK    6  A    between atoms: C_14  and  C_16 
REMARK    7  A    between atoms: C_16  and  N_18 
ROOT
HETATM    1  H           1     -33.912  -1.666 -13.733  0.00  0.00     0.163 HD
HETATM    2  N           1     -34.850  -1.642 -13.354  0.00  0.00    -0.345 N 
HETATM    3  C           1     -35.822  -0.910 -13.979  0.00  0.00     0.248 C 
HETATM    4  O           1     -36.942  -0.882 -13.527  0.00  0.00    -0.271 OA
ENDROOT
BRANCH   2   5
HETATM    5  C           1     -35.162  -2.383 -12.147  0.00  0.00     0.186 C 
BRANCH   5   6
HETATM    6  C           1     -34.484  -3.746 -12.198  0.00  0.00     0.046 C 
BRANCH   6   7
HETATM    7  C           1     -35.158  -4.687 -11.209  0.00  0.00     0.116 C 
BRANCH   7   8
HETATM    8  C           1     -34.200  -5.789 -10.829  0.00  0.00     0.172 C 
HETATM    9  O           1     -33.028  -5.777 -11.265  0.00  0.00    -0.648 OA
HETATM   10  O           1     -34.577  -6.714 -10.078  0.00  0.00    -0.648 OA
ENDBRANCH   7   8
ENDBRANCH   6   7
ENDBRANCH   5   6
BRANCH   5  11
HETATM   11  C           1     -34.667  -1.618 -10.945  0.00  0.00     0.196 C 
HETATM   12  O           1     -33.450  -1.622 -10.660  0.00  0.00    -0.646 OA
HETATM   13  O           1     -35.473  -0.982 -10.233  0.00  0.00    -0.646 OA
ENDBRANCH   5  11
ENDBRANCH   2   5
BRANCH   3  14
HETATM   14  C           1     -35.496  -0.139 -15.235  0.00  0.00     0.270 C 
HETATM   15  C           1     -35.168   1.305 -14.875  0.00  0.00     0.050 C 
BRANCH  14  16
HETATM   16  N           1     -36.677  -0.167 -16.159  0.00  0.00    -0.067 N 
HETATM   17  H           1     -37.043   0.805 -16.285  0.00  0.00     0.275 HD
HETATM   18  H           1     -37.425  -0.771 -15.751  0.00  0.00     0.275 HD
HETATM   19  H           1     -36.385  -0.551 -17.087  0.00  0.00     0.275 HD
ENDBRANCH  14  16
ENDBRANCH   3  14
TORSDOF 7
ENDMDL
MODEL 4
REMARK VINA RESULT:      -5.5     12.807     15.415
REMARK  7 active torsions:
REMARK  status: ('A' for Active; 'I' for Inactive)
REMARK    1  A    between atoms: C_5  and  C_7 
REMARK    2  A    between atoms: C_7  and  C_8 
REMARK    3  A    between atoms: C_8  and  C_9 
REMARK    4  A    between atoms: C_9  and  C_10 
REMARK    5  A    between atoms: C_9  and  N_13 
REMARK       I    between atoms: N_13  and  C_14 
REMARK    6  A    between atoms: C_14  and  C_16 
REMARK    7  A    between atoms: C_16  and  N_18 
ROOT
HETATM    1  H           1     -21.377  -4.256  -6.012  0.00  0.00     0.163 HD
HETATM    2  N           1     -21.373  -5.086  -6.590  0.00  0.00    -0.345 N 
HETATM    3  C           1     -21.179  -6.315  -6.020  0.00  0.00     0.248 C 
HETATM    4  O           1     -21.175  -7.307  -6.710  0.00  0.00    -0.271 OA
ENDROOT
BRANCH   2   5
HETATM    5  C           1     -21.571  -4.974  -8.022  0.00  0.00     0.186 C 
BRANCH   5   6
HETATM    6  C           1     -22.675  -3.962  -8.303  0.00  0.00     0.046 C 
BRANCH   6   7
HETATM    7  C           1     -23.653  -4.545  -9.315  0.00  0.00     0.116 C 
BRANCH   7   8
HETATM    8  C           1     -23.867  -3.556 -10.435  0.00  0.00     0.172 C 
HETATM    9  O           1     -25.025  -3.196 -10.738  0.00  0.00    -0.648 OA
HETATM   10  O           1     -22.887  -3.098 -11.060  0.00  0.00    -0.648 OA
ENDBRANCH   7   8
ENDBRANCH   6   7
ENDBRANCH   5   6
BRANCH   5  11
HETATM   11  C           1     -20.290  -4.516  -8.673  0.00  0.00     0.196 C 
HETATM   12  O           1     -20.126  -4.667  -9.903  0.00  0.00    -0.646 OA
HETATM   13  O           1     -19.392  -3.987  -7.984  0.00  0.00    -0.646 OA
ENDBRANCH   5  11
ENDBRANCH   2   5
BRANCH   3  14
HETATM   14  C           1     -20.973  -6.432  -4.530  0.00  0.00     0.270 C 
HETATM   15  C           1     -20.499  -7.839  -4.191  0.00  0.00     0.050 C 
BRANCH  14  16
HETATM   16  N           1     -22.267  -6.157  -3.823  0.00  0.00    -0.067 N 
HETATM   17  H           1     -22.491  -5.138  -3.892  0.00  0.00     0.275 HD
HETATM   18  H           1     -22.178  -6.426  -2.817  0.00  0.00     0.275 HD
HETATM   19  H           1     -23.032  -6.713  -4.267  0.00  0.00     0.275 HD
ENDBRANCH  14  16
ENDBRANCH   3  14
TORSDOF 7
ENDMDL
MODEL 5
REMARK VINA RESULT:      -5.2     12.166     14.418
REMARK  7 active torsions:
REMARK  status: ('A' for Active; 'I' for Inactive)
REMARK    1  A    between atoms: C_5  and  C_7 
REMARK    2  A    between atoms: C_7  and  C_8 
REMARK    3  A    between atoms: C_8  and  C_9 
REMARK    4  A    between atoms: C_9  and  C_10 
REMARK    5  A    between atoms: C_9  and  N_13 
REMARK       I    between atoms: N_13  and  C_14 
REMARK    6  A    between atoms: C_14  and  C_16 
REMARK    7  A    between atoms: C_16  and  N_18 
ROOT
HETATM    1  H           1     -22.679  -5.968  -8.771  0.00  0.00     0.163 HD
HETATM    2  N           1     -22.508  -4.971  -8.745  0.00  0.00    -0.345 N 
HETATM    3  C           1     -21.837  -4.419  -7.688  0.00  0.00     0.248 C 
HETATM    4  O           1     -21.632  -3.229  -7.658  0.00  0.00    -0.271 OA
ENDROOT
BRANCH   2   5
HETATM    5  C           1     -22.975  -4.128  -9.828  0.00  0.00     0.186 C 
BRANCH   5   6
HETATM    6  C           1     -22.737  -4.831 -11.158  0.00  0.00     0.046 C 
BRANCH   6   7
HETATM    7  C           1     -21.736  -4.034 -11.984  0.00  0.00     0.116 C 
BRANCH   7   8
HETATM    8  C           1     -20.488  -3.795 -11.169  0.00  0.00     0.172 C 
HETATM    9  O           1     -19.882  -4.760 -10.656  0.00  0.00    -0.648 OA
HETATM   10  O           1     -20.062  -2.632 -11.007  0.00  0.00    -0.648 OA
ENDBRANCH   7   8
ENDBRANCH   6   7
ENDBRANCH   5   6
BRANCH   5  11
HETATM   11  C           1     -24.449  -3.859  -9.657  0.00  0.00     0.196 C 
HETATM   12  O           1     -25.260  -4.811  -9.644  0.00  0.00    -0.646 OA
HETATM   13  O           1     -24.861  -2.687  -9.528  0.00  0.00    -0.646 OA
ENDBRANCH   5  11
ENDBRANCH   2   5
BRANCH   3  14
HETATM   14  C           1     -21.351  -5.297  -6.561  0.00  0.00     0.270 C 
HETATM   15  C           1     -20.290  -4.555  -5.759  0.00  0.00     0.050 C 
BRANCH  14  16
HETATM   16  N           1     -20.761  -6.555  -7.126  0.00  0.00    -0.067 N 
HETATM   17  H           1     -20.221  -6.328  -7.992  0.00  0.00     0.275 HD
HETATM   18  H           1     -21.528  -7.225  -7.360  0.00  0.00     0.275 HD
HETATM   19  H           1     -20.122  -6.989  -6.421  0.00  0.00     0.275 HD
ENDBRANCH  14  16
ENDBRANCH   3  14
TORSDOF 7
ENDMDL
MODEL 6
REMARK VINA RESULT:      -5.1     25.706     26.799
REMARK  7 active torsions:
REMARK  status: ('A' for Active; 'I' for Inactive)
REMARK    1  A    between atoms: C_5  and  C_7 
REMARK    2  A    between atoms: C_7  and  C_8 
REMARK    3  A    between atoms: C_8  and  C_9 
REMARK    4  A    between atoms: C_9  and  C_10 
REMARK    5  A    between atoms: C_9  and  N_13 
REMARK       I    between atoms: N_13  and  C_14 
REMARK    6  A    between atoms: C_14  and  C_16 
REMARK    7  A    between atoms: C_16  and  N_18 
ROOT
HETATM    1  H           1     -11.860   6.376 -21.667  0.00  0.00     0.163 HD
HETATM    2  N           1     -11.432   5.477 -21.485  0.00  0.00    -0.345 N 
HETATM    3  C           1     -11.970   4.341 -22.028  0.00  0.00     0.248 C 
HETATM    4  O           1     -11.459   3.268 -21.811  0.00  0.00    -0.271 OA
ENDROOT
BRANCH   2   5
HETATM    5  C           1     -10.252   5.392 -20.648  0.00  0.00     0.186 C 
BRANCH   5   6
HETATM    6  C           1      -9.331   6.568 -20.949  0.00  0.00     0.046 C 
BRANCH   6   7
HETATM    7  C           1     -10.167   7.803 -21.257  0.00  0.00     0.116 C 
BRANCH   7   8
HETATM    8  C           1      -9.719   8.946 -20.378  0.00  0.00     0.172 C 
HETATM    9  O           1      -9.056   9.887 -20.865  0.00  0.00    -0.648 OA
HETATM   10  O           1     -10.012   8.950 -19.163  0.00  0.00    -0.648 OA
ENDBRANCH   7   8
ENDBRANCH   6   7
ENDBRANCH   5   6
BRANCH   5  11
HETATM   11  C           1     -10.660   5.431 -19.196  0.00  0.00     0.196 C 
HETATM   12  O           1     -11.842   5.184 -18.873  0.00  0.00    -0.646 OA
HETATM   13  O           1      -9.818   5.711 -18.317  0.00  0.00    -0.646 OA
ENDBRANCH   5  11
ENDBRANCH   2   5
BRANCH   3  14
HETATM   14  C           1     -13.199   4.430 -22.899  0.00  0.00     0.270 C 
HETATM   15  C           1     -14.092   5.560 -22.405  0.00  0.00     0.050 C 
BRANCH  14  16
HETATM   16  N           1     -13.951   3.134 -22.834  0.00  0.00    -0.067 N 
HETATM   17  H           1     -13.550   2.464 -23.529  0.00  0.00     0.275 HD
HETATM   18  H           1     -14.958   3.305 -23.055  0.00  0.00     0.275 HD
HETATM   19  H           1     -13.869   2.730 -21.874  0.00  0.00     0.275 HD
ENDBRANCH  14  16
ENDBRANCH   3  14
TORSDOF 7
ENDMDL
MODEL 7
REMARK VINA RESULT:      -5.1      2.388      5.183
REMARK  7 active torsions:
REMARK  status: ('A' for Active; 'I' for Inactive)
REMARK    1  A    between atoms: C_5  and  C_7 
REMARK    2  A    between atoms: C_7  and  C_8 
REMARK    3  A    between atoms: C_8  and  C_9 
REMARK    4  A    between atoms: C_9  and  C_10 
REMARK    5  A    between atoms: C_9  and  N_13 
REMARK       I    between atoms: N_13  and  C_14 
REMARK    6  A    between atoms: C_14  and  C_16 
REMARK    7  A    between atoms: C_16  and  N_18 
ROOT
HETATM    1  H           1     -36.765  -1.412 -13.406  0.00  0.00     0.163 HD
HETATM    2  N           1     -36.106  -0.736 -13.042  0.00  0.00    -0.345 N 
HETATM    3  C           1     -35.471   0.128 -13.892  0.00  0.00     0.248 C 
HETATM    4  O           1     -34.685   0.935 -13.456  0.00  0.00    -0.271 OA
ENDROOT
BRANCH   2   5
HETATM    5  C           1     -35.834  -0.685 -11.619  0.00  0.00     0.186 C 
BRANCH   5   6
HETATM    6  C           1     -37.144  -0.780 -10.847  0.00  0.00     0.046 C 
BRANCH   6   7
HETATM    7  C           1     -37.308   0.453  -9.968  0.00  0.00     0.116 C 
BRANCH   7   8
HETATM    8  C           1     -36.921   0.114  -8.549  0.00  0.00     0.172 C 
HETATM    9  O           1     -35.745   0.287  -8.163  0.00  0.00    -0.648 OA
HETATM   10  O           1     -37.777  -0.339  -7.760  0.00  0.00    -0.648 OA
ENDBRANCH   7   8
ENDBRANCH   6   7
ENDBRANCH   5   6
BRANCH   5  11
HETATM   11  C           1     -34.939  -1.837 -11.235  0.00  0.00     0.196 C 
HETATM   12  O           1     -35.303  -3.012 -11.460  0.00  0.00    -0.646 OA
HETATM   13  O           1     -33.835  -1.619 -10.693  0.00  0.00    -0.646 OA
ENDBRANCH   5  11
ENDBRANCH   2   5
BRANCH   3  14
HETATM   14  C           1     -35.754   0.074 -15.373  0.00  0.00     0.270 C 
HETATM   15  C           1     -37.257  -0.030 -15.600  0.00  0.00     0.050 C 
BRANCH  14  16
HETATM   16  N           1     -35.075  -1.122 -15.969  0.00  0.00    -0.067 N 
HETATM   17  H           1     -35.201  -1.945 -15.336  0.00  0.00     0.275 HD
HETATM   18  H           1     -34.055  -0.924 -16.082  0.00  0.00     0.275 HD
HETATM   19  H           1     -35.495  -1.334 -16.903  0.00  0.00     0.275 HD
ENDBRANCH  14  16
ENDBRANCH   3  14
TORSDOF 7
ENDMDL
MODEL 8
REMARK VINA RESULT:      -5.0     15.845     17.954
REMARK  7 active torsions:
REMARK  status: ('A' for Active; 'I' for Inactive)
REMARK    1  A    between atoms: C_5  and  C_7 
REMARK    2  A    between atoms: C_7  and  C_8 
REMARK    3  A    between atoms: C_8  and  C_9 
REMARK    4  A    between atoms: C_9  and  C_10 
REMARK    5  A    between atoms: C_9  and  N_13 
REMARK       I    between atoms: N_13  and  C_14 
REMARK    6  A    between atoms: C_14  and  C_16 
REMARK    7  A    between atoms: C_16  and  N_18 
ROOT
HETATM    1  H           1     -21.548  -7.233  -7.032  0.00  0.00     0.163 HD
HETATM    2  N           1     -21.144  -6.535  -6.420  0.00  0.00    -0.345 N 
HETATM    3  C           1     -21.002  -5.245  -6.854  0.00  0.00     0.248 C 
HETATM    4  O           1     -20.520  -4.412  -6.124  0.00  0.00    -0.271 OA
ENDROOT
BRANCH   2   5
HETATM    5  C           1     -20.716  -6.902  -5.085  0.00  0.00     0.186 C 
BRANCH   5   6
HETATM    6  C           1     -21.896  -6.800  -4.127  0.00  0.00     0.046 C 
BRANCH   6   7
HETATM    7  C           1     -21.452  -6.111  -2.844  0.00  0.00     0.116 C 
BRANCH   7   8
HETATM    8  C           1     -21.749  -7.003  -1.664  0.00  0.00     0.172 C 
HETATM    9  O           1     -21.030  -8.001  -1.437  0.00  0.00    -0.648 OA
HETATM   10  O           1     -22.713  -6.745  -0.913  0.00  0.00    -0.648 OA
ENDBRANCH   7   8
ENDBRANCH   6   7
ENDBRANCH   5   6
BRANCH   5  11
HETATM   11  C           1     -20.196  -8.319  -5.094  0.00  0.00     0.196 C 
HETATM   12  O           1     -19.226  -8.633  -4.371  0.00  0.00    -0.646 OA
HETATM   13  O           1     -20.734  -9.177  -5.825  0.00  0.00    -0.646 OA
ENDBRANCH   5  11
ENDBRANCH   2   5
BRANCH   3  14
HETATM   14  C           1     -21.448  -4.863  -8.244  0.00  0.00     0.270 C 
HETATM   15  C           1     -20.239  -4.436  -9.067  0.00  0.00     0.050 C 
BRANCH  14  16
HETATM   16  N           1     -22.422  -3.726  -8.162  0.00  0.00    -0.067 N 
HETATM   17  H           1     -23.218  -3.994  -7.539  0.00  0.00     0.275 HD
HETATM   18  H           1     -22.786  -3.508  -9.117  0.00  0.00     0.275 HD
HETATM   19  H           1     -21.943  -2.883  -7.771  0.00  0.00     0.275 HD
ENDBRANCH  14  16
ENDBRANCH   3  14
TORSDOF 7
ENDMDL
MODEL 9
REMARK VINA RESULT:      -5.0     12.774     15.779
REMARK  7 active torsions:
REMARK  status: ('A' for Active; 'I' for Inactive)
REMARK    1  A    between atoms: C_5  and  C_7 
REMARK    2  A    between atoms: C_7  and  C_8 
REMARK    3  A    between atoms: C_8  and  C_9 
REMARK    4  A    between atoms: C_9  and  C_10 
REMARK    5  A    between atoms: C_9  and  N_13 
REMARK       I    between atoms: N_13  and  C_14 
REMARK    6  A    between atoms: C_14  and  C_16 
REMARK    7  A    between atoms: C_16  and  N_18 
ROOT
HETATM    1  H           1     -22.242  -5.897  -8.207  0.00  0.00     0.163 HD
HETATM    2  N           1     -22.110  -4.897  -8.285  0.00  0.00    -0.345 N 
HETATM    3  C           1     -22.942  -4.156  -9.079  0.00  0.00     0.248 C 
HETATM    4  O           1     -22.784  -2.962  -9.171  0.00  0.00    -0.271 OA
ENDROOT
BRANCH   2   5
HETATM    5  C           1     -21.036  -4.250  -7.557  0.00  0.00     0.186 C 
BRANCH   5   6
HETATM    6  C           1     -20.932  -4.855  -6.162  0.00  0.00     0.046 C 
BRANCH   6   7
HETATM    7  C           1     -21.146  -6.360  -6.243  0.00  0.00     0.116 C 
BRANCH   7   8
HETATM    8  C           1     -22.091  -6.794  -5.149  0.00  0.00     0.172 C 
HETATM    9  O           1     -21.821  -7.795  -4.451  0.00  0.00    -0.648 OA
HETATM   10  O           1     -23.142  -6.152  -4.941  0.00  0.00    -0.648 OA
ENDBRANCH   7   8
ENDBRANCH   6   7
ENDBRANCH   5   6
BRANCH   5  11
HETATM   11  C           1     -19.735  -4.453  -8.292  0.00  0.00     0.196 C 
HETATM   12  O           1     -19.744  -4.792  -9.495  0.00  0.00    -0.646 OA
HETATM   13  O           1     -18.648  -4.283  -7.699  0.00  0.00    -0.646 OA
ENDBRANCH   5  11
ENDBRANCH   2   5
BRANCH   3  14
HETATM   14  C           1     -24.059  -4.830  -9.837  0.00  0.00     0.270 C 
HETATM   15  C           1     -23.670  -4.963 -11.304  0.00  0.00     0.050 C 
BRANCH  14  16
HETATM   16  N           1     -25.308  -4.007  -9.724  0.00  0.00    -0.067 N 
HETATM   17  H           1     -25.533  -3.852  -8.715  0.00  0.00     0.275 HD
HETATM   18  H           1     -26.099  -4.510 -10.184  0.00  0.00     0.275 HD
HETATM   19  H           1     -25.161  -3.084 -10.193  0.00  0.00     0.275 HD
ENDBRANCH  14  16
ENDBRANCH   3  14
TORSDOF 7
ENDMDL
