MODEL 1
REMARK VINA RESULT:      -7.4      0.000      0.000
REMARK  10 active torsions:
REMARK  status: ('A' for Active; 'I' for Inactive)
REMARK    1  A    between atoms: C_3  and  C_29 
REMARK    2  A    between atoms: C_3  and  C_5 
REMARK    3  A    between atoms: C_5  and  C_6 
REMARK    4  A    between atoms: C_5  and  N_15 
REMARK    5  A    between atoms: C_11  and  C_12 
REMARK    6  A    between atoms: C_11  and  O_23 
REMARK    7  A    between atoms: C_12  and  C_14 
REMARK    8  A    between atoms: C_12  and  N_20 
REMARK       I    between atoms: C_14  and  N_15 
REMARK       I    between atoms: N_21  and  C_26 
REMARK    9  A    between atoms: N_21  and  C_22 
REMARK   10  A    between atoms: C_22  and  C_29 
REMARK       I    between atoms: N_25  and  C_26 
ROOT
HETATM    1  C           1     -34.937  -2.423 -12.122  0.00  0.00     0.185 C 
ENDROOT
BRANCH   1   2
HETATM    2  C           1     -34.004  -3.590 -12.422  0.00  0.00     0.038 C 
BRANCH   2   3
HETATM    3  C           1     -34.737  -4.903 -12.177  0.00  0.00     0.023 C 
BRANCH   3   4
HETATM    4  C           1     -34.408  -5.416 -10.782  0.00  0.00     0.138 C 
BRANCH   4   5
HETATM    5  N           1     -33.749  -6.726 -10.884  0.00  0.00    -0.227 N 
HETATM    6  H           1     -32.913  -6.846 -11.507  0.00  0.00     0.177 HD
HETATM    7  C           1     -34.191  -7.710 -10.220  0.00  0.00     0.665 C 
HETATM    8  N           1     -35.200  -7.565  -9.469  0.00  0.00    -0.235 N 
HETATM    9  N           1     -33.609  -8.869 -10.310  0.00  0.00    -0.235 N 
HETATM   10  H           1     -35.670  -6.629  -9.396  0.00  0.00     0.174 HD
HETATM   11  H           1     -35.566  -8.380  -8.918  0.00  0.00     0.174 HD
HETATM   12  H           1     -33.974  -9.680  -9.762  0.00  0.00     0.174 HD
HETATM   13  H           1     -32.777  -8.988 -10.930  0.00  0.00     0.174 HD
ENDBRANCH   4   5
ENDBRANCH   3   4
ENDBRANCH   2   3
ENDBRANCH   1   2
BRANCH   1  14
HETATM   14  C           1     -34.538  -1.785 -10.813  0.00  0.00     0.196 C 
HETATM   15  O           1     -35.402  -1.224 -10.105  0.00  0.00    -0.646 OA
HETATM   16  O           1     -33.347  -1.818 -10.438  0.00  0.00    -0.646 OA
ENDBRANCH   1  14
BRANCH   1  17
HETATM   17  N           1     -34.842  -1.443 -13.186  0.00  0.00    -0.345 N 
HETATM   18  C           1     -35.955  -0.749 -13.577  0.00  0.00     0.251 C 
HETATM   19  O           1     -37.015  -0.953 -13.037  0.00  0.00    -0.271 OA
HETATM   20  H           1     -33.953  -1.273 -13.638  0.00  0.00     0.163 HD
BRANCH  18  21
HETATM   21  C           1     -35.856   0.272 -14.685  0.00  0.00     0.302 C 
BRANCH  21  22
HETATM   22  C           1     -36.472  -0.298 -15.956  0.00  0.00     0.153 C 
HETATM   23  C           1     -35.522  -1.321 -16.564  0.00  0.00     0.042 C 
BRANCH  22  24
HETATM   24  O           1     -37.691  -0.918 -15.650  0.00  0.00    -0.393 OA
HETATM   25  H           1     -38.283  -0.238 -15.374  0.00  0.00     0.210 HD
ENDBRANCH  22  24
ENDBRANCH  21  22
BRANCH  21  26
HETATM   26  N           1     -34.415   0.600 -14.933  0.00  0.00    -0.064 N 
HETATM   27  H           1     -33.867  -0.284 -15.028  0.00  0.00     0.275 HD
HETATM   28  H           1     -34.331   1.158 -15.813  0.00  0.00     0.275 HD
HETATM   29  H           1     -34.041   1.157 -14.131  0.00  0.00     0.275 HD
ENDBRANCH  21  26
ENDBRANCH  18  21
ENDBRANCH   1  17
TORSDOF 10
ENDMDL
MODEL 2
REMARK VINA RESULT:      -6.8      2.329      6.338
REMARK  10 active torsions:
REMARK  status: ('A' for Active; 'I' for Inactive)
REMARK    1  A    between atoms: C_3  and  C_29 
REMARK    2  A    between atoms: C_3  and  C_5 
REMARK    3  A    between atoms: C_5  and  C_6 
REMARK    4  A    between atoms: C_5  and  N_15 
REMARK    5  A    between atoms: C_11  and  C_12 
REMARK    6  A    between atoms: C_11  and  O_23 
REMARK    7  A    between atoms: C_12  and  C_14 
REMARK    8  A    between atoms: C_12  and  N_20 
REMARK       I    between atoms: C_14  and  N_15 
REMARK       I    between atoms: N_21  and  C_26 
REMARK    9  A    between atoms: N_21  and  C_22 
REMARK   10  A    between atoms: C_22  and  C_29 
REMARK       I    between atoms: N_25  and  C_26 
ROOT
HETATM    1  C           1     -35.393  -0.991 -11.286  0.00  0.00     0.185 C 
ENDROOT
BRANCH   1   2
HETATM    2  C           1     -35.040  -0.197 -12.538  0.00  0.00     0.038 C 
BRANCH   2   3
HETATM    3  C           1     -36.279  -0.049 -13.411  0.00  0.00     0.023 C 
BRANCH   3   4
HETATM    4  C           1     -35.857   0.210 -14.851  0.00  0.00     0.138 C 
BRANCH   4   5
HETATM    5  N           1     -35.091  -0.940 -15.352  0.00  0.00    -0.227 N 
HETATM    6  H           1     -34.347  -1.376 -14.754  0.00  0.00     0.177 HD
HETATM    7  C           1     -35.328  -1.404 -16.506  0.00  0.00     0.665 C 
HETATM    8  N           1     -36.226  -0.879 -17.228  0.00  0.00    -0.235 N 
HETATM    9  N           1     -34.651  -2.421 -16.950  0.00  0.00    -0.235 N 
HETATM   10  H           1     -36.773  -0.057 -16.870  0.00  0.00     0.174 HD
HETATM   11  H           1     -36.422  -1.264 -18.184  0.00  0.00     0.174 HD
HETATM   12  H           1     -34.847  -2.804 -17.902  0.00  0.00     0.174 HD
HETATM   13  H           1     -33.910  -2.855 -16.354  0.00  0.00     0.174 HD
ENDBRANCH   4   5
ENDBRANCH   3   4
ENDBRANCH   2   3
ENDBRANCH   1   2
BRANCH   1  14
HETATM   14  C           1     -36.667  -0.446 -10.688  0.00  0.00     0.196 C 
HETATM   15  O           1     -37.732  -1.091 -10.796  0.00  0.00    -0.646 OA
HETATM   16  O           1     -36.657   0.647 -10.085  0.00  0.00    -0.646 OA
ENDBRANCH   1  14
BRANCH   1  17
HETATM   17  N           1     -35.582  -2.386 -11.636  0.00  0.00    -0.345 N 
HETATM   18  C           1     -34.718  -3.334 -11.158  0.00  0.00     0.251 C 
HETATM   19  O           1     -33.799  -3.009 -10.445  0.00  0.00    -0.271 OA
HETATM   20  H           1     -36.352  -2.657 -12.234  0.00  0.00     0.163 HD
BRANCH  18  21
HETATM   21  C           1     -34.915  -4.786 -11.523  0.00  0.00     0.302 C 
BRANCH  21  22
HETATM   22  C           1     -33.988  -5.650 -10.679  0.00  0.00     0.153 C 
HETATM   23  C           1     -34.717  -6.922 -10.266  0.00  0.00     0.042 C 
BRANCH  22  24
HETATM   24  O           1     -32.850  -5.986 -11.425  0.00  0.00    -0.393 OA
HETATM   25  H           1     -32.975  -6.867 -11.735  0.00  0.00     0.210 HD
ENDBRANCH  22  24
ENDBRANCH  21  22
BRANCH  21  26
HETATM   26  N           1     -34.597  -4.983 -12.974  0.00  0.00    -0.064 N 
HETATM   27  H           1     -34.139  -5.913 -13.107  0.00  0.00     0.275 HD
HETATM   28  H           1     -35.479  -4.945 -13.533  0.00  0.00     0.275 HD
HETATM   29  H           1     -33.949  -4.228 -13.295  0.00  0.00     0.275 HD
ENDBRANCH  21  26
ENDBRANCH  18  21
ENDBRANCH   1  17
TORSDOF 10
ENDMDL
MODEL 3
REMARK VINA RESULT:      -6.2     13.635     16.449
REMARK  10 active torsions:
REMARK  status: ('A' for Active; 'I' for Inactive)
REMARK    1  A    between atoms: C_3  and  C_29 
REMARK    2  A    between atoms: C_3  and  C_5 
REMARK    3  A    between atoms: C_5  and  C_6 
REMARK    4  A    between atoms: C_5  and  N_15 
REMARK    5  A    between atoms: C_11  and  C_12 
REMARK    6  A    between atoms: C_11  and  O_23 
REMARK    7  A    between atoms: C_12  and  C_14 
REMARK    8  A    between atoms: C_12  and  N_20 
REMARK       I    between atoms: C_14  and  N_15 
REMARK       I    between atoms: N_21  and  C_26 
REMARK    9  A    between atoms: N_21  and  C_22 
REMARK   10  A    between atoms: C_22  and  C_29 
REMARK       I    between atoms: N_25  and  C_26 
ROOT
HETATM    1  C           1     -20.854  -5.350  -6.301  0.00  0.00     0.185 C 
ENDROOT
BRANCH   1   2
HETATM    2  C           1     -20.531  -3.934  -6.761  0.00  0.00     0.038 C 
BRANCH   2   3
HETATM    3  C           1     -21.737  -3.346  -7.483  0.00  0.00     0.023 C 
BRANCH   3   4
HETATM    4  C           1     -22.743  -4.451  -7.773  0.00  0.00     0.138 C 
BRANCH   4   5
HETATM    5  N           1     -23.997  -3.858  -8.259  0.00  0.00    -0.227 N 
HETATM    6  H           1     -24.568  -3.246  -7.626  0.00  0.00     0.177 HD
HETATM    7  C           1     -24.388  -4.085  -9.442  0.00  0.00     0.665 C 
HETATM    8  N           1     -23.699  -4.823 -10.206  0.00  0.00    -0.235 N 
HETATM    9  N           1     -25.497  -3.560  -9.872  0.00  0.00    -0.235 N 
HETATM   10  H           1     -22.803  -5.247  -9.858  0.00  0.00     0.174 HD
HETATM   11  H           1     -24.023  -5.011 -11.186  0.00  0.00     0.174 HD
HETATM   12  H           1     -25.819  -3.748 -10.848  0.00  0.00     0.174 HD
HETATM   13  H           1     -26.065  -2.951  -9.241  0.00  0.00     0.174 HD
ENDBRANCH   4   5
ENDBRANCH   3   4
ENDBRANCH   2   3
ENDBRANCH   1   2
BRANCH   1  14
HETATM   14  C           1     -19.980  -6.331  -7.043  0.00  0.00     0.196 C 
HETATM   15  O           1     -19.654  -6.104  -8.228  0.00  0.00    -0.646 OA
HETATM   16  O           1     -19.581  -7.368  -6.473  0.00  0.00    -0.646 OA
ENDBRANCH   1  14
BRANCH   1  17
HETATM   17  N           1     -20.608  -5.463  -4.877  0.00  0.00    -0.345 N 
HETATM   18  C           1     -21.543  -6.048  -4.066  0.00  0.00     0.251 C 
HETATM   19  O           1     -22.572  -6.470  -4.536  0.00  0.00    -0.271 OA
HETATM   20  H           1     -19.745  -5.110  -4.483  0.00  0.00     0.163 HD
BRANCH  18  21
HETATM   21  C           1     -21.285  -6.167  -2.583  0.00  0.00     0.302 C 
BRANCH  21  22
HETATM   22  C           1     -20.723  -7.548  -2.274  0.00  0.00     0.153 C 
HETATM   23  C           1     -21.762  -8.359  -1.512  0.00  0.00     0.042 C 
BRANCH  22  24
HETATM   24  O           1     -20.405  -8.203  -3.471  0.00  0.00    -0.393 OA
HETATM   25  H           1     -19.821  -7.637  -3.947  0.00  0.00     0.210 HD
ENDBRANCH  22  24
ENDBRANCH  21  22
BRANCH  21  26
HETATM   26  N           1     -22.571  -5.973  -1.836  0.00  0.00    -0.064 N 
HETATM   27  H           1     -22.633  -4.986  -1.498  0.00  0.00     0.275 HD
HETATM   28  H           1     -23.377  -6.175  -2.471  0.00  0.00     0.275 HD
HETATM   29  H           1     -22.601  -6.624  -1.019  0.00  0.00     0.275 HD
ENDBRANCH  21  26
ENDBRANCH  18  21
ENDBRANCH   1  17
TORSDOF 10
ENDMDL
MODEL 4
REMARK VINA RESULT:      -6.2      1.900      2.782
REMARK  10 active torsions:
REMARK  status: ('A' for Active; 'I' for Inactive)
REMARK    1  A    between atoms: C_3  and  C_29 
REMARK    2  A    between atoms: C_3  and  C_5 
REMARK    3  A    between atoms: C_5  and  C_6 
REMARK    4  A    between atoms: C_5  and  N_15 
REMARK    5  A    between atoms: C_11  and  C_12 
REMARK    6  A    between atoms: C_11  and  O_23 
REMARK    7  A    between atoms: C_12  and  C_14 
REMARK    8  A    between atoms: C_12  and  N_20 
REMARK       I    between atoms: C_14  and  N_15 
REMARK       I    between atoms: N_21  and  C_26 
REMARK    9  A    between atoms: N_21  and  C_22 
REMARK   10  A    between atoms: C_22  and  C_29 
REMARK       I    between atoms: N_25  and  C_26 
ROOT
HETATM    1  C           1     -33.591  -3.636 -11.313  0.00  0.00     0.185 C 
ENDROOT
BRANCH   1   2
HETATM    2  C           1     -33.978  -4.743 -10.340  0.00  0.00     0.038 C 
BRANCH   2   3
HETATM    3  C           1     -34.929  -5.714 -11.027  0.00  0.00     0.023 C 
BRANCH   3   4
HETATM    4  C           1     -35.115  -6.947 -10.154  0.00  0.00     0.138 C 
BRANCH   4   5
HETATM    5  N           1     -34.518  -8.114 -10.819  0.00  0.00    -0.227 N 
HETATM    6  H           1     -34.508  -8.173 -11.867  0.00  0.00     0.177 HD
HETATM    7  C           1     -34.015  -9.048 -10.127  0.00  0.00     0.665 C 
HETATM    8  N           1     -34.027  -8.977  -8.864  0.00  0.00    -0.235 N 
HETATM    9  N           1     -33.487 -10.080 -10.716  0.00  0.00    -0.235 N 
HETATM   10  H           1     -34.453  -8.143  -8.389  0.00  0.00     0.174 HD
HETATM   11  H           1     -33.610  -9.751  -8.291  0.00  0.00     0.174 HD
HETATM   12  H           1     -33.072 -10.851 -10.145  0.00  0.00     0.174 HD
HETATM   13  H           1     -33.478 -10.138 -11.759  0.00  0.00     0.174 HD
ENDBRANCH   4   5
ENDBRANCH   3   4
ENDBRANCH   2   3
ENDBRANCH   1   2
BRANCH   1  14
HETATM   14  C           1     -32.877  -4.236 -12.499  0.00  0.00     0.196 C 
HETATM   15  O           1     -33.346  -4.091 -13.648  0.00  0.00    -0.646 OA
HETATM   16  O           1     -31.817  -4.876 -12.333  0.00  0.00    -0.646 OA
ENDBRANCH   1  14
BRANCH   1  17
HETATM   17  N           1     -34.787  -2.951 -11.764  0.00  0.00    -0.345 N 
HETATM   18  C           1     -34.847  -1.584 -11.729  0.00  0.00     0.251 C 
HETATM   19  O           1     -33.905  -0.948 -11.321  0.00  0.00    -0.271 OA
HETATM   20  H           1     -35.576  -3.484 -12.106  0.00  0.00     0.163 HD
BRANCH  18  21
HETATM   21  C           1     -36.092  -0.872 -12.200  0.00  0.00     0.302 C 
BRANCH  21  22
HETATM   22  C           1     -35.983  -0.593 -13.693  0.00  0.00     0.153 C 
HETATM   23  C           1     -35.336   0.769 -13.908  0.00  0.00     0.042 C 
BRANCH  22  24
HETATM   24  O           1     -35.198  -1.584 -14.298  0.00  0.00    -0.393 OA
HETATM   25  H           1     -35.514  -1.684 -15.180  0.00  0.00     0.210 HD
ENDBRANCH  22  24
ENDBRANCH  21  22
BRANCH  21  26
HETATM   26  N           1     -36.235   0.424 -11.460  0.00  0.00    -0.064 N 
HETATM   27  H           1     -35.414   0.557 -10.827  0.00  0.00     0.275 HD
HETATM   28  H           1     -36.280   1.213 -12.143  0.00  0.00     0.275 HD
HETATM   29  H           1     -37.112   0.406 -10.892  0.00  0.00     0.275 HD
ENDBRANCH  21  26
ENDBRANCH  18  21
ENDBRANCH   1  17
TORSDOF 10
ENDMDL
MODEL 5
REMARK VINA RESULT:      -6.1     14.285     17.360
REMARK  10 active torsions:
REMARK  status: ('A' for Active; 'I' for Inactive)
REMARK    1  A    between atoms: C_3  and  C_29 
REMARK    2  A    between atoms: C_3  and  C_5 
REMARK    3  A    between atoms: C_5  and  C_6 
REMARK    4  A    between atoms: C_5  and  N_15 
REMARK    5  A    between atoms: C_11  and  C_12 
REMARK    6  A    between atoms: C_11  and  O_23 
REMARK    7  A    between atoms: C_12  and  C_14 
REMARK    8  A    between atoms: C_12  and  N_20 
REMARK       I    between atoms: C_14  and  N_15 
REMARK       I    between atoms: N_21  and  C_26 
REMARK    9  A    between atoms: N_21  and  C_22 
REMARK   10  A    between atoms: C_22  and  C_29 
REMARK       I    between atoms: N_25  and  C_26 
ROOT
HETATM    1  C           1     -20.566  -6.816  -5.342  0.00  0.00     0.185 C 
ENDROOT
BRANCH   1   2
HETATM    2  C           1     -20.331  -6.045  -6.635  0.00  0.00     0.038 C 
BRANCH   2   3
HETATM    3  C           1     -20.124  -4.570  -6.317  0.00  0.00     0.023 C 
BRANCH   3   4
HETATM    4  C           1     -20.703  -3.722  -7.441  0.00  0.00     0.138 C 
BRANCH   4   5
HETATM    5  N           1     -22.171  -3.760  -7.378  0.00  0.00    -0.227 N 
HETATM    6  H           1     -22.661  -3.635  -6.458  0.00  0.00     0.177 HD
HETATM    7  C           1     -22.846  -3.944  -8.434  0.00  0.00     0.665 C 
HETATM    8  N           1     -22.255  -4.095  -9.544  0.00  0.00    -0.235 N 
HETATM    9  N           1     -24.144  -3.978  -8.379  0.00  0.00    -0.235 N 
HETATM   10  H           1     -21.207  -4.068  -9.589  0.00  0.00     0.174 HD
HETATM   11  H           1     -22.815  -4.248 -10.419  0.00  0.00     0.174 HD
HETATM   12  H           1     -24.700  -4.130  -9.250  0.00  0.00     0.174 HD
HETATM   13  H           1     -24.631  -3.853  -7.463  0.00  0.00     0.174 HD
ENDBRANCH   4   5
ENDBRANCH   3   4
ENDBRANCH   2   3
ENDBRANCH   1   2
BRANCH   1  14
HETATM   14  C           1     -21.827  -6.317  -4.681  0.00  0.00     0.196 C 
HETATM   15  O           1     -21.833  -6.069  -3.456  0.00  0.00    -0.646 OA
HETATM   16  O           1     -22.864  -6.150  -5.358  0.00  0.00    -0.646 OA
ENDBRANCH   1  14
BRANCH   1  17
HETATM   17  N           1     -20.702  -8.228  -5.640  0.00  0.00    -0.345 N 
HETATM   18  C           1     -19.954  -9.147  -4.955  0.00  0.00     0.251 C 
HETATM   19  O           1     -19.180  -8.783  -4.104  0.00  0.00    -0.271 OA
HETATM   20  H           1     -21.352  -8.534  -6.354  0.00  0.00     0.163 HD
BRANCH  18  21
HETATM   21  C           1     -20.097 -10.618  -5.266  0.00  0.00     0.302 C 
BRANCH  21  22
HETATM   22  C           1     -18.819 -11.125  -5.920  0.00  0.00     0.153 C 
HETATM   23  C           1     -19.168 -12.160  -6.981  0.00  0.00     0.042 C 
BRANCH  22  24
HETATM   24  O           1     -18.141 -10.054  -6.518  0.00  0.00    -0.393 OA
HETATM   25  H           1     -17.781 -10.374  -7.327  0.00  0.00     0.210 HD
ENDBRANCH  22  24
ENDBRANCH  21  22
BRANCH  21  26
HETATM   26  N           1     -21.251 -10.820  -6.202  0.00  0.00    -0.064 N 
HETATM   27  H           1     -21.358 -11.839  -6.407  0.00  0.00     0.275 HD
HETATM   28  H           1     -22.126 -10.459  -5.760  0.00  0.00     0.275 HD
HETATM   29  H           1     -21.072 -10.303  -7.092  0.00  0.00     0.275 HD
ENDBRANCH  21  26
ENDBRANCH  18  21
ENDBRANCH   1  17
TORSDOF 10
ENDMDL
MODEL 6
REMARK VINA RESULT:      -6.1     13.389     16.099
REMARK  10 active torsions:
REMARK  status: ('A' for Active; 'I' for Inactive)
REMARK    1  A    between atoms: C_3  and  C_29 
REMARK    2  A    between atoms: C_3  and  C_5 
REMARK    3  A    between atoms: C_5  and  C_6 
REMARK    4  A    between atoms: C_5  and  N_15 
REMARK    5  A    between atoms: C_11  and  C_12 
REMARK    6  A    between atoms: C_11  and  O_23 
REMARK    7  A    between atoms: C_12  and  C_14 
REMARK    8  A    between atoms: C_12  and  N_20 
REMARK       I    between atoms: C_14  and  N_15 
REMARK       I    between atoms: N_21  and  C_26 
REMARK    9  A    between atoms: N_21  and  C_22 
REMARK   10  A    between atoms: C_22  and  C_29 
REMARK       I    between atoms: N_25  and  C_26 
ROOT
HETATM    1  C           1     -21.321  -4.968  -7.637  0.00  0.00     0.185 C 
ENDROOT
BRANCH   1   2
HETATM    2  C           1     -22.229  -3.777  -7.917  0.00  0.00     0.038 C 
BRANCH   2   3
HETATM    3  C           1     -23.582  -4.274  -8.408  0.00  0.00     0.023 C 
BRANCH   3   4
HETATM    4  C           1     -23.865  -3.697  -9.788  0.00  0.00     0.138 C 
BRANCH   4   5
HETATM    5  N           1     -22.607  -3.580 -10.538  0.00  0.00    -0.227 N 
HETATM    6  H           1     -21.854  -2.931 -10.202  0.00  0.00     0.177 HD
HETATM    7  C           1     -22.431  -4.263 -11.591  0.00  0.00     0.665 C 
HETATM    8  N           1     -23.339  -5.046 -11.996  0.00  0.00    -0.235 N 
HETATM    9  N           1     -21.318  -4.159 -12.254  0.00  0.00    -0.235 N 
HETATM   10  H           1     -24.238  -5.129 -11.460  0.00  0.00     0.174 HD
HETATM   11  H           1     -23.193  -5.611 -12.868  0.00  0.00     0.174 HD
HETATM   12  H           1     -21.173  -4.722 -13.122  0.00  0.00     0.174 HD
HETATM   13  H           1     -20.568  -3.513 -11.919  0.00  0.00     0.174 HD
ENDBRANCH   4   5
ENDBRANCH   3   4
ENDBRANCH   2   3
ENDBRANCH   1   2
BRANCH   1  14
HETATM   14  C           1     -19.964  -4.720  -8.249  0.00  0.00     0.196 C 
HETATM   15  O           1     -19.826  -4.753  -9.491  0.00  0.00    -0.646 OA
HETATM   16  O           1     -18.981  -4.483  -7.517  0.00  0.00    -0.646 OA
ENDBRANCH   1  14
BRANCH   1  17
HETATM   17  N           1     -21.180  -5.140  -6.204  0.00  0.00    -0.345 N 
HETATM   18  C           1     -21.137  -6.399  -5.668  0.00  0.00     0.251 C 
HETATM   19  O           1     -21.217  -7.365  -6.387  0.00  0.00    -0.271 OA
HETATM   20  H           1     -21.113  -4.330  -5.601  0.00  0.00     0.163 HD
BRANCH  18  21
HETATM   21  C           1     -20.990  -6.578  -4.176  0.00  0.00     0.302 C 
BRANCH  21  22
HETATM   22  C           1     -20.709  -8.043  -3.867  0.00  0.00     0.153 C 
HETATM   23  C           1     -20.397  -8.197  -2.384  0.00  0.00     0.042 C 
BRANCH  22  24
HETATM   24  O           1     -21.832  -8.815  -4.190  0.00  0.00    -0.393 OA
HETATM   25  H           1     -21.557  -9.716  -4.186  0.00  0.00     0.210 HD
ENDBRANCH  22  24
ENDBRANCH  21  22
BRANCH  21  26
HETATM   26  N           1     -22.259  -6.160  -3.496  0.00  0.00    -0.064 N 
HETATM   27  H           1     -22.321  -6.621  -2.560  0.00  0.00     0.275 HD
HETATM   28  H           1     -22.263  -5.122  -3.373  0.00  0.00     0.275 HD
HETATM   29  H           1     -23.078  -6.444  -4.079  0.00  0.00     0.275 HD
ENDBRANCH  21  26
ENDBRANCH  18  21
ENDBRANCH   1  17
TORSDOF 10
ENDMDL
MODEL 7
REMARK VINA RESULT:      -6.0      3.038      4.023
REMARK  10 active torsions:
REMARK  status: ('A' for Active; 'I' for Inactive)
REMARK    1  A    between atoms: C_3  and  C_29 
REMARK    2  A    between atoms: C_3  and  C_5 
REMARK    3  A    between atoms: C_5  and  C_6 
REMARK    4  A    between atoms: C_5  and  N_15 
REMARK    5  A    between atoms: C_11  and  C_12 
REMARK    6  A    between atoms: C_11  and  O_23 
REMARK    7  A    between atoms: C_12  and  C_14 
REMARK    8  A    between atoms: C_12  and  N_20 
REMARK       I    between atoms: C_14  and  N_15 
REMARK       I    between atoms: N_21  and  C_26 
REMARK    9  A    between atoms: N_21  and  C_22 
REMARK   10  A    between atoms: C_22  and  C_29 
REMARK       I    between atoms: N_25  and  C_26 
ROOT
HETATM    1  C           1     -34.537  -3.018 -12.444  0.00  0.00     0.185 C 
ENDROOT
BRANCH   1   2
HETATM    2  C           1     -33.722  -4.003 -13.274  0.00  0.00     0.038 C 
BRANCH   2   3
HETATM    3  C           1     -34.556  -4.485 -14.454  0.00  0.00     0.023 C 
BRANCH   3   4
HETATM    4  C           1     -33.947  -3.969 -15.750  0.00  0.00     0.138 C 
BRANCH   4   5
HETATM    5  N           1     -32.667  -4.649 -15.996  0.00  0.00    -0.227 N 
HETATM    6  H           1     -32.407  -5.498 -15.436  0.00  0.00     0.177 HD
HETATM    7  C           1     -31.878  -4.211 -16.884  0.00  0.00     0.665 C 
HETATM    8  N           1     -32.191  -3.187 -17.560  0.00  0.00    -0.235 N 
HETATM    9  N           1     -30.746  -4.812 -17.102  0.00  0.00    -0.235 N 
HETATM   10  H           1     -33.105  -2.702 -17.385  0.00  0.00     0.174 HD
HETATM   11  H           1     -31.537  -2.824 -18.296  0.00  0.00     0.174 HD
HETATM   12  H           1     -30.095  -4.450 -17.834  0.00  0.00     0.174 HD
HETATM   13  H           1     -30.488  -5.656 -16.543  0.00  0.00     0.174 HD
ENDBRANCH   4   5
ENDBRANCH   3   4
ENDBRANCH   2   3
ENDBRANCH   1   2
BRANCH   1  14
HETATM   14  C           1     -33.836  -2.765 -11.132  0.00  0.00     0.196 C 
HETATM   15  O           1     -33.482  -1.606 -10.828  0.00  0.00    -0.646 OA
HETATM   16  O           1     -33.610  -3.714 -10.351  0.00  0.00    -0.646 OA
ENDBRANCH   1  14
BRANCH   1  17
HETATM   17  N           1     -34.669  -1.770 -13.170  0.00  0.00    -0.345 N 
HETATM   18  C           1     -35.809  -1.023 -13.044  0.00  0.00     0.251 C 
HETATM   19  O           1     -36.705  -1.404 -12.329  0.00  0.00    -0.271 OA
HETATM   20  H           1     -33.918  -1.452 -13.769  0.00  0.00     0.163 HD
BRANCH  18  21
HETATM   21  C           1     -35.946   0.277 -13.800  0.00  0.00     0.302 C 
BRANCH  21  22
HETATM   22  C           1     -36.854   0.069 -15.005  0.00  0.00     0.153 C 
HETATM   23  C           1     -36.056  -0.562 -16.138  0.00  0.00     0.042 C 
BRANCH  22  24
HETATM   24  O           1     -37.914  -0.777 -14.653  0.00  0.00    -0.393 OA
HETATM   25  H           1     -37.583  -1.379 -14.008  0.00  0.00     0.210 HD
ENDBRANCH  22  24
ENDBRANCH  21  22
BRANCH  21  26
HETATM   26  N           1     -34.595   0.728 -14.265  0.00  0.00    -0.064 N 
HETATM   27  H           1     -34.321   1.595 -13.751  0.00  0.00     0.275 HD
HETATM   28  H           1     -33.893  -0.024 -14.080  0.00  0.00     0.275 HD
HETATM   29  H           1     -34.628   0.927 -15.291  0.00  0.00     0.275 HD
ENDBRANCH  21  26
ENDBRANCH  18  21
ENDBRANCH   1  17
TORSDOF 10
ENDMDL
MODEL 8
REMARK VINA RESULT:      -5.9     15.039     16.555
REMARK  10 active torsions:
REMARK  status: ('A' for Active; 'I' for Inactive)
REMARK    1  A    between atoms: C_3  and  C_29 
REMARK    2  A    between atoms: C_3  and  C_5 
REMARK    3  A    between atoms: C_5  and  C_6 
REMARK    4  A    between atoms: C_5  and  N_15 
REMARK    5  A    between atoms: C_11  and  C_12 
REMARK    6  A    between atoms: C_11  and  O_23 
REMARK    7  A    between atoms: C_12  and  C_14 
REMARK    8  A    between atoms: C_12  and  N_20 
REMARK       I    between atoms: C_14  and  N_15 
REMARK       I    between atoms: N_21  and  C_26 
REMARK    9  A    between atoms: N_21  and  C_22 
REMARK   10  A    between atoms: C_22  and  C_29 
REMARK       I    between atoms: N_25  and  C_26 
ROOT
HETATM    1  C           1     -20.811  -6.899  -4.703  0.00  0.00     0.185 C 
ENDROOT
BRANCH   1   2
HETATM    2  C           1     -21.992  -6.794  -3.745  0.00  0.00     0.038 C 
BRANCH   2   3
HETATM    3  C           1     -21.558  -6.061  -2.483  0.00  0.00     0.023 C 
BRANCH   3   4
HETATM    4  C           1     -22.336  -6.599  -1.289  0.00  0.00     0.138 C 
BRANCH   4   5
HETATM    5  N           1     -22.038  -8.028  -1.115  0.00  0.00    -0.227 N 
HETATM    6  H           1     -21.351  -8.503  -1.751  0.00  0.00     0.177 HD
HETATM    7  C           1     -22.612  -8.687  -0.198  0.00  0.00     0.665 C 
HETATM    8  N           1     -23.441  -8.115   0.568  0.00  0.00    -0.235 N 
HETATM    9  N           1     -22.349  -9.951  -0.044  0.00  0.00    -0.235 N 
HETATM   10  H           1     -23.653  -7.094   0.444  0.00  0.00     0.174 HD
HETATM   11  H           1     -23.916  -8.661   1.328  0.00  0.00     0.174 HD
HETATM   12  H           1     -22.822 -10.494   0.713  0.00  0.00     0.174 HD
HETATM   13  H           1     -21.665 -10.423  -0.677  0.00  0.00     0.174 HD
ENDBRANCH   4   5
ENDBRANCH   3   4
ENDBRANCH   2   3
ENDBRANCH   1   2
BRANCH   1  14
HETATM   14  C           1     -20.292  -8.316  -4.708  0.00  0.00     0.196 C 
HETATM   15  O           1     -20.630  -9.107  -3.800  0.00  0.00    -0.646 OA
HETATM   16  O           1     -19.527  -8.699  -5.618  0.00  0.00    -0.646 OA
ENDBRANCH   1  14
BRANCH   1  17
HETATM   17  N           1     -21.241  -6.537  -6.039  0.00  0.00    -0.345 N 
HETATM   18  C           1     -21.050  -5.260  -6.496  0.00  0.00     0.251 C 
HETATM   19  O           1     -20.526  -4.437  -5.787  0.00  0.00    -0.271 OA
HETATM   20  H           1     -21.680  -7.227  -6.634  0.00  0.00     0.163 HD
BRANCH  18  21
HETATM   21  C           1     -21.497  -4.884  -7.888  0.00  0.00     0.302 C 
BRANCH  21  22
HETATM   22  C           1     -20.278  -4.736  -8.789  0.00  0.00     0.153 C 
HETATM   23  C           1     -20.707  -4.152 -10.129  0.00  0.00     0.042 C 
BRANCH  22  24
HETATM   24  O           1     -19.349  -3.880  -8.184  0.00  0.00    -0.393 OA
HETATM   25  H           1     -18.722  -4.426  -7.739  0.00  0.00     0.210 HD
ENDBRANCH  22  24
ENDBRANCH  21  22
BRANCH  21  26
HETATM   26  N           1     -22.242  -3.584  -7.839  0.00  0.00    -0.064 N 
HETATM   27  H           1     -22.974  -3.573  -8.585  0.00  0.00     0.275 HD
HETATM   28  H           1     -22.696  -3.477  -6.903  0.00  0.00     0.275 HD
HETATM   29  H           1     -21.575  -2.794  -7.994  0.00  0.00     0.275 HD
ENDBRANCH  21  26
ENDBRANCH  18  21
ENDBRANCH   1  17
TORSDOF 10
ENDMDL
MODEL 9
REMARK VINA RESULT:      -5.6     13.608     16.605
REMARK  10 active torsions:
REMARK  status: ('A' for Active; 'I' for Inactive)
REMARK    1  A    between atoms: C_3  and  C_29 
REMARK    2  A    between atoms: C_3  and  C_5 
REMARK    3  A    between atoms: C_5  and  C_6 
REMARK    4  A    between atoms: C_5  and  N_15 
REMARK    5  A    between atoms: C_11  and  C_12 
REMARK    6  A    between atoms: C_11  and  O_23 
REMARK    7  A    between atoms: C_12  and  C_14 
REMARK    8  A    between atoms: C_12  and  N_20 
REMARK       I    between atoms: C_14  and  N_15 
REMARK       I    between atoms: N_21  and  C_26 
REMARK    9  A    between atoms: N_21  and  C_22 
REMARK   10  A    between atoms: C_22  and  C_29 
REMARK       I    between atoms: N_25  and  C_26 
ROOT
HETATM    1  C           1     -20.439  -6.107  -6.732  0.00  0.00     0.185 C 
ENDROOT
BRANCH   1   2
HETATM    2  C           1     -21.456  -5.735  -7.803  0.00  0.00     0.038 C 
BRANCH   2   3
HETATM    3  C           1     -22.127  -4.418  -7.431  0.00  0.00     0.023 C 
BRANCH   3   4
HETATM    4  C           1     -22.546  -3.687  -8.699  0.00  0.00     0.138 C 
BRANCH   4   5
HETATM    5  N           1     -23.994  -3.436  -8.664  0.00  0.00    -0.227 N 
HETATM    6  H           1     -24.445  -3.083  -7.784  0.00  0.00     0.177 HD
HETATM    7  C           1     -24.698  -3.645  -9.696  0.00  0.00     0.665 C 
HETATM    8  N           1     -24.155  -4.071 -10.757  0.00  0.00    -0.235 N 
HETATM    9  N           1     -25.978  -3.423  -9.665  0.00  0.00    -0.235 N 
HETATM   10  H           1     -23.120  -4.250 -10.782  0.00  0.00     0.174 HD
HETATM   11  H           1     -24.738  -4.244 -11.612  0.00  0.00     0.174 HD
HETATM   12  H           1     -26.559  -3.596 -10.516  0.00  0.00     0.174 HD
HETATM   13  H           1     -26.426  -3.072  -8.789  0.00  0.00     0.174 HD
ENDBRANCH   4   5
ENDBRANCH   3   4
ENDBRANCH   2   3
ENDBRANCH   1   2
BRANCH   1  14
HETATM   14  C           1     -19.559  -4.916  -6.439  0.00  0.00     0.196 C 
HETATM   15  O           1     -18.762  -4.501  -7.308  0.00  0.00    -0.646 OA
HETATM   16  O           1     -19.627  -4.346  -5.330  0.00  0.00    -0.646 OA
ENDBRANCH   1  14
BRANCH   1  17
HETATM   17  N           1     -21.134  -6.503  -5.523  0.00  0.00    -0.345 N 
HETATM   18  C           1     -20.823  -7.688  -4.912  0.00  0.00     0.251 C 
HETATM   19  O           1     -19.971  -8.404  -5.380  0.00  0.00    -0.271 OA
HETATM   20  H           1     -21.848  -5.903  -5.131  0.00  0.00     0.163 HD
BRANCH  18  21
HETATM   21  C           1     -21.547  -8.100  -3.653  0.00  0.00     0.302 C 
BRANCH  21  22
HETATM   22  C           1     -21.045  -7.265  -2.483  0.00  0.00     0.153 C 
HETATM   23  C           1     -22.152  -6.328  -2.017  0.00  0.00     0.042 C 
BRANCH  22  24
HETATM   24  O           1     -20.674  -8.110  -1.429  0.00  0.00    -0.393 OA
HETATM   25  H           1     -21.333  -8.022  -0.761  0.00  0.00     0.210 HD
ENDBRANCH  22  24
ENDBRANCH  21  22
BRANCH  21  26
HETATM   26  N           1     -21.286  -9.551  -3.379  0.00  0.00    -0.064 N 
HETATM   27  H           1     -20.258  -9.706  -3.275  0.00  0.00     0.275 HD
HETATM   28  H           1     -21.772  -9.832  -2.497  0.00  0.00     0.275 HD
HETATM   29  H           1     -21.646 -10.126  -4.173  0.00  0.00     0.275 HD
ENDBRANCH  21  26
ENDBRANCH  18  21
ENDBRANCH   1  17
TORSDOF 10
ENDMDL
