MODEL 1
REMARK VINA RESULT:      -5.7      0.000      0.000
REMARK  9 active torsions:
REMARK  status: ('A' for Active; 'I' for Inactive)
REMARK    1  A    between atoms: C_2  and  C_15 
REMARK    2  A    between atoms: C_2  and  C_3 
REMARK    3  A    between atoms: C_3  and  C_10 
REMARK    4  A    between atoms: C_3  and  N_4 
REMARK       I    between atoms: N_4  and  C_5 
REMARK    5  A    between atoms: C_5  and  C_6 
REMARK    6  A    between atoms: C_6  and  C_17 
REMARK    7  A    between atoms: C_6  and  N_18 
REMARK    8  A    between atoms: S_12  and  C_16 
REMARK    9  A    between atoms: C_16  and  C_17 
ROOT
HETATM    1  N           1     -22.465  -4.731  -8.834  0.00  0.00    -0.344 N 
HETATM    2  C           1     -21.806  -4.635  -7.638  0.00  0.00     0.249 C 
HETATM    3  H           1     -22.571  -5.632  -9.282  0.00  0.00     0.163 HD
HETATM    4  O           1     -21.680  -3.560  -7.103  0.00  0.00    -0.271 OA
ENDROOT
BRANCH   2   5
HETATM    5  C           1     -21.238  -5.872  -6.987  0.00  0.00     0.275 C 
BRANCH   5   6
HETATM    6  C           1     -21.211  -5.685  -5.476  0.00  0.00     0.053 C 
BRANCH   6   7
HETATM    7  C           1     -22.130  -6.706  -4.821  0.00  0.00     0.076 C 
BRANCH   7   8
HETATM    8  S           1     -21.337  -7.366  -3.327  0.00  0.00    -0.173 SA
HETATM    9  C           1     -22.064  -6.170  -2.171  0.00  0.00     0.089 C 
ENDBRANCH   7   8
ENDBRANCH   6   7
ENDBRANCH   5   6
BRANCH   5  10
HETATM   10  N           1     -19.843  -6.103  -7.487  0.00  0.00    -0.066 N 
HETATM   11  H           1     -19.877  -6.654  -8.374  0.00  0.00     0.275 HD
HETATM   12  H           1     -19.382  -5.182  -7.668  0.00  0.00     0.275 HD
HETATM   13  H           1     -19.299  -6.632  -6.769  0.00  0.00     0.275 HD
ENDBRANCH   5  10
ENDBRANCH   2   5
BRANCH   1  14
HETATM   14  C           1     -23.010  -3.542  -9.459  0.00  0.00     0.195 C 
BRANCH  14  15
HETATM   15  C           1     -22.078  -3.080 -10.571  0.00  0.00     0.149 C 
BRANCH  15  16
HETATM   16  C           1     -21.413  -4.280 -11.201  0.00  0.00     0.175 C 
HETATM   17  O           1     -20.257  -4.607 -10.856  0.00  0.00    -0.648 OA
HETATM   18  O           1     -22.019  -4.947 -12.068  0.00  0.00    -0.648 OA
ENDBRANCH  15  16
ENDBRANCH  14  15
BRANCH  14  19
HETATM   19  C           1     -24.368  -3.857 -10.038  0.00  0.00     0.197 C 
HETATM   20  O           1     -24.949  -4.919  -9.727  0.00  0.00    -0.646 OA
HETATM   21  O           1     -24.912  -3.056 -10.828  0.00  0.00    -0.646 OA
ENDBRANCH  14  19
ENDBRANCH   1  14
TORSDOF 9
ENDMDL
MODEL 2
REMARK VINA RESULT:      -5.7      1.770      3.022
REMARK  9 active torsions:
REMARK  status: ('A' for Active; 'I' for Inactive)
REMARK    1  A    between atoms: C_2  and  C_15 
REMARK    2  A    between atoms: C_2  and  C_3 
REMARK    3  A    between atoms: C_3  and  C_10 
REMARK    4  A    between atoms: C_3  and  N_4 
REMARK       I    between atoms: N_4  and  C_5 
REMARK    5  A    between atoms: C_5  and  C_6 
REMARK    6  A    between atoms: C_6  and  C_17 
REMARK    7  A    between atoms: C_6  and  N_18 
REMARK    8  A    between atoms: S_12  and  C_16 
REMARK    9  A    between atoms: C_16  and  C_17 
ROOT
HETATM    1  N           1     -22.196  -4.203  -9.247  0.00  0.00    -0.344 N 
HETATM    2  C           1     -21.325  -4.613  -8.275  0.00  0.00     0.249 C 
HETATM    3  H           1     -22.995  -3.631  -9.003  0.00  0.00     0.163 HD
HETATM    4  O           1     -20.371  -5.294  -8.567  0.00  0.00    -0.271 OA
ENDROOT
BRANCH   2   5
HETATM    5  C           1     -21.556  -4.214  -6.838  0.00  0.00     0.275 C 
BRANCH   5   6
HETATM    6  C           1     -20.422  -4.749  -5.974  0.00  0.00     0.053 C 
BRANCH   6   7
HETATM    7  C           1     -20.979  -5.736  -4.958  0.00  0.00     0.076 C 
BRANCH   7   8
HETATM    8  S           1     -20.346  -7.399  -5.318  0.00  0.00    -0.173 SA
HETATM    9  C           1     -21.519  -8.292  -4.259  0.00  0.00     0.089 C 
ENDBRANCH   7   8
ENDBRANCH   6   7
ENDBRANCH   5   6
BRANCH   5  10
HETATM   10  N           1     -22.858  -4.788  -6.364  0.00  0.00    -0.066 N 
HETATM   11  H           1     -22.691  -5.729  -5.941  0.00  0.00     0.275 HD
HETATM   12  H           1     -23.276  -4.154  -5.646  0.00  0.00     0.275 HD
HETATM   13  H           1     -23.513  -4.881  -7.172  0.00  0.00     0.275 HD
ENDBRANCH   5  10
ENDBRANCH   2   5
BRANCH   1  14
HETATM   14  C           1     -21.975  -4.586 -10.628  0.00  0.00     0.195 C 
BRANCH  14  15
HETATM   15  C           1     -23.314  -4.711 -11.341  0.00  0.00     0.149 C 
BRANCH  15  16
HETATM   16  C           1     -24.402  -4.125 -10.475  0.00  0.00     0.175 C 
HETATM   17  O           1     -24.716  -2.920 -10.594  0.00  0.00    -0.648 OA
HETATM   18  O           1     -24.991  -4.843  -9.638  0.00  0.00    -0.648 OA
ENDBRANCH  15  16
ENDBRANCH  14  15
BRANCH  14  19
HETATM   19  C           1     -21.135  -3.535 -11.313  0.00  0.00     0.197 C 
HETATM   20  O           1     -21.664  -2.475 -11.711  0.00  0.00    -0.646 OA
HETATM   21  O           1     -19.912  -3.724 -11.481  0.00  0.00    -0.646 OA
ENDBRANCH  14  19
ENDBRANCH   1  14
TORSDOF 9
ENDMDL
MODEL 3
REMARK VINA RESULT:      -5.1      3.860      6.826
REMARK  9 active torsions:
REMARK  status: ('A' for Active; 'I' for Inactive)
REMARK    1  A    between atoms: C_2  and  C_15 
REMARK    2  A    between atoms: C_2  and  C_3 
REMARK    3  A    between atoms: C_3  and  C_10 
REMARK    4  A    between atoms: C_3  and  N_4 
REMARK       I    between atoms: N_4  and  C_5 
REMARK    5  A    between atoms: C_5  and  C_6 
REMARK    6  A    between atoms: C_6  and  C_17 
REMARK    7  A    between atoms: C_6  and  N_18 
REMARK    8  A    between atoms: S_12  and  C_16 
REMARK    9  A    between atoms: C_16  and  C_17 
ROOT
HETATM    1  N           1     -20.837  -6.745  -4.642  0.00  0.00    -0.344 N 
HETATM    2  C           1     -21.352  -5.839  -5.528  0.00  0.00     0.249 C 
HETATM    3  H           1     -19.837  -6.896  -4.596  0.00  0.00     0.163 HD
HETATM    4  O           1     -22.546  -5.658  -5.582  0.00  0.00    -0.271 OA
ENDROOT
BRANCH   2   5
HETATM    5  C           1     -20.431  -5.065  -6.439  0.00  0.00     0.275 C 
BRANCH   5   6
HETATM    6  C           1     -21.198  -3.919  -7.084  0.00  0.00     0.053 C 
BRANCH   6   7
HETATM    7  C           1     -21.278  -4.144  -8.588  0.00  0.00     0.076 C 
BRANCH   7   8
HETATM    8  S           1     -23.017  -4.134  -9.111  0.00  0.00    -0.173 SA
HETATM    9  C           1     -22.696  -4.420 -10.874  0.00  0.00     0.089 C 
ENDBRANCH   7   8
ENDBRANCH   6   7
ENDBRANCH   5   6
BRANCH   5  10
HETATM   10  N           1     -19.904  -5.977  -7.507  0.00  0.00    -0.066 N 
HETATM   11  H           1     -18.897  -5.760  -7.685  0.00  0.00     0.275 HD
HETATM   12  H           1     -19.995  -6.970  -7.192  0.00  0.00     0.275 HD
HETATM   13  H           1     -20.451  -5.837  -8.386  0.00  0.00     0.275 HD
ENDBRANCH   5  10
ENDBRANCH   2   5
BRANCH   1  14
HETATM   14  C           1     -21.722  -7.488  -3.767  0.00  0.00     0.195 C 
BRANCH  14  15
HETATM   15  C           1     -21.292  -8.949  -3.732  0.00  0.00     0.149 C 
BRANCH  15  16
HETATM   16  C           1     -20.009  -9.115  -4.510  0.00  0.00     0.175 C 
HETATM   17  O           1     -20.048  -9.409  -5.724  0.00  0.00    -0.648 OA
HETATM   18  O           1     -18.908  -8.958  -3.940  0.00  0.00    -0.648 OA
ENDBRANCH  15  16
ENDBRANCH  14  15
BRANCH  14  19
HETATM   19  C           1     -21.655  -6.910  -2.375  0.00  0.00     0.197 C 
HETATM   20  O           1     -20.945  -7.457  -1.503  0.00  0.00    -0.646 OA
HETATM   21  O           1     -22.308  -5.883  -2.092  0.00  0.00    -0.646 OA
ENDBRANCH  14  19
ENDBRANCH   1  14
TORSDOF 9
ENDMDL
MODEL 4
REMARK VINA RESULT:      -5.1      1.808      3.054
REMARK  9 active torsions:
REMARK  status: ('A' for Active; 'I' for Inactive)
REMARK    1  A    between atoms: C_2  and  C_15 
REMARK    2  A    between atoms: C_2  and  C_3 
REMARK    3  A    between atoms: C_3  and  C_10 
REMARK    4  A    between atoms: C_3  and  N_4 
REMARK       I    between atoms: N_4  and  C_5 
REMARK    5  A    between atoms: C_5  and  C_6 
REMARK    6  A    between atoms: C_6  and  C_17 
REMARK    7  A    between atoms: C_6  and  N_18 
REMARK    8  A    between atoms: S_12  and  C_16 
REMARK    9  A    between atoms: C_16  and  C_17 
ROOT
HETATM    1  N           1     -21.903  -4.796  -7.263  0.00  0.00    -0.344 N 
HETATM    2  C           1     -21.382  -5.868  -6.590  0.00  0.00     0.249 C 
HETATM    3  H           1     -22.365  -4.054  -6.753  0.00  0.00     0.163 HD
HETATM    4  O           1     -20.830  -6.753  -7.199  0.00  0.00    -0.271 OA
ENDROOT
BRANCH   2   5
HETATM    5  C           1     -21.496  -5.944  -5.088  0.00  0.00     0.275 C 
BRANCH   5   6
HETATM    6  C           1     -20.649  -7.099  -4.571  0.00  0.00     0.053 C 
BRANCH   6   7
HETATM    7  C           1     -21.482  -7.959  -3.630  0.00  0.00     0.076 C 
BRANCH   7   8
HETATM    8  S           1     -20.846  -7.796  -1.938  0.00  0.00    -0.173 SA
HETATM    9  C           1     -22.223  -6.798  -1.302  0.00  0.00     0.089 C 
ENDBRANCH   7   8
ENDBRANCH   6   7
ENDBRANCH   5   6
BRANCH   5  10
HETATM   10  N           1     -22.929  -6.166  -4.707  0.00  0.00    -0.066 N 
HETATM   11  H           1     -23.320  -6.959  -5.264  0.00  0.00     0.275 HD
HETATM   12  H           1     -22.987  -6.396  -3.688  0.00  0.00     0.275 HD
HETATM   13  H           1     -23.480  -5.300  -4.901  0.00  0.00     0.275 HD
ENDBRANCH   5  10
ENDBRANCH   2   5
BRANCH   1  14
HETATM   14  C           1     -21.794  -4.724  -8.707  0.00  0.00     0.195 C 
BRANCH  14  15
HETATM   15  C           1     -22.747  -3.660  -9.235  0.00  0.00     0.149 C 
BRANCH  15  16
HETATM   16  C           1     -23.669  -4.274 -10.261  0.00  0.00     0.175 C 
HETATM   17  O           1     -23.280  -4.427 -11.439  0.00  0.00    -0.648 OA
HETATM   18  O           1     -24.821  -4.629  -9.932  0.00  0.00    -0.648 OA
ENDBRANCH  15  16
ENDBRANCH  14  15
BRANCH  14  19
HETATM   19  C           1     -20.378  -4.365  -9.086  0.00  0.00     0.197 C 
HETATM   20  O           1     -19.696  -3.633  -8.337  0.00  0.00    -0.646 OA
HETATM   21  O           1     -19.886  -4.800 -10.149  0.00  0.00    -0.646 OA
ENDBRANCH  14  19
ENDBRANCH   1  14
TORSDOF 9
ENDMDL
MODEL 5
REMARK VINA RESULT:      -4.9      3.892      7.031
REMARK  9 active torsions:
REMARK  status: ('A' for Active; 'I' for Inactive)
REMARK    1  A    between atoms: C_2  and  C_15 
REMARK    2  A    between atoms: C_2  and  C_3 
REMARK    3  A    between atoms: C_3  and  C_10 
REMARK    4  A    between atoms: C_3  and  N_4 
REMARK       I    between atoms: N_4  and  C_5 
REMARK    5  A    between atoms: C_5  and  C_6 
REMARK    6  A    between atoms: C_6  and  C_17 
REMARK    7  A    between atoms: C_6  and  N_18 
REMARK    8  A    between atoms: S_12  and  C_16 
REMARK    9  A    between atoms: C_16  and  C_17 
ROOT
HETATM    1  N           1     -21.072  -6.790  -6.281  0.00  0.00    -0.344 N 
HETATM    2  C           1     -20.981  -5.456  -6.575  0.00  0.00     0.249 C 
HETATM    3  H           1     -21.464  -7.431  -6.958  0.00  0.00     0.163 HD
HETATM    4  O           1     -20.511  -4.691  -5.767  0.00  0.00    -0.271 OA
ENDROOT
BRANCH   2   5
HETATM    5  C           1     -21.467  -4.942  -7.907  0.00  0.00     0.275 C 
BRANCH   5   6
HETATM    6  C           1     -20.338  -4.198  -8.608  0.00  0.00     0.053 C 
BRANCH   6   7
HETATM    7  C           1     -20.212  -4.699 -10.040  0.00  0.00     0.076 C 
BRANCH   7   8
HETATM    8  S           1     -21.017  -3.525 -11.166  0.00  0.00    -0.173 SA
HETATM    9  C           1     -22.488  -4.537 -11.491  0.00  0.00     0.089 C 
ENDBRANCH   7   8
ENDBRANCH   6   7
ENDBRANCH   5   6
BRANCH   5  10
HETATM   10  N           1     -22.621  -4.008  -7.690  0.00  0.00    -0.066 N 
HETATM   11  H           1     -22.733  -3.823  -6.668  0.00  0.00     0.275 HD
HETATM   12  H           1     -22.437  -3.107  -8.188  0.00  0.00     0.275 HD
HETATM   13  H           1     -23.495  -4.442  -8.063  0.00  0.00     0.275 HD
ENDBRANCH   5  10
ENDBRANCH   2   5
BRANCH   1  14
HETATM   14  C           1     -20.604  -7.284  -5.001  0.00  0.00     0.195 C 
BRANCH  14  15
HETATM   15  C           1     -21.800  -7.588  -4.108  0.00  0.00     0.149 C 
BRANCH  15  16
HETATM   16  C           1     -21.623  -6.897  -2.778  0.00  0.00     0.175 C 
HETATM   17  O           1     -22.354  -5.929  -2.474  0.00  0.00    -0.648 OA
HETATM   18  O           1     -20.746  -7.292  -1.979  0.00  0.00    -0.648 OA
ENDBRANCH  15  16
ENDBRANCH  14  15
BRANCH  14  19
HETATM   19  C           1     -19.800  -8.544  -5.212  0.00  0.00     0.197 C 
HETATM   20  O           1     -20.021  -9.552  -4.508  0.00  0.00    -0.646 OA
HETATM   21  O           1     -18.913  -8.579  -6.091  0.00  0.00    -0.646 OA
ENDBRANCH  14  19
ENDBRANCH   1  14
TORSDOF 9
ENDMDL
MODEL 6
REMARK VINA RESULT:      -4.8      3.017      4.806
REMARK  9 active torsions:
REMARK  status: ('A' for Active; 'I' for Inactive)
REMARK    1  A    between atoms: C_2  and  C_15 
REMARK    2  A    between atoms: C_2  and  C_3 
REMARK    3  A    between atoms: C_3  and  C_10 
REMARK    4  A    between atoms: C_3  and  N_4 
REMARK       I    between atoms: N_4  and  C_5 
REMARK    5  A    between atoms: C_5  and  C_6 
REMARK    6  A    between atoms: C_6  and  C_17 
REMARK    7  A    between atoms: C_6  and  N_18 
REMARK    8  A    between atoms: S_12  and  C_16 
REMARK    9  A    between atoms: C_16  and  C_17 
ROOT
HETATM    1  N           1     -20.953  -5.440  -4.865  0.00  0.00    -0.344 N 
HETATM    2  C           1     -21.466  -6.513  -4.188  0.00  0.00     0.249 C 
HETATM    3  H           1     -20.489  -4.697  -4.358  0.00  0.00     0.163 HD
HETATM    4  O           1     -22.018  -7.400  -4.794  0.00  0.00    -0.271 OA
ENDROOT
BRANCH   2   5
HETATM    5  C           1     -21.340  -6.589  -2.687  0.00  0.00     0.275 C 
BRANCH   5   6
HETATM    6  C           1     -21.444  -8.041  -2.240  0.00  0.00     0.053 C 
BRANCH   6   7
HETATM    7  C           1     -22.134  -8.108  -0.885  0.00  0.00     0.076 C 
BRANCH   7   8
HETATM    8  S           1     -22.552  -9.833  -0.502  0.00  0.00    -0.173 SA
HETATM    9  C           1     -20.999 -10.230   0.350  0.00  0.00     0.089 C 
ENDBRANCH   7   8
ENDBRANCH   6   7
ENDBRANCH   5   6
BRANCH   5  10
HETATM   10  N           1     -22.442  -5.792  -2.053  0.00  0.00    -0.066 N 
HETATM   11  H           1     -22.618  -4.930  -2.617  0.00  0.00     0.275 HD
HETATM   12  H           1     -23.313  -6.369  -2.020  0.00  0.00     0.275 HD
HETATM   13  H           1     -22.163  -5.522  -1.083  0.00  0.00     0.275 HD
ENDBRANCH   5  10
ENDBRANCH   2   5
BRANCH   1  14
HETATM   14  C           1     -21.074  -5.367  -6.308  0.00  0.00     0.195 C 
BRANCH  14  15
HETATM   15  C           1     -21.479  -3.956  -6.713  0.00  0.00     0.149 C 
BRANCH  15  16
HETATM   16  C           1     -22.347  -4.016  -7.946  0.00  0.00     0.175 C 
HETATM   17  O           1     -23.548  -4.351  -7.850  0.00  0.00    -0.648 OA
HETATM   18  O           1     -21.866  -3.730  -9.064  0.00  0.00    -0.648 OA
ENDBRANCH  15  16
ENDBRANCH  14  15
BRANCH  14  19
HETATM   19  C           1     -19.748  -5.711  -6.941  0.00  0.00     0.197 C 
HETATM   20  O           1     -19.010  -4.803  -7.382  0.00  0.00    -0.646 OA
HETATM   21  O           1     -19.385  -6.904  -7.024  0.00  0.00    -0.646 OA
ENDBRANCH  14  19
ENDBRANCH   1  14
TORSDOF 9
ENDMDL
MODEL 7
REMARK VINA RESULT:      -4.8      4.887      8.076
REMARK  9 active torsions:
REMARK  status: ('A' for Active; 'I' for Inactive)
REMARK    1  A    between atoms: C_2  and  C_15 
REMARK    2  A    between atoms: C_2  and  C_3 
REMARK    3  A    between atoms: C_3  and  C_10 
REMARK    4  A    between atoms: C_3  and  N_4 
REMARK       I    between atoms: N_4  and  C_5 
REMARK    5  A    between atoms: C_5  and  C_6 
REMARK    6  A    between atoms: C_6  and  C_17 
REMARK    7  A    between atoms: C_6  and  N_18 
REMARK    8  A    between atoms: S_12  and  C_16 
REMARK    9  A    between atoms: C_16  and  C_17 
ROOT
HETATM    1  N           1     -21.603  -8.055  -3.476  0.00  0.00    -0.344 N 
HETATM    2  C           1     -20.866  -7.739  -4.585  0.00  0.00     0.249 C 
HETATM    3  H           1     -22.586  -7.815  -3.437  0.00  0.00     0.163 HD
HETATM    4  O           1     -19.693  -8.026  -4.632  0.00  0.00    -0.271 OA
ENDROOT
BRANCH   2   5
HETATM    5  C           1     -21.516  -7.033  -5.748  0.00  0.00     0.275 C 
BRANCH   5   6
HETATM    6  C           1     -20.461  -6.261  -6.529  0.00  0.00     0.053 C 
BRANCH   6   7
HETATM    7  C           1     -21.143  -5.334  -7.526  0.00  0.00     0.076 C 
BRANCH   7   8
HETATM    8  S           1     -19.927  -4.167  -8.199  0.00  0.00    -0.173 SA
HETATM    9  C           1     -20.373  -4.398  -9.944  0.00  0.00     0.089 C 
ENDBRANCH   7   8
ENDBRANCH   6   7
ENDBRANCH   5   6
BRANCH   5  10
HETATM   10  N           1     -22.555  -6.079  -5.236  0.00  0.00    -0.066 N 
HETATM   11  H           1     -23.342  -6.021  -5.920  0.00  0.00     0.275 HD
HETATM   12  H           1     -22.918  -6.422  -4.317  0.00  0.00     0.275 HD
HETATM   13  H           1     -22.129  -5.133  -5.113  0.00  0.00     0.275 HD
ENDBRANCH   5  10
ENDBRANCH   2   5
BRANCH   1  14
HETATM   14  C           1     -20.978  -8.734  -2.358  0.00  0.00     0.195 C 
BRANCH  14  15
HETATM   15  C           1     -20.919  -7.793  -1.162  0.00  0.00     0.149 C 
BRANCH  15  16
HETATM   16  C           1     -22.154  -6.925  -1.144  0.00  0.00     0.175 C 
HETATM   17  O           1     -23.105  -7.206  -0.382  0.00  0.00    -0.648 OA
HETATM   18  O           1     -22.225  -5.924  -1.889  0.00  0.00    -0.648 OA
ENDBRANCH  15  16
ENDBRANCH  14  15
BRANCH  14  19
HETATM   19  C           1     -21.785  -9.957  -1.998  0.00  0.00     0.197 C 
HETATM   20  O           1     -22.490 -10.519  -2.864  0.00  0.00    -0.646 OA
HETATM   21  O           1     -21.748 -10.410  -0.834  0.00  0.00    -0.646 OA
ENDBRANCH  14  19
ENDBRANCH   1  14
TORSDOF 9
ENDMDL
MODEL 8
REMARK VINA RESULT:      -4.8      5.847      8.734
REMARK  9 active torsions:
REMARK  status: ('A' for Active; 'I' for Inactive)
REMARK    1  A    between atoms: C_2  and  C_15 
REMARK    2  A    between atoms: C_2  and  C_3 
REMARK    3  A    between atoms: C_3  and  C_10 
REMARK    4  A    between atoms: C_3  and  N_4 
REMARK       I    between atoms: N_4  and  C_5 
REMARK    5  A    between atoms: C_5  and  C_6 
REMARK    6  A    between atoms: C_6  and  C_17 
REMARK    7  A    between atoms: C_6  and  N_18 
REMARK    8  A    between atoms: S_12  and  C_16 
REMARK    9  A    between atoms: C_16  and  C_17 
ROOT
HETATM    1  N           1     -21.345  -8.665  -2.424  0.00  0.00    -0.344 N 
HETATM    2  C           1     -20.331  -8.477  -3.323  0.00  0.00     0.249 C 
HETATM    3  H           1     -22.272  -8.315  -2.626  0.00  0.00     0.163 HD
HETATM    4  O           1     -19.224  -8.896  -3.082  0.00  0.00    -0.271 OA
ENDROOT
BRANCH   2   5
HETATM    5  C           1     -20.595  -7.747  -4.617  0.00  0.00     0.275 C 
BRANCH   5   6
HETATM    6  C           1     -21.702  -6.722  -4.406  0.00  0.00     0.053 C 
BRANCH   6   7
HETATM    7  C           1     -21.850  -5.868  -5.657  0.00  0.00     0.076 C 
BRANCH   7   8
HETATM    8  S           1     -20.333  -4.905  -5.916  0.00  0.00    -0.173 SA
HETATM    9  C           1     -20.017  -5.481  -7.608  0.00  0.00     0.089 C 
ENDBRANCH   7   8
ENDBRANCH   6   7
ENDBRANCH   5   6
BRANCH   5  10
HETATM   10  N           1     -21.018  -8.730  -5.667  0.00  0.00    -0.066 N 
HETATM   11  H           1     -21.207  -9.656  -5.222  0.00  0.00     0.275 HD
HETATM   12  H           1     -21.887  -8.385  -6.136  0.00  0.00     0.275 HD
HETATM   13  H           1     -20.256  -8.833  -6.375  0.00  0.00     0.275 HD
ENDBRANCH   5  10
ENDBRANCH   2   5
BRANCH   1  14
HETATM   14  C           1     -21.090  -9.367  -1.181  0.00  0.00     0.195 C 
BRANCH  14  15
HETATM   15  C           1     -21.209  -8.394  -0.015  0.00  0.00     0.149 C 
BRANCH  15  16
HETATM   16  C           1     -22.532  -7.672  -0.095  0.00  0.00     0.175 C 
HETATM   17  O           1     -22.682  -6.729  -0.903  0.00  0.00    -0.648 OA
HETATM   18  O           1     -23.477  -8.016   0.647  0.00  0.00    -0.648 OA
ENDBRANCH  15  16
ENDBRANCH  14  15
BRANCH  14  19
HETATM   19  C           1     -22.100 -10.477  -1.015  0.00  0.00     0.197 C 
HETATM   20  O           1     -22.104 -11.168   0.026  0.00  0.00    -0.646 OA
HETATM   21  O           1     -22.933 -10.704  -1.918  0.00  0.00    -0.646 OA
ENDBRANCH  14  19
ENDBRANCH   1  14
TORSDOF 9
ENDMDL
MODEL 9
REMARK VINA RESULT:      -4.6      2.455      3.774
REMARK  9 active torsions:
REMARK  status: ('A' for Active; 'I' for Inactive)
REMARK    1  A    between atoms: C_2  and  C_15 
REMARK    2  A    between atoms: C_2  and  C_3 
REMARK    3  A    between atoms: C_3  and  C_10 
REMARK    4  A    between atoms: C_3  and  N_4 
REMARK       I    between atoms: N_4  and  C_5 
REMARK    5  A    between atoms: C_5  and  C_6 
REMARK    6  A    between atoms: C_6  and  C_17 
REMARK    7  A    between atoms: C_6  and  N_18 
REMARK    8  A    between atoms: S_12  and  C_16 
REMARK    9  A    between atoms: C_16  and  C_17 
ROOT
HETATM    1  N           1     -21.289  -5.076  -6.475  0.00  0.00    -0.344 N 
HETATM    2  C           1     -21.155  -6.344  -5.977  0.00  0.00     0.249 C 
HETATM    3  H           1     -21.278  -4.283  -5.847  0.00  0.00     0.163 HD
HETATM    4  O           1     -21.166  -7.291  -6.727  0.00  0.00    -0.271 OA
ENDROOT
BRANCH   2   5
HETATM    5  C           1     -20.992  -6.560  -4.493  0.00  0.00     0.275 C 
BRANCH   5   6
HETATM    6  C           1     -20.749  -8.038  -4.217  0.00  0.00     0.053 C 
BRANCH   6   7
HETATM    7  C           1     -20.497  -8.242  -2.730  0.00  0.00     0.076 C 
BRANCH   7   8
HETATM    8  S           1     -19.334  -9.617  -2.495  0.00  0.00    -0.173 SA
HETATM    9  C           1     -18.442  -9.392  -4.060  0.00  0.00     0.089 C 
ENDBRANCH   7   8
ENDBRANCH   6   7
ENDBRANCH   5   6
BRANCH   5  10
HETATM   10  N           1     -22.239  -6.118  -3.785  0.00  0.00    -0.066 N 
HETATM   11  H           1     -22.702  -5.360  -4.335  0.00  0.00     0.275 HD
HETATM   12  H           1     -22.892  -6.929  -3.693  0.00  0.00     0.275 HD
HETATM   13  H           1     -21.991  -5.758  -2.836  0.00  0.00     0.275 HD
ENDBRANCH   5  10
ENDBRANCH   2   5
BRANCH   1  14
HETATM   14  C           1     -21.445  -4.870  -7.901  0.00  0.00     0.195 C 
BRANCH  14  15
HETATM   15  C           1     -22.354  -3.672  -8.144  0.00  0.00     0.149 C 
BRANCH  15  16
HETATM   16  C           1     -23.385  -4.026  -9.188  0.00  0.00     0.175 C 
HETATM   17  O           1     -23.232  -5.044  -9.898  0.00  0.00    -0.648 OA
HETATM   18  O           1     -24.391  -3.301  -9.344  0.00  0.00    -0.648 OA
ENDBRANCH  15  16
ENDBRANCH  14  15
BRANCH  14  19
HETATM   19  C           1     -20.094  -4.611  -8.522  0.00  0.00     0.197 C 
HETATM   20  O           1     -19.150  -4.197  -7.815  0.00  0.00    -0.646 OA
HETATM   21  O           1     -19.918  -4.810  -9.743  0.00  0.00    -0.646 OA
ENDBRANCH  14  19
ENDBRANCH   1  14
TORSDOF 9
ENDMDL
