MODEL 1
REMARK VINA RESULT:      -6.0      0.000      0.000
REMARK  6 active torsions:
REMARK  status: ('A' for Active; 'I' for Inactive)
REMARK    1  A    between atoms: N_4  and  C_6 
REMARK       I    between atoms: N_4  and  C_18 
REMARK    2  A    between atoms: C_6  and  C_7 
REMARK    3  A    between atoms: N_12  and  C_17 
REMARK    4  A    between atoms: C_15  and  C_16 
REMARK    5  A    between atoms: C_16  and  C_17 
REMARK    6  A    between atoms: C_17  and  C_18 
ROOT
HETATM    1  C           1     -34.379  -1.687 -12.010  0.00  0.00     0.284 C 
ENDROOT
BRANCH   1   2
HETATM    2  N           1     -34.852  -1.444 -10.607  0.00  0.00    -0.066 N 
HETATM    3  H           1     -35.893  -1.350 -10.603  0.00  0.00     0.275 HD
HETATM    4  H           1     -34.421  -0.566 -10.240  0.00  0.00     0.275 HD
HETATM    5  H           1     -34.572  -2.248 -10.001  0.00  0.00     0.275 HD
ENDBRANCH   1   2
BRANCH   1   6
HETATM    6  C           1     -34.215  -3.184 -12.238  0.00  0.00     0.155 C 
BRANCH   6   7
HETATM    7  C           1     -34.749  -3.935 -11.043  0.00  0.00     0.175 C 
HETATM    8  O           1     -35.982  -4.002 -10.845  0.00  0.00    -0.648 OA
HETATM    9  O           1     -33.959  -4.491 -10.250  0.00  0.00    -0.648 OA
ENDBRANCH   6   7
ENDBRANCH   1   6
BRANCH   1  10
HETATM   10  C           1     -35.391  -1.135 -12.984  0.00  0.00     0.249 C 
HETATM   11  N           1     -34.973  -0.508 -14.125  0.00  0.00    -0.345 N 
HETATM   12  H           1     -33.983  -0.412 -14.317  0.00  0.00     0.163 HD
HETATM   13  O           1     -36.573  -1.250 -12.755  0.00  0.00    -0.271 OA
BRANCH  11  14
HETATM   14  C           1     -35.946   0.021 -15.060  0.00  0.00     0.181 C 
HETATM   15  C           1     -35.599   1.468 -15.388  0.00  0.00     0.043 C 
BRANCH  14  16
HETATM   16  C           1     -35.924  -0.801 -16.326  0.00  0.00     0.196 C 
HETATM   17  O           1     -36.896  -0.765 -17.111  0.00  0.00    -0.646 OA
HETATM   18  O           1     -34.935  -1.519 -16.587  0.00  0.00    -0.646 OA
ENDBRANCH  14  16
ENDBRANCH  11  14
ENDBRANCH   1  10
TORSDOF 6
ENDMDL
MODEL 2
REMARK VINA RESULT:      -6.0      1.553      5.482
REMARK  6 active torsions:
REMARK  status: ('A' for Active; 'I' for Inactive)
REMARK    1  A    between atoms: N_4  and  C_6 
REMARK       I    between atoms: N_4  and  C_18 
REMARK    2  A    between atoms: C_6  and  C_7 
REMARK    3  A    between atoms: N_12  and  C_17 
REMARK    4  A    between atoms: C_15  and  C_16 
REMARK    5  A    between atoms: C_16  and  C_17 
REMARK    6  A    between atoms: C_17  and  C_18 
ROOT
HETATM    1  C           1     -36.324   0.176 -13.655  0.00  0.00     0.284 C 
ENDROOT
BRANCH   1   2
HETATM    2  N           1     -35.589   1.119 -14.562  0.00  0.00    -0.066 N 
HETATM    3  H           1     -36.236   1.879 -14.871  0.00  0.00     0.275 HD
HETATM    4  H           1     -35.239   0.599 -15.398  0.00  0.00     0.275 HD
HETATM    5  H           1     -34.781   1.537 -14.048  0.00  0.00     0.275 HD
ENDBRANCH   1   2
BRANCH   1   6
HETATM    6  C           1     -37.629  -0.248 -14.316  0.00  0.00     0.155 C 
BRANCH   6   7
HETATM    7  C           1     -37.620   0.175 -15.764  0.00  0.00     0.175 C 
HETATM    8  O           1     -37.157  -0.592 -16.637  0.00  0.00    -0.648 OA
HETATM    9  O           1     -38.075   1.292 -16.093  0.00  0.00    -0.648 OA
ENDBRANCH   6   7
ENDBRANCH   1   6
BRANCH   1  10
HETATM   10  C           1     -35.469  -1.041 -13.398  0.00  0.00     0.249 C 
HETATM   11  N           1     -35.158  -1.401 -12.115  0.00  0.00    -0.345 N 
HETATM   12  H           1     -35.500  -0.850 -11.338  0.00  0.00     0.163 HD
HETATM   13  O           1     -35.061  -1.699 -14.326  0.00  0.00    -0.271 OA
BRANCH  11  14
HETATM   14  C           1     -34.337  -2.570 -11.869  0.00  0.00     0.181 C 
HETATM   15  C           1     -33.354  -2.271 -10.745  0.00  0.00     0.043 C 
BRANCH  14  16
HETATM   16  C           1     -35.221  -3.728 -11.471  0.00  0.00     0.196 C 
HETATM   17  O           1     -36.224  -3.531 -10.752  0.00  0.00    -0.646 OA
HETATM   18  O           1     -34.948  -4.883 -11.862  0.00  0.00    -0.646 OA
ENDBRANCH  14  16
ENDBRANCH  11  14
ENDBRANCH   1  10
TORSDOF 6
ENDMDL
MODEL 3
REMARK VINA RESULT:      -5.8     10.134     11.066
REMARK  6 active torsions:
REMARK  status: ('A' for Active; 'I' for Inactive)
REMARK    1  A    between atoms: N_4  and  C_6 
REMARK       I    between atoms: N_4  and  C_18 
REMARK    2  A    between atoms: C_6  and  C_7 
REMARK    3  A    between atoms: N_12  and  C_17 
REMARK    4  A    between atoms: C_15  and  C_16 
REMARK    5  A    between atoms: C_16  and  C_17 
REMARK    6  A    between atoms: C_17  and  C_18 
ROOT
HETATM    1  C           1     -29.487  -6.742 -17.578  0.00  0.00     0.284 C 
ENDROOT
BRANCH   1   2
HETATM    2  N           1     -29.398  -8.218 -17.320  0.00  0.00    -0.066 N 
HETATM    3  H           1     -29.489  -8.735 -18.223  0.00  0.00     0.275 HD
HETATM    4  H           1     -30.167  -8.507 -16.675  0.00  0.00     0.275 HD
HETATM    5  H           1     -28.475  -8.439 -16.882  0.00  0.00     0.275 HD
ENDBRANCH   1   2
BRANCH   1   6
HETATM    6  C           1     -29.187  -5.984 -16.292  0.00  0.00     0.155 C 
BRANCH   6   7
HETATM    7  C           1     -27.881  -6.470 -15.715  0.00  0.00     0.175 C 
HETATM    8  O           1     -27.841  -7.542 -15.073  0.00  0.00    -0.648 OA
HETATM    9  O           1     -26.838  -5.800 -15.876  0.00  0.00    -0.648 OA
ENDBRANCH   6   7
ENDBRANCH   1   6
BRANCH   1  10
HETATM   10  C           1     -28.484  -6.357 -18.638  0.00  0.00     0.249 C 
HETATM   11  N           1     -27.693  -7.314 -19.212  0.00  0.00    -0.345 N 
HETATM   12  H           1     -27.779  -8.281 -18.926  0.00  0.00     0.163 HD
HETATM   13  O           1     -28.381  -5.202 -18.980  0.00  0.00    -0.271 OA
BRANCH  11  14
HETATM   14  C           1     -26.729  -6.944 -20.229  0.00  0.00     0.181 C 
HETATM   15  C           1     -25.395  -6.619 -19.571  0.00  0.00     0.043 C 
BRANCH  14  16
HETATM   16  C           1     -26.550  -8.093 -21.192  0.00  0.00     0.196 C 
HETATM   17  O           1     -25.431  -8.309 -21.705  0.00  0.00    -0.646 OA
HETATM   18  O           1     -27.520  -8.827 -21.476  0.00  0.00    -0.646 OA
ENDBRANCH  14  16
ENDBRANCH  11  14
ENDBRANCH   1  10
TORSDOF 6
ENDMDL
MODEL 4
REMARK VINA RESULT:      -5.7     13.061     15.444
REMARK  6 active torsions:
REMARK  status: ('A' for Active; 'I' for Inactive)
REMARK    1  A    between atoms: N_4  and  C_6 
REMARK       I    between atoms: N_4  and  C_18 
REMARK    2  A    between atoms: C_6  and  C_7 
REMARK    3  A    between atoms: N_12  and  C_17 
REMARK    4  A    between atoms: C_15  and  C_16 
REMARK    5  A    between atoms: C_16  and  C_17 
REMARK    6  A    between atoms: C_17  and  C_18 
ROOT
HETATM    1  C           1     -21.774  -3.645 -10.747  0.00  0.00     0.284 C 
ENDROOT
BRANCH   1   2
HETATM    2  N           1     -21.110  -3.378 -12.066  0.00  0.00    -0.066 N 
HETATM    3  H           1     -21.756  -3.651 -12.841  0.00  0.00     0.275 HD
HETATM    4  H           1     -20.230  -3.936 -12.133  0.00  0.00     0.275 HD
HETATM    5  H           1     -20.885  -2.361 -12.142  0.00  0.00     0.275 HD
ENDBRANCH   1   2
BRANCH   1   6
HETATM    6  C           1     -23.079  -4.396 -10.979  0.00  0.00     0.155 C 
BRANCH   6   7
HETATM    7  C           1     -24.196  -3.706 -10.236  0.00  0.00     0.175 C 
HETATM    8  O           1     -25.144  -3.192 -10.867  0.00  0.00    -0.648 OA
HETATM    9  O           1     -24.174  -3.648  -8.987  0.00  0.00    -0.648 OA
ENDBRANCH   6   7
ENDBRANCH   1   6
BRANCH   1  10
HETATM   10  C           1     -20.859  -4.477  -9.883  0.00  0.00     0.249 C 
HETATM   11  N           1     -21.162  -4.685  -8.565  0.00  0.00    -0.345 N 
HETATM   12  H           1     -22.000  -4.279  -8.168  0.00  0.00     0.163 HD
HETATM   13  O           1     -19.858  -4.962 -10.357  0.00  0.00    -0.271 OA
BRANCH  11  14
HETATM   14  C           1     -20.283  -5.485  -7.736  0.00  0.00     0.181 C 
HETATM   15  C           1     -19.233  -4.586  -7.096  0.00  0.00     0.043 C 
BRANCH  14  16
HETATM   16  C           1     -21.091  -6.164  -6.657  0.00  0.00     0.196 C 
HETATM   17  O           1     -20.942  -7.386  -6.440  0.00  0.00    -0.646 OA
HETATM   18  O           1     -21.909  -5.504  -5.981  0.00  0.00    -0.646 OA
ENDBRANCH  14  16
ENDBRANCH  11  14
ENDBRANCH   1  10
TORSDOF 6
ENDMDL
MODEL 5
REMARK VINA RESULT:      -5.6     13.017     14.750
REMARK  6 active torsions:
REMARK  status: ('A' for Active; 'I' for Inactive)
REMARK    1  A    between atoms: N_4  and  C_6 
REMARK       I    between atoms: N_4  and  C_18 
REMARK    2  A    between atoms: C_6  and  C_7 
REMARK    3  A    between atoms: N_12  and  C_17 
REMARK    4  A    between atoms: C_15  and  C_16 
REMARK    5  A    between atoms: C_16  and  C_17 
REMARK    6  A    between atoms: C_17  and  C_18 
ROOT
HETATM    1  C           1     -21.279  -5.748  -6.870  0.00  0.00     0.284 C 
ENDROOT
BRANCH   1   2
HETATM    2  N           1     -19.975  -6.286  -7.381  0.00  0.00    -0.066 N 
HETATM    3  H           1     -19.194  -5.672  -7.056  0.00  0.00     0.275 HD
HETATM    4  H           1     -19.990  -6.305  -8.425  0.00  0.00     0.275 HD
HETATM    5  H           1     -19.832  -7.254  -7.017  0.00  0.00     0.275 HD
ENDBRANCH   1   2
BRANCH   1   6
HETATM    6  C           1     -21.109  -5.296  -5.426  0.00  0.00     0.155 C 
BRANCH   6   7
HETATM    7  C           1     -21.661  -6.352  -4.500  0.00  0.00     0.175 C 
HETATM    8  O           1     -22.008  -6.046  -3.338  0.00  0.00    -0.648 OA
HETATM    9  O           1     -21.772  -7.533  -4.894  0.00  0.00    -0.648 OA
ENDBRANCH   6   7
ENDBRANCH   1   6
BRANCH   1  10
HETATM   10  C           1     -21.706  -4.575  -7.719  0.00  0.00     0.249 C 
HETATM   11  N           1     -22.213  -4.786  -8.972  0.00  0.00    -0.345 N 
HETATM   12  H           1     -22.301  -5.729  -9.331  0.00  0.00     0.163 HD
HETATM   13  O           1     -21.601  -3.450  -7.291  0.00  0.00    -0.271 OA
BRANCH  11  14
HETATM   14  C           1     -22.623  -3.660  -9.788  0.00  0.00     0.181 C 
HETATM   15  C           1     -21.749  -3.592 -11.034  0.00  0.00     0.043 C 
BRANCH  14  16
HETATM   16  C           1     -24.066  -3.834 -10.193  0.00  0.00     0.196 C 
HETATM   17  O           1     -24.665  -2.910 -10.785  0.00  0.00    -0.646 OA
HETATM   18  O           1     -24.663  -4.902  -9.937  0.00  0.00    -0.646 OA
ENDBRANCH  14  16
ENDBRANCH  11  14
ENDBRANCH   1  10
TORSDOF 6
ENDMDL
MODEL 6
REMARK VINA RESULT:      -5.6      1.649      5.282
REMARK  6 active torsions:
REMARK  status: ('A' for Active; 'I' for Inactive)
REMARK    1  A    between atoms: N_4  and  C_6 
REMARK       I    between atoms: N_4  and  C_18 
REMARK    2  A    between atoms: C_6  and  C_7 
REMARK    3  A    between atoms: N_12  and  C_17 
REMARK    4  A    between atoms: C_15  and  C_16 
REMARK    5  A    between atoms: C_16  and  C_17 
REMARK    6  A    between atoms: C_17  and  C_18 
ROOT
HETATM    1  C           1     -35.769   0.436 -13.687  0.00  0.00     0.284 C 
ENDROOT
BRANCH   1   2
HETATM    2  N           1     -34.470   0.608 -14.420  0.00  0.00    -0.066 N 
HETATM    3  H           1     -34.221  -0.287 -14.899  0.00  0.00     0.275 HD
HETATM    4  H           1     -33.717   0.862 -13.742  0.00  0.00     0.275 HD
HETATM    5  H           1     -34.570   1.367 -15.130  0.00  0.00     0.275 HD
ENDBRANCH   1   2
BRANCH   1   6
HETATM    6  C           1     -36.764  -0.289 -14.583  0.00  0.00     0.155 C 
BRANCH   6   7
HETATM    7  C           1     -36.049  -0.827 -15.797  0.00  0.00     0.175 C 
HETATM    8  O           1     -35.259  -1.789 -15.683  0.00  0.00    -0.648 OA
HETATM    9  O           1     -36.244  -0.310 -16.918  0.00  0.00    -0.648 OA
ENDBRANCH   6   7
ENDBRANCH   1   6
BRANCH   1  10
HETATM   10  C           1     -35.535  -0.372 -12.434  0.00  0.00     0.249 C 
HETATM   11  N           1     -35.152  -1.682 -12.526  0.00  0.00    -0.345 N 
HETATM   12  H           1     -35.027  -2.111 -13.434  0.00  0.00     0.163 HD
HETATM   13  O           1     -35.683   0.140 -11.349  0.00  0.00    -0.271 OA
BRANCH  11  14
HETATM   14  C           1     -34.928  -2.458 -11.323  0.00  0.00     0.181 C 
HETATM   15  C           1     -35.367  -3.898 -11.557  0.00  0.00     0.043 C 
BRANCH  14  16
HETATM   16  C           1     -33.459  -2.430 -10.975  0.00  0.00     0.196 C 
HETATM   17  O           1     -32.687  -3.291 -11.449  0.00  0.00    -0.646 OA
HETATM   18  O           1     -33.015  -1.545 -10.212  0.00  0.00    -0.646 OA
ENDBRANCH  14  16
ENDBRANCH  11  14
ENDBRANCH   1  10
TORSDOF 6
ENDMDL
MODEL 7
REMARK VINA RESULT:      -5.3      7.138      8.726
REMARK  6 active torsions:
REMARK  status: ('A' for Active; 'I' for Inactive)
REMARK    1  A    between atoms: N_4  and  C_6 
REMARK       I    between atoms: N_4  and  C_18 
REMARK    2  A    between atoms: C_6  and  C_7 
REMARK    3  A    between atoms: N_12  and  C_17 
REMARK    4  A    between atoms: C_15  and  C_16 
REMARK    5  A    between atoms: C_16  and  C_17 
REMARK    6  A    between atoms: C_17  and  C_18 
ROOT
HETATM    1  C           1     -31.151  -4.335 -16.801  0.00  0.00     0.284 C 
ENDROOT
BRANCH   1   2
HETATM    2  N           1     -30.936  -3.234 -17.799  0.00  0.00    -0.066 N 
HETATM    3  H           1     -29.926  -2.966 -17.808  0.00  0.00     0.275 HD
HETATM    4  H           1     -31.514  -2.405 -17.534  0.00  0.00     0.275 HD
HETATM    5  H           1     -31.218  -3.566 -18.748  0.00  0.00     0.275 HD
ENDBRANCH   1   2
BRANCH   1   6
HETATM    6  C           1     -32.590  -4.827 -16.892  0.00  0.00     0.155 C 
BRANCH   6   7
HETATM    7  C           1     -33.528  -3.716 -16.488  0.00  0.00     0.175 C 
HETATM    8  O           1     -34.214  -3.824 -15.448  0.00  0.00    -0.648 OA
HETATM    9  O           1     -33.620  -2.688 -17.193  0.00  0.00    -0.648 OA
ENDBRANCH   6   7
ENDBRANCH   1   6
BRANCH   1  10
HETATM   10  C           1     -30.208  -5.474 -17.100  0.00  0.00     0.249 C 
HETATM   11  N           1     -28.857  -5.296 -16.973  0.00  0.00    -0.345 N 
HETATM   12  H           1     -28.489  -4.399 -16.679  0.00  0.00     0.163 HD
HETATM   13  O           1     -30.646  -6.544 -17.449  0.00  0.00    -0.271 OA
BRANCH  11  14
HETATM   14  C           1     -27.951  -6.390 -17.259  0.00  0.00     0.181 C 
HETATM   15  C           1     -27.356  -6.205 -18.649  0.00  0.00     0.043 C 
BRANCH  14  16
HETATM   16  C           1     -26.843  -6.405 -16.235  0.00  0.00     0.196 C 
HETATM   17  O           1     -26.013  -5.470 -16.197  0.00  0.00    -0.646 OA
HETATM   18  O           1     -26.754  -7.352 -15.424  0.00  0.00    -0.646 OA
ENDBRANCH  14  16
ENDBRANCH  11  14
ENDBRANCH   1  10
TORSDOF 6
ENDMDL
MODEL 8
REMARK VINA RESULT:      -5.2      1.932      2.386
REMARK  6 active torsions:
REMARK  status: ('A' for Active; 'I' for Inactive)
REMARK    1  A    between atoms: N_4  and  C_6 
REMARK       I    between atoms: N_4  and  C_18 
REMARK    2  A    between atoms: C_6  and  C_7 
REMARK    3  A    between atoms: N_12  and  C_17 
REMARK    4  A    between atoms: C_15  and  C_16 
REMARK    5  A    between atoms: C_16  and  C_17 
REMARK    6  A    between atoms: C_17  and  C_18 
ROOT
HETATM    1  C           1     -33.869  -2.816 -11.474  0.00  0.00     0.284 C 
ENDROOT
BRANCH   1   2
HETATM    2  N           1     -33.628  -1.676 -10.529  0.00  0.00    -0.066 N 
HETATM    3  H           1     -32.599  -1.542 -10.402  0.00  0.00     0.275 HD
HETATM    4  H           1     -34.068  -1.890  -9.605  0.00  0.00     0.275 HD
HETATM    5  H           1     -34.048  -0.804 -10.921  0.00  0.00     0.275 HD
ENDBRANCH   1   2
BRANCH   1   6
HETATM    6  C           1     -34.688  -3.892 -10.773  0.00  0.00     0.155 C 
BRANCH   6   7
HETATM    7  C           1     -33.947  -5.205 -10.828  0.00  0.00     0.175 C 
HETATM    8  O           1     -34.371  -6.190 -10.186  0.00  0.00    -0.648 OA
HETATM    9  O           1     -32.909  -5.309 -11.516  0.00  0.00    -0.648 OA
ENDBRANCH   6   7
ENDBRANCH   1   6
BRANCH   1  10
HETATM   10  C           1     -34.621  -2.316 -12.683  0.00  0.00     0.249 C 
HETATM   11  N           1     -35.258  -1.106 -12.640  0.00  0.00    -0.345 N 
HETATM   12  H           1     -35.227  -0.546 -11.797  0.00  0.00     0.163 HD
HETATM   13  O           1     -34.658  -2.983 -13.690  0.00  0.00    -0.271 OA
BRANCH  11  14
HETATM   14  C           1     -35.980  -0.625 -13.801  0.00  0.00     0.181 C 
HETATM   15  C           1     -37.377  -0.183 -13.383  0.00  0.00     0.043 C 
BRANCH  14  16
HETATM   16  C           1     -35.240   0.545 -14.403  0.00  0.00     0.196 C 
HETATM   17  O           1     -34.136   0.895 -13.933  0.00  0.00    -0.646 OA
HETATM   18  O           1     -35.732   1.164 -15.371  0.00  0.00    -0.646 OA
ENDBRANCH  14  16
ENDBRANCH  11  14
ENDBRANCH   1  10
TORSDOF 6
ENDMDL
MODEL 9
REMARK VINA RESULT:      -5.0     12.679     15.423
REMARK  6 active torsions:
REMARK  status: ('A' for Active; 'I' for Inactive)
REMARK    1  A    between atoms: N_4  and  C_6 
REMARK       I    between atoms: N_4  and  C_18 
REMARK    2  A    between atoms: C_6  and  C_7 
REMARK    3  A    between atoms: N_12  and  C_17 
REMARK    4  A    between atoms: C_15  and  C_16 
REMARK    5  A    between atoms: C_16  and  C_17 
REMARK    6  A    between atoms: C_17  and  C_18 
ROOT
HETATM    1  C           1     -23.472  -4.119  -8.455  0.00  0.00     0.284 C 
ENDROOT
BRANCH   1   2
HETATM    2  N           1     -22.970  -2.821  -9.015  0.00  0.00    -0.066 N 
HETATM    3  H           1     -23.649  -2.059  -8.790  0.00  0.00     0.275 HD
HETATM    4  H           1     -22.870  -2.903 -10.052  0.00  0.00     0.275 HD
HETATM    5  H           1     -22.041  -2.596  -8.593  0.00  0.00     0.275 HD
ENDBRANCH   1   2
BRANCH   1   6
HETATM    6  C           1     -24.040  -4.971  -9.582  0.00  0.00     0.155 C 
BRANCH   6   7
HETATM    7  C           1     -24.136  -4.143 -10.839  0.00  0.00     0.175 C 
HETATM    8  O           1     -23.332  -4.334 -11.778  0.00  0.00    -0.648 OA
HETATM    9  O           1     -25.020  -3.265 -10.944  0.00  0.00    -0.648 OA
ENDBRANCH   6   7
ENDBRANCH   1   6
BRANCH   1  10
HETATM   10  C           1     -22.334  -4.853  -7.790  0.00  0.00     0.249 C 
HETATM   11  N           1     -22.349  -5.060  -6.438  0.00  0.00    -0.345 N 
HETATM   12  H           1     -23.124  -4.721  -5.882  0.00  0.00     0.163 HD
HETATM   13  O           1     -21.408  -5.259  -8.453  0.00  0.00    -0.271 OA
BRANCH  11  14
HETATM   14  C           1     -21.256  -5.766  -5.800  0.00  0.00     0.181 C 
HETATM   15  C           1     -20.233  -4.760  -5.287  0.00  0.00     0.043 C 
BRANCH  14  16
HETATM   16  C           1     -21.788  -6.576  -4.643  0.00  0.00     0.196 C 
HETATM   17  O           1     -21.950  -7.810  -4.766  0.00  0.00    -0.646 OA
HETATM   18  O           1     -22.068  -6.014  -3.562  0.00  0.00    -0.646 OA
ENDBRANCH  14  16
ENDBRANCH  11  14
ENDBRANCH   1  10
TORSDOF 6
ENDMDL
