MODEL 1
REMARK VINA RESULT:      -7.7      0.000      0.000
REMARK  9 active torsions:
REMARK  status: ('A' for Active; 'I' for Inactive)
REMARK    1  A    between atoms: N_4  and  C_7 
REMARK    2  A    between atoms: N_6  and  C_13 
REMARK       I    between atoms: N_6  and  C_9 
REMARK    3  A    between atoms: C_7  and  C_9 
REMARK    4  A    between atoms: C_7  and  C_8 
REMARK    5  A    between atoms: C_8  and  C_14 
REMARK    6  A    between atoms: C_11  and  C_13 
REMARK    7  A    between atoms: C_13  and  C_20 
REMARK    8  A    between atoms: C_20  and  C_29 
REMARK    9  A    between atoms: O_23  and  C_26 
ROOT
HETATM    1  N           1     -21.461  -6.570  -5.956  0.00  0.00    -0.344 N 
HETATM    2  C           1     -20.726  -7.676  -5.623  0.00  0.00     0.249 C 
HETATM    3  H           1     -22.368  -6.419  -5.532  0.00  0.00     0.163 HD
HETATM    4  O           1     -19.643  -7.855  -6.128  0.00  0.00    -0.271 OA
ENDROOT
BRANCH   1   5
HETATM    5  C           1     -20.941  -5.614  -6.913  0.00  0.00     0.189 C 
BRANCH   5   6
HETATM    6  C           1     -19.833  -4.813  -6.273  0.00  0.00     0.197 C 
HETATM    7  O           1     -19.973  -4.368  -5.113  0.00  0.00    -0.646 OA
HETATM    8  O           1     -18.775  -4.596  -6.902  0.00  0.00    -0.646 OA
ENDBRANCH   5   6
BRANCH   5   9
HETATM    9  C           1     -22.058  -4.676  -7.351  0.00  0.00     0.074 C 
BRANCH   9  10
HETATM   10  C           1     -21.989  -4.474  -8.832  0.00  0.00    -0.056 A 
HETATM   11  C           1     -20.755  -4.279  -9.453  0.00  0.00     0.010 A 
HETATM   12  C           1     -20.691  -4.091 -10.834  0.00  0.00     0.037 A 
HETATM   13  C           1     -21.860  -4.098 -11.593  0.00  0.00     0.065 A 
HETATM   14  C           1     -23.094  -4.292 -10.973  0.00  0.00     0.037 A 
HETATM   15  C           1     -23.158  -4.480  -9.593  0.00  0.00     0.010 A 
BRANCH  13  16
HETATM   16  O           1     -21.798  -3.915 -12.935  0.00  0.00    -0.361 OA
HETATM   17  H           1     -22.641  -4.208 -13.317  0.00  0.00     0.217 HD
ENDBRANCH  13  16
ENDBRANCH   9  10
ENDBRANCH   5   9
ENDBRANCH   1   5
BRANCH   2  18
HETATM   18  C           1     -21.268  -8.671  -4.626  0.00  0.00     0.280 C 
BRANCH  18  19
HETATM   19  N           1     -21.102 -10.060  -5.166  0.00  0.00    -0.066 N 
HETATM   20  H           1     -21.540 -10.744  -4.509  0.00  0.00     0.275 HD
HETATM   21  H           1     -21.565 -10.127  -6.100  0.00  0.00     0.275 HD
HETATM   22  H           1     -20.084 -10.275  -5.265  0.00  0.00     0.275 HD
ENDBRANCH  18  19
BRANCH  18  23
HETATM   23  C           1     -20.505  -8.541  -3.314  0.00  0.00     0.101 C 
BRANCH  23  24
HETATM   24  C           1     -21.310  -7.731  -2.346  0.00  0.00     0.028 A 
HETATM   25  N           1     -21.864  -8.222  -1.192  0.00  0.00    -0.355 N 
HETATM   26  C           1     -22.477  -7.200  -0.640  0.00  0.00     0.180 A 
ATOM     27  HN          1     -21.812  -9.177  -0.838  1.00  0.00     0.166 HD
HETATM   28  N           1     -22.340  -6.068  -1.393  0.00  0.00    -0.360 N 
HETATM   29  C           1     -21.592  -6.394  -2.491  0.00  0.00     0.114 A 
HETATM   30  H           1     -22.735  -5.122  -1.169  0.00  0.00     0.166 HD
ENDBRANCH  23  24
ENDBRANCH  18  23
ENDBRANCH   2  18
TORSDOF 9
ENDMDL
MODEL 2
REMARK VINA RESULT:      -7.7     12.063     15.153
REMARK  9 active torsions:
REMARK  status: ('A' for Active; 'I' for Inactive)
REMARK    1  A    between atoms: N_4  and  C_7 
REMARK    2  A    between atoms: N_6  and  C_13 
REMARK       I    between atoms: N_6  and  C_9 
REMARK    3  A    between atoms: C_7  and  C_9 
REMARK    4  A    between atoms: C_7  and  C_8 
REMARK    5  A    between atoms: C_8  and  C_14 
REMARK    6  A    between atoms: C_11  and  C_13 
REMARK    7  A    between atoms: C_13  and  C_20 
REMARK    8  A    between atoms: C_20  and  C_29 
REMARK    9  A    between atoms: O_23  and  C_26 
ROOT
HETATM    1  N           1     -26.085  -6.681 -18.425  0.00  0.00    -0.344 N 
HETATM    2  C           1     -26.326  -6.472 -19.756  0.00  0.00     0.249 C 
HETATM    3  H           1     -25.247  -7.166 -18.133  0.00  0.00     0.163 HD
HETATM    4  O           1     -27.326  -5.891 -20.105  0.00  0.00    -0.271 OA
ENDROOT
BRANCH   1   5
HETATM    5  C           1     -27.029  -6.204 -17.433  0.00  0.00     0.189 C 
BRANCH   5   6
HETATM    6  C           1     -26.511  -6.521 -16.052  0.00  0.00     0.197 C 
HETATM    7  O           1     -25.508  -5.922 -15.607  0.00  0.00    -0.646 OA
HETATM    8  O           1     -27.085  -7.383 -15.352  0.00  0.00    -0.646 OA
ENDBRANCH   5   6
BRANCH   5   9
HETATM    9  C           1     -28.373  -6.889 -17.643  0.00  0.00     0.074 C 
BRANCH   9  10
HETATM   10  C           1     -29.471  -5.877 -17.542  0.00  0.00    -0.056 A 
HETATM   11  C           1     -30.773  -6.287 -17.256  0.00  0.00     0.010 A 
HETATM   12  C           1     -31.797  -5.344 -17.163  0.00  0.00     0.037 A 
HETATM   13  C           1     -31.518  -3.991 -17.356  0.00  0.00     0.065 A 
HETATM   14  C           1     -30.216  -3.581 -17.643  0.00  0.00     0.037 A 
HETATM   15  C           1     -29.193  -4.524 -17.736  0.00  0.00     0.010 A 
BRANCH  13  16
HETATM   16  O           1     -32.512  -3.075 -17.266  0.00  0.00    -0.361 OA
HETATM   17  H           1     -32.120  -2.235 -16.975  0.00  0.00     0.217 HD
ENDBRANCH  13  16
ENDBRANCH   9  10
ENDBRANCH   5   9
ENDBRANCH   1   5
BRANCH   2  18
HETATM   18  C           1     -25.343  -6.969 -20.788  0.00  0.00     0.280 C 
BRANCH  18  19
HETATM   19  N           1     -24.973  -5.843 -21.707  0.00  0.00    -0.066 N 
HETATM   20  H           1     -25.770  -5.172 -21.775  0.00  0.00     0.275 HD
HETATM   21  H           1     -24.132  -5.350 -21.330  0.00  0.00     0.275 HD
HETATM   22  H           1     -24.757  -6.225 -22.656  0.00  0.00     0.275 HD
ENDBRANCH  18  19
BRANCH  18  23
HETATM   23  C           1     -24.093  -7.487 -20.090  0.00  0.00     0.101 C 
BRANCH  23  24
HETATM   24  C           1     -23.234  -8.214 -21.077  0.00  0.00     0.028 A 
HETATM   25  N           1     -21.965  -8.665 -20.822  0.00  0.00    -0.355 N 
HETATM   26  C           1     -21.570  -9.240 -21.934  0.00  0.00     0.180 A 
ATOM     27  HN          1     -21.439  -8.575 -19.952  1.00  0.00     0.166 HD
HETATM   28  N           1     -22.535  -9.177 -22.899  0.00  0.00    -0.360 N 
HETATM   29  C           1     -23.610  -8.522 -22.363  0.00  0.00     0.114 A 
HETATM   30  H           1     -22.466  -9.562 -23.873  0.00  0.00     0.166 HD
ENDBRANCH  23  24
ENDBRANCH  18  23
ENDBRANCH   2  18
TORSDOF 9
ENDMDL
MODEL 3
REMARK VINA RESULT:      -7.5      2.757      7.509
REMARK  9 active torsions:
REMARK  status: ('A' for Active; 'I' for Inactive)
REMARK    1  A    between atoms: N_4  and  C_7 
REMARK    2  A    between atoms: N_6  and  C_13 
REMARK       I    between atoms: N_6  and  C_9 
REMARK    3  A    between atoms: C_7  and  C_9 
REMARK    4  A    between atoms: C_7  and  C_8 
REMARK    5  A    between atoms: C_8  and  C_14 
REMARK    6  A    between atoms: C_11  and  C_13 
REMARK    7  A    between atoms: C_13  and  C_20 
REMARK    8  A    between atoms: C_20  and  C_29 
REMARK    9  A    between atoms: O_23  and  C_26 
ROOT
HETATM    1  N           1     -20.153  -6.705  -6.188  0.00  0.00    -0.344 N 
HETATM    2  C           1     -20.220  -5.339  -6.108  0.00  0.00     0.249 C 
HETATM    3  H           1     -20.158  -7.159  -7.092  0.00  0.00     0.163 HD
HETATM    4  O           1     -20.212  -4.797  -5.028  0.00  0.00    -0.271 OA
ENDROOT
BRANCH   1   5
HETATM    5  C           1     -20.072  -7.499  -4.979  0.00  0.00     0.189 C 
BRANCH   5   6
HETATM    6  C           1     -19.075  -8.615  -5.175  0.00  0.00     0.197 C 
HETATM    7  O           1     -18.740  -9.332  -4.207  0.00  0.00    -0.646 OA
HETATM    8  O           1     -18.584  -8.823  -6.306  0.00  0.00    -0.646 OA
ENDBRANCH   5   6
BRANCH   5   9
HETATM    9  C           1     -21.441  -8.090  -4.668  0.00  0.00     0.074 C 
BRANCH   9  10
HETATM   10  C           1     -21.709  -7.984  -3.200  0.00  0.00    -0.056 A 
HETATM   11  C           1     -21.947  -6.737  -2.622  0.00  0.00     0.010 A 
HETATM   12  C           1     -22.197  -6.637  -1.253  0.00  0.00     0.037 A 
HETATM   13  C           1     -22.209  -7.785  -0.462  0.00  0.00     0.065 A 
HETATM   14  C           1     -21.971  -9.033  -1.039  0.00  0.00     0.037 A 
HETATM   15  C           1     -21.721  -9.132  -2.407  0.00  0.00     0.010 A 
BRANCH  13  16
HETATM   16  O           1     -22.451  -7.689   0.868  0.00  0.00    -0.361 OA
HETATM   17  H           1     -21.710  -8.106   1.338  0.00  0.00     0.217 HD
ENDBRANCH  13  16
ENDBRANCH   9  10
ENDBRANCH   5   9
ENDBRANCH   1   5
BRANCH   2  18
HETATM   18  C           1     -20.304  -4.512  -7.367  0.00  0.00     0.280 C 
BRANCH  18  19
HETATM   19  N           1     -18.923  -4.115  -7.797  0.00  0.00    -0.066 N 
HETATM   20  H           1     -18.684  -4.598  -8.692  0.00  0.00     0.275 HD
HETATM   21  H           1     -18.887  -3.080  -7.938  0.00  0.00     0.275 HD
HETATM   22  H           1     -18.236  -4.390  -7.058  0.00  0.00     0.275 HD
ENDBRANCH  18  19
BRANCH  18  23
HETATM   23  C           1     -20.962  -5.331  -8.469  0.00  0.00     0.101 C 
BRANCH  23  24
HETATM   24  C           1     -22.292  -4.734  -8.810  0.00  0.00     0.028 A 
HETATM   25  N           1     -22.848  -4.733 -10.063  0.00  0.00    -0.355 N 
HETATM   26  C           1     -24.001  -4.120  -9.932  0.00  0.00     0.180 A 
ATOM     27  HN          1     -22.450  -5.126 -10.917  1.00  0.00     0.166 HD
HETATM   28  N           1     -24.212  -3.724  -8.641  0.00  0.00    -0.360 N 
HETATM   29  C           1     -23.123  -4.112  -7.909  0.00  0.00     0.114 A 
HETATM   30  H           1     -25.055  -3.215  -8.278  0.00  0.00     0.166 HD
ENDBRANCH  23  24
ENDBRANCH  18  23
ENDBRANCH   2  18
TORSDOF 9
ENDMDL
MODEL 4
REMARK VINA RESULT:      -7.3      2.603      8.015
REMARK  9 active torsions:
REMARK  status: ('A' for Active; 'I' for Inactive)
REMARK    1  A    between atoms: N_4  and  C_7 
REMARK    2  A    between atoms: N_6  and  C_13 
REMARK       I    between atoms: N_6  and  C_9 
REMARK    3  A    between atoms: C_7  and  C_9 
REMARK    4  A    between atoms: C_7  and  C_8 
REMARK    5  A    between atoms: C_8  and  C_14 
REMARK    6  A    between atoms: C_11  and  C_13 
REMARK    7  A    between atoms: C_13  and  C_20 
REMARK    8  A    between atoms: C_20  and  C_29 
REMARK    9  A    between atoms: O_23  and  C_26 
ROOT
HETATM    1  N           1     -20.891  -6.886  -6.076  0.00  0.00    -0.344 N 
HETATM    2  C           1     -20.897  -5.518  -6.117  0.00  0.00     0.249 C 
HETATM    3  H           1     -21.202  -7.418  -6.879  0.00  0.00     0.163 HD
HETATM    4  O           1     -20.525  -4.883  -5.159  0.00  0.00    -0.271 OA
ENDROOT
BRANCH   1   5
HETATM    5  C           1     -20.439  -7.574  -4.883  0.00  0.00     0.189 C 
BRANCH   5   6
HETATM    6  C           1     -19.231  -8.416  -5.215  0.00  0.00     0.197 C 
HETATM    7  O           1     -18.693  -9.114  -4.329  0.00  0.00    -0.646 OA
HETATM    8  O           1     -18.769  -8.415  -6.377  0.00  0.00    -0.646 OA
ENDBRANCH   5   6
BRANCH   5   9
HETATM    9  C           1     -21.554  -8.469  -4.360  0.00  0.00     0.074 C 
BRANCH   9  10
HETATM   10  C           1     -21.697  -8.279  -2.883  0.00  0.00    -0.056 A 
HETATM   11  C           1     -21.996  -7.017  -2.368  0.00  0.00     0.010 A 
HETATM   12  C           1     -22.129  -6.839  -0.991  0.00  0.00     0.037 A 
HETATM   13  C           1     -21.963  -7.923  -0.129  0.00  0.00     0.065 A 
HETATM   14  C           1     -21.663  -9.184  -0.643  0.00  0.00     0.037 A 
HETATM   15  C           1     -21.530  -9.362  -2.020  0.00  0.00     0.010 A 
BRANCH  13  16
HETATM   16  O           1     -22.091  -7.750   1.209  0.00  0.00    -0.361 OA
HETATM   17  H           1     -22.996  -8.000   1.459  0.00  0.00     0.217 HD
ENDBRANCH  13  16
ENDBRANCH   9  10
ENDBRANCH   5   9
ENDBRANCH   1   5
BRANCH   2  18
HETATM   18  C           1     -21.368  -4.802  -7.360  0.00  0.00     0.280 C 
BRANCH  18  19
HETATM   19  N           1     -21.587  -3.352  -7.048  0.00  0.00    -0.066 N 
HETATM   20  H           1     -20.980  -3.072  -6.246  0.00  0.00     0.275 HD
HETATM   21  H           1     -21.346  -2.776  -7.886  0.00  0.00     0.275 HD
HETATM   22  H           1     -22.590  -3.198  -6.797  0.00  0.00     0.275 HD
ENDBRANCH  18  19
BRANCH  18  23
HETATM   23  C           1     -20.313  -4.933  -8.451  0.00  0.00     0.101 C 
BRANCH  23  24
HETATM   24  C           1     -20.912  -4.561  -9.772  0.00  0.00     0.028 A 
HETATM   25  N           1     -22.231  -4.731 -10.105  0.00  0.00    -0.355 N 
HETATM   26  C           1     -22.339  -4.284 -11.334  0.00  0.00     0.180 A 
ATOM     27  HN          1     -22.971  -5.121  -9.521  1.00  0.00     0.166 HD
HETATM   28  N           1     -21.141  -3.831 -11.809  0.00  0.00    -0.360 N 
HETATM   29  C           1     -20.215  -4.003 -10.817  0.00  0.00     0.114 A 
HETATM   30  H           1     -20.963  -3.426 -12.761  0.00  0.00     0.166 HD
ENDBRANCH  23  24
ENDBRANCH  18  23
ENDBRANCH   2  18
TORSDOF 9
ENDMDL
MODEL 5
REMARK VINA RESULT:      -7.1      2.657      7.841
REMARK  9 active torsions:
REMARK  status: ('A' for Active; 'I' for Inactive)
REMARK    1  A    between atoms: N_4  and  C_7 
REMARK    2  A    between atoms: N_6  and  C_13 
REMARK       I    between atoms: N_6  and  C_9 
REMARK    3  A    between atoms: C_7  and  C_9 
REMARK    4  A    between atoms: C_7  and  C_8 
REMARK    5  A    between atoms: C_8  and  C_14 
REMARK    6  A    between atoms: C_11  and  C_13 
REMARK    7  A    between atoms: C_13  and  C_20 
REMARK    8  A    between atoms: C_20  and  C_29 
REMARK    9  A    between atoms: O_23  and  C_26 
ROOT
HETATM    1  N           1     -21.067  -8.311  -4.479  0.00  0.00    -0.344 N 
HETATM    2  C           1     -20.768  -7.426  -5.480  0.00  0.00     0.249 C 
HETATM    3  H           1     -21.975  -8.283  -4.034  0.00  0.00     0.163 HD
HETATM    4  O           1     -19.683  -7.460  -6.012  0.00  0.00    -0.271 OA
ENDROOT
BRANCH   1   5
HETATM    5  C           1     -20.083  -9.289  -4.057  0.00  0.00     0.189 C 
BRANCH   5   6
HETATM    6  C           1     -20.731 -10.649  -3.970  0.00  0.00     0.197 C 
HETATM    7  O           1     -21.941 -10.785  -4.253  0.00  0.00    -0.646 OA
HETATM    8  O           1     -20.058 -11.641  -3.614  0.00  0.00    -0.646 OA
ENDBRANCH   5   6
BRANCH   5   9
HETATM    9  C           1     -19.535  -8.898  -2.691  0.00  0.00     0.074 C 
BRANCH   9  10
HETATM   10  C           1     -20.669  -8.562  -1.774  0.00  0.00    -0.056 A 
HETATM   11  C           1     -21.189  -9.536  -0.922  0.00  0.00     0.010 A 
HETATM   12  C           1     -22.247  -9.224  -0.068  0.00  0.00     0.037 A 
HETATM   13  C           1     -22.783  -7.936  -0.066  0.00  0.00     0.065 A 
HETATM   14  C           1     -22.264  -6.962  -0.918  0.00  0.00     0.037 A 
HETATM   15  C           1     -21.207  -7.275  -1.772  0.00  0.00     0.010 A 
BRANCH  13  16
HETATM   16  O           1     -23.811  -7.632   0.764  0.00  0.00    -0.361 OA
HETATM   17  H           1     -24.316  -8.446   0.927  0.00  0.00     0.217 HD
ENDBRANCH  13  16
ENDBRANCH   9  10
ENDBRANCH   5   9
ENDBRANCH   1   5
BRANCH   2  18
HETATM   18  C           1     -21.792  -6.409  -5.919  0.00  0.00     0.280 C 
BRANCH  18  19
HETATM   19  N           1     -22.783  -6.190  -4.816  0.00  0.00    -0.066 N 
HETATM   20  H           1     -22.348  -5.604  -4.068  0.00  0.00     0.275 HD
HETATM   21  H           1     -23.624  -5.700  -5.197  0.00  0.00     0.275 HD
HETATM   22  H           1     -23.069  -7.112  -4.416  0.00  0.00     0.275 HD
ENDBRANCH  18  19
BRANCH  18  23
HETATM   23  C           1     -21.095  -5.095  -6.245  0.00  0.00     0.101 C 
BRANCH  23  24
HETATM   24  C           1     -21.601  -4.570  -7.552  0.00  0.00     0.028 A 
HETATM   25  N           1     -22.834  -4.000  -7.738  0.00  0.00    -0.355 N 
HETATM   26  C           1     -22.879  -3.679  -9.011  0.00  0.00     0.180 A 
ATOM     27  HN          1     -23.560  -3.855  -7.038  1.00  0.00     0.166 HD
HETATM   28  N           1     -21.724  -4.021  -9.654  0.00  0.00    -0.360 N 
HETATM   29  C           1     -20.893  -4.593  -8.730  0.00  0.00     0.114 A 
HETATM   30  H           1     -21.511  -3.871 -10.671  0.00  0.00     0.166 HD
ENDBRANCH  23  24
ENDBRANCH  18  23
ENDBRANCH   2  18
TORSDOF 9
ENDMDL
MODEL 6
REMARK VINA RESULT:      -6.6      5.537      8.535
REMARK  9 active torsions:
REMARK  status: ('A' for Active; 'I' for Inactive)
REMARK    1  A    between atoms: N_4  and  C_7 
REMARK    2  A    between atoms: N_6  and  C_13 
REMARK       I    between atoms: N_6  and  C_9 
REMARK    3  A    between atoms: C_7  and  C_9 
REMARK    4  A    between atoms: C_7  and  C_8 
REMARK    5  A    between atoms: C_8  and  C_14 
REMARK    6  A    between atoms: C_11  and  C_13 
REMARK    7  A    between atoms: C_13  and  C_20 
REMARK    8  A    between atoms: C_20  and  C_29 
REMARK    9  A    between atoms: O_23  and  C_26 
ROOT
HETATM    1  N           1     -20.755  -8.544  -2.586  0.00  0.00    -0.344 N 
HETATM    2  C           1     -20.900  -9.562  -3.491  0.00  0.00     0.249 C 
HETATM    3  H           1     -19.843  -8.137  -2.426  0.00  0.00     0.163 HD
HETATM    4  O           1     -21.989 -10.048  -3.684  0.00  0.00    -0.271 OA
ENDROOT
BRANCH   1   5
HETATM    5  C           1     -21.908  -8.050  -1.860  0.00  0.00     0.189 C 
BRANCH   5   6
HETATM    6  C           1     -22.046  -6.564  -2.086  0.00  0.00     0.197 C 
HETATM    7  O           1     -21.864  -6.086  -3.227  0.00  0.00    -0.646 OA
HETATM    8  O           1     -22.342  -5.812  -1.133  0.00  0.00    -0.646 OA
ENDBRANCH   5   6
BRANCH   5   9
HETATM    9  C           1     -21.726  -8.324  -0.373  0.00  0.00     0.074 C 
BRANCH   9  10
HETATM   10  C           1     -22.151  -9.725  -0.067  0.00  0.00    -0.056 A 
HETATM   11  C           1     -21.227 -10.641   0.437  0.00  0.00     0.010 A 
HETATM   12  C           1     -21.623 -11.948   0.722  0.00  0.00     0.037 A 
HETATM   13  C           1     -22.943 -12.339   0.503  0.00  0.00     0.065 A 
HETATM   14  C           1     -23.868 -11.424  -0.001  0.00  0.00     0.037 A 
HETATM   15  C           1     -23.471 -10.118  -0.286  0.00  0.00     0.010 A 
BRANCH  13  16
HETATM   16  O           1     -23.328 -13.608   0.779  0.00  0.00    -0.361 OA
HETATM   17  H           1     -23.866 -13.590   1.588  0.00  0.00     0.217 HD
ENDBRANCH  13  16
ENDBRANCH   9  10
ENDBRANCH   5   9
ENDBRANCH   1   5
BRANCH   2  18
HETATM   18  C           1     -19.699 -10.076  -4.247  0.00  0.00     0.280 C 
BRANCH  18  19
HETATM   19  N           1     -19.995 -10.069  -5.718  0.00  0.00    -0.066 N 
HETATM   20  H           1     -20.760  -9.387  -5.916  0.00  0.00     0.275 HD
HETATM   21  H           1     -19.135  -9.792  -6.243  0.00  0.00     0.275 HD
HETATM   22  H           1     -20.293 -11.025  -6.017  0.00  0.00     0.275 HD
ENDBRANCH  18  19
BRANCH  18  23
HETATM   23  C           1     -18.500  -9.180  -3.966  0.00  0.00     0.101 C 
BRANCH  23  24
HETATM   24  C           1     -17.486  -9.939  -3.168  0.00  0.00     0.028 A 
HETATM   25  N           1     -16.188  -9.539  -2.977  0.00  0.00    -0.355 N 
HETATM   26  C           1     -15.644 -10.472  -2.230  0.00  0.00     0.180 A 
ATOM     27  HN          1     -15.741  -8.696  -3.337  1.00  0.00     0.166 HD
HETATM   28  N           1     -16.540 -11.459  -1.932  0.00  0.00    -0.360 N 
HETATM   29  C           1     -17.727 -11.130  -2.527  0.00  0.00     0.114 A 
HETATM   30  H           1     -16.353 -12.313  -1.352  0.00  0.00     0.166 HD
ENDBRANCH  23  24
ENDBRANCH  18  23
ENDBRANCH   2  18
TORSDOF 9
ENDMDL
MODEL 7
REMARK VINA RESULT:      -6.6      2.469      3.751
REMARK  9 active torsions:
REMARK  status: ('A' for Active; 'I' for Inactive)
REMARK    1  A    between atoms: N_4  and  C_7 
REMARK    2  A    between atoms: N_6  and  C_13 
REMARK       I    between atoms: N_6  and  C_9 
REMARK    3  A    between atoms: C_7  and  C_9 
REMARK    4  A    between atoms: C_7  and  C_8 
REMARK    5  A    between atoms: C_8  and  C_14 
REMARK    6  A    between atoms: C_11  and  C_13 
REMARK    7  A    between atoms: C_13  and  C_20 
REMARK    8  A    between atoms: C_20  and  C_29 
REMARK    9  A    between atoms: O_23  and  C_26 
ROOT
HETATM    1  N           1     -21.721  -8.662  -4.281  0.00  0.00    -0.344 N 
HETATM    2  C           1     -20.857  -9.453  -4.991  0.00  0.00     0.249 C 
HETATM    3  H           1     -22.558  -9.062  -3.878  0.00  0.00     0.163 HD
HETATM    4  O           1     -19.857  -8.976  -5.471  0.00  0.00    -0.271 OA
ENDROOT
BRANCH   1   5
HETATM    5  C           1     -21.435  -7.252  -4.107  0.00  0.00     0.189 C 
BRANCH   5   6
HETATM    6  C           1     -21.584  -6.885  -2.650  0.00  0.00     0.197 C 
HETATM    7  O           1     -20.952  -7.520  -1.778  0.00  0.00    -0.646 OA
HETATM    8  O           1     -22.338  -5.946  -2.316  0.00  0.00    -0.646 OA
ENDBRANCH   5   6
BRANCH   5   9
HETATM    9  C           1     -22.409  -6.430  -4.940  0.00  0.00     0.074 C 
BRANCH   9  10
HETATM   10  C           1     -21.648  -5.609  -5.933  0.00  0.00    -0.056 A 
HETATM   11  C           1     -20.254  -5.590  -5.900  0.00  0.00     0.010 A 
HETATM   12  C           1     -19.544  -4.825  -6.826  0.00  0.00     0.037 A 
HETATM   13  C           1     -20.229  -4.079  -7.784  0.00  0.00     0.065 A 
HETATM   14  C           1     -21.623  -4.097  -7.817  0.00  0.00     0.037 A 
HETATM   15  C           1     -22.332  -4.862  -6.892  0.00  0.00     0.010 A 
BRANCH  13  16
HETATM   16  O           1     -19.540  -3.335  -8.683  0.00  0.00    -0.361 OA
HETATM   17  H           1     -19.979  -3.422  -9.545  0.00  0.00     0.217 HD
ENDBRANCH  13  16
ENDBRANCH   9  10
ENDBRANCH   5   9
ENDBRANCH   1   5
BRANCH   2  18
HETATM   18  C           1     -21.155 -10.922  -5.172  0.00  0.00     0.280 C 
BRANCH  18  19
HETATM   19  N           1     -20.904 -11.310  -6.599  0.00  0.00    -0.066 N 
HETATM   20  H           1     -20.111 -11.988  -6.641  0.00  0.00     0.275 HD
HETATM   21  H           1     -21.764 -11.753  -6.995  0.00  0.00     0.275 HD
HETATM   22  H           1     -20.664 -10.457  -7.154  0.00  0.00     0.275 HD
ENDBRANCH  18  19
BRANCH  18  23
HETATM   23  C           1     -20.253 -11.739  -4.258  0.00  0.00     0.101 C 
BRANCH  23  24
HETATM   24  C           1     -20.481 -11.331  -2.835  0.00  0.00     0.028 A 
HETATM   25  N           1     -21.663 -11.490  -2.159  0.00  0.00    -0.355 N 
HETATM   26  C           1     -21.443 -11.010  -0.957  0.00  0.00     0.180 A 
ATOM     27  HN          1     -22.529 -11.895  -2.514  1.00  0.00     0.166 HD
HETATM   28  N           1     -20.164 -10.547  -0.830  0.00  0.00    -0.360 N 
HETATM   29  C           1     -19.534 -10.747  -2.028  0.00  0.00     0.114 A 
HETATM   30  H           1     -19.741 -10.117   0.028  0.00  0.00     0.166 HD
ENDBRANCH  23  24
ENDBRANCH  18  23
ENDBRANCH   2  18
TORSDOF 9
ENDMDL
MODEL 8
REMARK VINA RESULT:      -6.2      4.249      8.448
REMARK  9 active torsions:
REMARK  status: ('A' for Active; 'I' for Inactive)
REMARK    1  A    between atoms: N_4  and  C_7 
REMARK    2  A    between atoms: N_6  and  C_13 
REMARK       I    between atoms: N_6  and  C_9 
REMARK    3  A    between atoms: C_7  and  C_9 
REMARK    4  A    between atoms: C_7  and  C_8 
REMARK    5  A    between atoms: C_8  and  C_14 
REMARK    6  A    between atoms: C_11  and  C_13 
REMARK    7  A    between atoms: C_13  and  C_20 
REMARK    8  A    between atoms: C_20  and  C_29 
REMARK    9  A    between atoms: O_23  and  C_26 
ROOT
HETATM    1  N           1     -19.287 -10.980  -2.740  0.00  0.00    -0.344 N 
HETATM    2  C           1     -19.226  -9.727  -3.289  0.00  0.00     0.249 C 
HETATM    3  H           1     -19.559 -11.769  -3.312  0.00  0.00     0.163 HD
HETATM    4  O           1     -18.901  -8.784  -2.607  0.00  0.00    -0.271 OA
ENDROOT
BRANCH   1   5
HETATM    5  C           1     -18.962 -11.176  -1.341  0.00  0.00     0.189 C 
BRANCH   5   6
HETATM    6  C           1     -17.772 -12.097  -1.226  0.00  0.00     0.197 C 
HETATM    7  O           1     -16.632 -11.688  -1.536  0.00  0.00    -0.646 OA
HETATM    8  O           1     -17.927 -13.269  -0.819  0.00  0.00    -0.646 OA
ENDBRANCH   5   6
BRANCH   5   9
HETATM    9  C           1     -20.156 -11.794  -0.625  0.00  0.00     0.074 C 
BRANCH   9  10
HETATM   10  C           1     -21.143 -10.723  -0.283  0.00  0.00    -0.056 A 
HETATM   11  C           1     -20.719  -9.566   0.369  0.00  0.00     0.010 A 
HETATM   12  C           1     -21.639  -8.567   0.688  0.00  0.00     0.037 A 
HETATM   13  C           1     -22.984  -8.726   0.354  0.00  0.00     0.065 A 
HETATM   14  C           1     -23.409  -9.884  -0.298  0.00  0.00     0.037 A 
HETATM   15  C           1     -22.488 -10.882  -0.616  0.00  0.00     0.010 A 
BRANCH  13  16
HETATM   16  O           1     -23.878  -7.757   0.665  0.00  0.00    -0.361 OA
HETATM   17  H           1     -23.409  -7.060   1.153  0.00  0.00     0.217 HD
ENDBRANCH  13  16
ENDBRANCH   9  10
ENDBRANCH   5   9
ENDBRANCH   1   5
BRANCH   2  18
HETATM   18  C           1     -19.564  -9.523  -4.745  0.00  0.00     0.280 C 
BRANCH  18  19
HETATM   19  N           1     -19.651 -10.855  -5.429  0.00  0.00    -0.066 N 
HETATM   20  H           1     -18.825 -10.980  -6.056  0.00  0.00     0.275 HD
HETATM   21  H           1     -19.662 -11.614  -4.710  0.00  0.00     0.275 HD
HETATM   22  H           1     -20.529 -10.899  -5.995  0.00  0.00     0.275 HD
ENDBRANCH  18  19
BRANCH  18  23
HETATM   23  C           1     -20.902  -8.805  -4.860  0.00  0.00     0.101 C 
BRANCH  23  24
HETATM   24  C           1     -20.674  -7.384  -5.271  0.00  0.00     0.028 A 
HETATM   25  N           1     -20.001  -6.999  -6.402  0.00  0.00    -0.355 N 
HETATM   26  C           1     -20.025  -5.686  -6.390  0.00  0.00     0.180 A 
ATOM     27  HN          1     -19.572  -7.603  -7.103  1.00  0.00     0.166 HD
HETATM   28  N           1     -20.689  -5.208  -5.295  0.00  0.00    -0.360 N 
HETATM   29  C           1     -21.112  -6.287  -4.568  0.00  0.00     0.114 A 
HETATM   30  H           1     -20.846  -4.199  -5.056  0.00  0.00     0.166 HD
ENDBRANCH  23  24
ENDBRANCH  18  23
ENDBRANCH   2  18
TORSDOF 9
ENDMDL
MODEL 9
REMARK VINA RESULT:      -6.2     12.461     14.869
REMARK  9 active torsions:
REMARK  status: ('A' for Active; 'I' for Inactive)
REMARK    1  A    between atoms: N_4  and  C_7 
REMARK    2  A    between atoms: N_6  and  C_13 
REMARK       I    between atoms: N_6  and  C_9 
REMARK    3  A    between atoms: C_7  and  C_9 
REMARK    4  A    between atoms: C_7  and  C_8 
REMARK    5  A    between atoms: C_8  and  C_14 
REMARK    6  A    between atoms: C_11  and  C_13 
REMARK    7  A    between atoms: C_13  and  C_20 
REMARK    8  A    between atoms: C_20  and  C_29 
REMARK    9  A    between atoms: O_23  and  C_26 
ROOT
HETATM    1  N           1     -27.258  -6.855 -18.234  0.00  0.00    -0.344 N 
HETATM    2  C           1     -27.112  -6.759 -19.592  0.00  0.00     0.249 C 
HETATM    3  H           1     -26.831  -7.622 -17.733  0.00  0.00     0.163 HD
HETATM    4  O           1     -27.621  -5.842 -20.192  0.00  0.00    -0.271 OA
ENDROOT
BRANCH   1   5
HETATM    5  C           1     -28.022  -5.855 -17.515  0.00  0.00     0.189 C 
BRANCH   5   6
HETATM    6  C           1     -27.220  -5.361 -16.336  0.00  0.00     0.197 C 
HETATM    7  O           1     -25.980  -5.519 -16.312  0.00  0.00    -0.646 OA
HETATM    8  O           1     -27.796  -4.792 -15.383  0.00  0.00    -0.646 OA
ENDBRANCH   5   6
BRANCH   5   9
HETATM    9  C           1     -29.325  -6.471 -17.022  0.00  0.00     0.074 C 
BRANCH   9  10
HETATM   10  C           1     -30.436  -5.480 -17.176  0.00  0.00    -0.056 A 
HETATM   11  C           1     -30.181  -4.227 -17.735  0.00  0.00     0.010 A 
HETATM   12  C           1     -31.216  -3.303 -17.878  0.00  0.00     0.037 A 
HETATM   13  C           1     -32.506  -3.632 -17.463  0.00  0.00     0.065 A 
HETATM   14  C           1     -32.761  -4.884 -16.904  0.00  0.00     0.037 A 
HETATM   15  C           1     -31.726  -5.808 -16.761  0.00  0.00     0.010 A 
BRANCH  13  16
HETATM   16  O           1     -33.512  -2.735 -17.602  0.00  0.00    -0.361 OA
HETATM   17  H           1     -33.202  -2.025 -18.189  0.00  0.00     0.217 HD
ENDBRANCH  13  16
ENDBRANCH   9  10
ENDBRANCH   5   9
ENDBRANCH   1   5
BRANCH   2  18
HETATM   18  C           1     -26.316  -7.800 -20.341  0.00  0.00     0.280 C 
BRANCH  18  19
HETATM   19  N           1     -27.204  -8.493 -21.331  0.00  0.00    -0.066 N 
HETATM   20  H           1     -26.966  -8.173 -22.296  0.00  0.00     0.275 HD
HETATM   21  H           1     -27.064  -9.526 -21.260  0.00  0.00     0.275 HD
HETATM   22  H           1     -28.202  -8.262 -21.124  0.00  0.00     0.275 HD
ENDBRANCH  18  19
BRANCH  18  23
HETATM   23  C           1     -25.165  -7.127 -21.076  0.00  0.00     0.101 C 
BRANCH  23  24
HETATM   24  C           1     -23.883  -7.393 -20.349  0.00  0.00     0.028 A 
HETATM   25  N           1     -22.834  -8.115 -20.857  0.00  0.00    -0.355 N 
HETATM   26  C           1     -21.921  -8.109 -19.914  0.00  0.00     0.180 A 
ATOM     27  HN          1     -22.776  -8.561 -21.772  1.00  0.00     0.166 HD
HETATM   28  N           1     -22.338  -7.411 -18.817  0.00  0.00    -0.360 N 
HETATM   29  C           1     -23.596  -6.944 -19.082  0.00  0.00     0.114 A 
HETATM   30  H           1     -21.794  -7.260 -17.933  0.00  0.00     0.166 HD
ENDBRANCH  23  24
ENDBRANCH  18  23
ENDBRANCH   2  18
TORSDOF 9
ENDMDL
