MODEL 1
REMARK VINA RESULT:      -6.1      0.000      0.000
REMARK  10 active torsions:
REMARK  status: ('A' for Active; 'I' for Inactive)
REMARK    1  A    between atoms: C_1  and  C_10 
REMARK    2  A    between atoms: C_1  and  O_18 
REMARK       I    between atoms: C_2  and  N_9 
REMARK    3  A    between atoms: C_2  and  C_20 
REMARK    4  A    between atoms: C_3  and  C_20 
REMARK    5  A    between atoms: C_3  and  C_4 
REMARK    6  A    between atoms: N_9  and  C_10 
REMARK    7  A    between atoms: C_10  and  C_15 
REMARK    8  A    between atoms: O_12  and  P_19 
REMARK    9  A    between atoms: N_13  and  C_20 
REMARK   10  A    between atoms: O_18  and  P_19 
ROOT
HETATM    1  C           1     -21.259  -6.399  -5.920  0.00  0.00     0.249 C 
HETATM    2  H           1     -21.278  -4.332  -5.810  0.00  0.00     0.163 HD
HETATM    3  N           1     -21.342  -5.130  -6.429  0.00  0.00    -0.343 N 
HETATM    4  O           1     -21.335  -7.353  -6.659  0.00  0.00    -0.271 OA
ENDROOT
BRANCH   3   5
HETATM    5  C           1     -21.521  -4.931  -7.853  0.00  0.00     0.210 C 
BRANCH   5   6
HETATM    6  C           1     -22.439  -3.739  -8.087  0.00  0.00     0.217 C 
BRANCH   6   7
HETATM    7  O           1     -23.638  -4.177  -8.667  0.00  0.00    -0.287 OA
BRANCH   7   8
HETATM    8  P           1     -23.761  -3.994 -10.266  0.00  0.00     0.406 P 
HETATM    9  O           1     -23.807  -5.325 -10.912  0.00  0.00    -0.624 OA
HETATM   10  O           1     -24.999  -3.249 -10.584  0.00  0.00    -0.624 OA
BRANCH   8  11
HETATM   11  O           1     -22.484  -3.172 -10.814  0.00  0.00    -0.300 OA
HETATM   12  H           1     -21.829  -3.263 -10.143  0.00  0.00     0.223 HD
ENDBRANCH   8  11
ENDBRANCH   7   8
ENDBRANCH   6   7
ENDBRANCH   5   6
BRANCH   5  13
HETATM   13  C           1     -20.181  -4.669  -8.496  0.00  0.00     0.198 C 
HETATM   14  O           1     -20.068  -4.695  -9.741  0.00  0.00    -0.646 OA
HETATM   15  O           1     -19.183  -4.424  -7.784  0.00  0.00    -0.646 OA
ENDBRANCH   5  13
ENDBRANCH   3   5
BRANCH   1  16
HETATM   16  C           1     -21.073  -6.607  -4.438  0.00  0.00     0.275 C 
BRANCH  16  17
HETATM   17  C           1     -20.888  -8.092  -4.151  0.00  0.00     0.046 C 
BRANCH  17  18
HETATM   18  C           1     -20.386  -8.274  -2.724  0.00  0.00    -0.020 C 
HETATM   19  C           1     -21.432  -9.024  -1.910  0.00  0.00     0.009 C 
HETATM   20  C           1     -19.089  -9.073  -2.741  0.00  0.00     0.009 C 
ENDBRANCH  17  18
ENDBRANCH  16  17
BRANCH  16  21
HETATM   21  N           1     -22.282  -6.104  -3.707  0.00  0.00    -0.066 N 
HETATM   22  H           1     -22.064  -5.183  -3.265  0.00  0.00     0.275 HD
HETATM   23  H           1     -23.072  -5.988  -4.381  0.00  0.00     0.275 HD
HETATM   24  H           1     -22.552  -6.790  -2.967  0.00  0.00     0.275 HD
ENDBRANCH  16  21
ENDBRANCH   1  16
TORSDOF 10
ENDMDL
MODEL 2
REMARK VINA RESULT:      -6.0     13.721     15.284
REMARK  10 active torsions:
REMARK  status: ('A' for Active; 'I' for Inactive)
REMARK    1  A    between atoms: C_1  and  C_10 
REMARK    2  A    between atoms: C_1  and  O_18 
REMARK       I    between atoms: C_2  and  N_9 
REMARK    3  A    between atoms: C_2  and  C_20 
REMARK    4  A    between atoms: C_3  and  C_20 
REMARK    5  A    between atoms: C_3  and  C_4 
REMARK    6  A    between atoms: N_9  and  C_10 
REMARK    7  A    between atoms: C_10  and  C_15 
REMARK    8  A    between atoms: O_12  and  P_19 
REMARK    9  A    between atoms: N_13  and  C_20 
REMARK   10  A    between atoms: O_18  and  P_19 
ROOT
HETATM    1  C           1     -34.693  -4.936 -14.016  0.00  0.00     0.249 C 
HETATM    2  H           1     -33.388  -3.339 -14.187  0.00  0.00     0.163 HD
HETATM    3  N           1     -33.944  -4.013 -14.696  0.00  0.00    -0.343 N 
HETATM    4  O           1     -35.358  -5.741 -14.624  0.00  0.00    -0.271 OA
ENDROOT
BRANCH   3   5
HETATM    5  C           1     -33.949  -4.002 -16.145  0.00  0.00     0.210 C 
BRANCH   5   6
HETATM    6  C           1     -34.666  -2.753 -16.641  0.00  0.00     0.217 C 
BRANCH   6   7
HETATM    7  O           1     -35.016  -1.949 -15.547  0.00  0.00    -0.287 OA
BRANCH   7   8
HETATM    8  P           1     -35.983  -0.697 -15.869  0.00  0.00     0.406 P 
HETATM    9  O           1     -37.216  -0.805 -15.056  0.00  0.00    -0.624 OA
HETATM   10  O           1     -35.284   0.565 -15.539  0.00  0.00    -0.624 OA
BRANCH   8  11
HETATM   11  O           1     -36.369  -0.703 -17.437  0.00  0.00    -0.300 OA
HETATM   12  H           1     -35.567  -0.914 -17.884  0.00  0.00     0.223 HD
ENDBRANCH   8  11
ENDBRANCH   7   8
ENDBRANCH   6   7
ENDBRANCH   5   6
BRANCH   5  13
HETATM   13  C           1     -32.527  -4.001 -16.652  0.00  0.00     0.198 C 
HETATM   14  O           1     -32.164  -3.152 -17.495  0.00  0.00    -0.646 OA
HETATM   15  O           1     -31.712  -4.849 -16.229  0.00  0.00    -0.646 OA
ENDBRANCH   5  13
ENDBRANCH   3   5
BRANCH   1  16
HETATM   16  C           1     -34.689  -4.948 -12.508  0.00  0.00     0.275 C 
BRANCH  16  17
HETATM   17  C           1     -33.528  -4.106 -11.995  0.00  0.00     0.046 C 
BRANCH  17  18
HETATM   18  C           1     -33.960  -3.356 -10.741  0.00  0.00    -0.020 C 
HETATM   19  C           1     -33.248  -2.011 -10.683  0.00  0.00     0.009 C 
HETATM   20  C           1     -35.466  -3.130 -10.780  0.00  0.00     0.009 C 
ENDBRANCH  17  18
ENDBRANCH  16  17
BRANCH  16  21
HETATM   21  N           1     -34.538  -6.358 -12.020  0.00  0.00    -0.066 N 
HETATM   22  H           1     -34.090  -6.354 -11.076  0.00  0.00     0.275 HD
HETATM   23  H           1     -35.479  -6.807 -11.956  0.00  0.00     0.275 HD
HETATM   24  H           1     -33.939  -6.895 -12.687  0.00  0.00     0.275 HD
ENDBRANCH  16  21
ENDBRANCH   1  16
TORSDOF 10
ENDMDL
MODEL 3
REMARK VINA RESULT:      -5.8      1.585      2.251
REMARK  10 active torsions:
REMARK  status: ('A' for Active; 'I' for Inactive)
REMARK    1  A    between atoms: C_1  and  C_10 
REMARK    2  A    between atoms: C_1  and  O_18 
REMARK       I    between atoms: C_2  and  N_9 
REMARK    3  A    between atoms: C_2  and  C_20 
REMARK    4  A    between atoms: C_3  and  C_20 
REMARK    5  A    between atoms: C_3  and  C_4 
REMARK    6  A    between atoms: N_9  and  C_10 
REMARK    7  A    between atoms: C_10  and  C_15 
REMARK    8  A    between atoms: O_12  and  P_19 
REMARK    9  A    between atoms: N_13  and  C_20 
REMARK   10  A    between atoms: O_18  and  P_19 
ROOT
HETATM    1  C           1     -21.068  -7.485  -5.205  0.00  0.00     0.249 C 
HETATM    2  H           1     -22.305  -5.828  -5.116  0.00  0.00     0.163 HD
HETATM    3  N           1     -21.578  -6.293  -5.645  0.00  0.00    -0.343 N 
HETATM    4  O           1     -20.200  -8.040  -5.836  0.00  0.00    -0.271 OA
ENDROOT
BRANCH   3   5
HETATM    5  C           1     -21.077  -5.697  -6.867  0.00  0.00     0.210 C 
BRANCH   5   6
HETATM    6  C           1     -22.165  -4.837  -7.496  0.00  0.00     0.217 C 
BRANCH   6   7
HETATM    7  O           1     -22.045  -4.875  -8.892  0.00  0.00    -0.287 OA
BRANCH   7   8
HETATM    8  P           1     -23.266  -4.229  -9.727  0.00  0.00     0.406 P 
HETATM    9  O           1     -22.739  -3.206 -10.659  0.00  0.00    -0.624 OA
HETATM   10  O           1     -23.954  -5.289 -10.497  0.00  0.00    -0.624 OA
BRANCH   8  11
HETATM   11  O           1     -24.312  -3.542  -8.707  0.00  0.00    -0.300 OA
HETATM   12  H           1     -24.285  -4.078  -7.932  0.00  0.00     0.223 HD
ENDBRANCH   8  11
ENDBRANCH   7   8
ENDBRANCH   6   7
ENDBRANCH   5   6
BRANCH   5  13
HETATM   13  C           1     -19.876  -4.838  -6.552  0.00  0.00     0.198 C 
HETATM   14  O           1     -19.688  -4.431  -5.384  0.00  0.00    -0.646 OA
HETATM   15  O           1     -19.069  -4.535  -7.457  0.00  0.00    -0.646 OA
ENDBRANCH   5  13
ENDBRANCH   3   5
BRANCH   1  16
HETATM   16  C           1     -21.589  -8.105  -3.933  0.00  0.00     0.275 C 
BRANCH  16  17
HETATM   17  C           1     -20.567  -7.922  -2.820  0.00  0.00     0.046 C 
BRANCH  17  18
HETATM   18  C           1     -21.257  -7.355  -1.585  0.00  0.00    -0.020 C 
HETATM   19  C           1     -22.195  -6.229  -2.000  0.00  0.00     0.009 C 
HETATM   20  C           1     -22.057  -8.455  -0.901  0.00  0.00     0.009 C 
ENDBRANCH  17  18
ENDBRANCH  16  17
BRANCH  16  21
HETATM   21  N           1     -21.830  -9.570  -4.154  0.00  0.00    -0.066 N 
HETATM   22  H           1     -21.585 -10.098  -3.286  0.00  0.00     0.275 HD
HETATM   23  H           1     -22.837  -9.726  -4.384  0.00  0.00     0.275 HD
HETATM   24  H           1     -21.234  -9.905  -4.945  0.00  0.00     0.275 HD
ENDBRANCH  16  21
ENDBRANCH   1  16
TORSDOF 10
ENDMDL
MODEL 4
REMARK VINA RESULT:      -5.8     13.960     16.081
REMARK  10 active torsions:
REMARK  status: ('A' for Active; 'I' for Inactive)
REMARK    1  A    between atoms: C_1  and  C_10 
REMARK    2  A    between atoms: C_1  and  O_18 
REMARK       I    between atoms: C_2  and  N_9 
REMARK    3  A    between atoms: C_2  and  C_20 
REMARK    4  A    between atoms: C_3  and  C_20 
REMARK    5  A    between atoms: C_3  and  C_4 
REMARK    6  A    between atoms: N_9  and  C_10 
REMARK    7  A    between atoms: C_10  and  C_15 
REMARK    8  A    between atoms: O_12  and  P_19 
REMARK    9  A    between atoms: N_13  and  C_20 
REMARK   10  A    between atoms: O_18  and  P_19 
ROOT
HETATM    1  C           1     -35.076  -0.362 -13.315  0.00  0.00     0.249 C 
HETATM    2  H           1     -35.870  -2.088 -14.135  0.00  0.00     0.163 HD
HETATM    3  N           1     -35.475  -1.179 -14.339  0.00  0.00    -0.343 N 
HETATM    4  O           1     -34.604   0.724 -13.558  0.00  0.00    -0.271 OA
ENDROOT
BRANCH   3   5
HETATM    5  C           1     -35.333  -0.741 -15.713  0.00  0.00     0.210 C 
BRANCH   5   6
HETATM    6  C           1     -34.869  -1.910 -16.572  0.00  0.00     0.217 C 
BRANCH   6   7
HETATM    7  O           1     -35.039  -3.108 -15.865  0.00  0.00    -0.287 OA
BRANCH   7   8
HETATM    8  P           1     -33.785  -4.125 -15.880  0.00  0.00     0.406 P 
HETATM    9  O           1     -32.827  -3.709 -16.930  0.00  0.00    -0.624 OA
HETATM   10  O           1     -33.112  -4.100 -14.563  0.00  0.00    -0.624 OA
BRANCH   8  11
HETATM   11  O           1     -34.308  -5.621 -16.188  0.00  0.00    -0.300 OA
HETATM   12  H           1     -33.577  -6.180 -15.990  0.00  0.00     0.223 HD
ENDBRANCH   8  11
ENDBRANCH   7   8
ENDBRANCH   6   7
ENDBRANCH   5   6
BRANCH   5  13
HETATM   13  C           1     -36.664  -0.241 -16.221  0.00  0.00     0.198 C 
HETATM   14  O           1     -37.463  -1.033 -16.766  0.00  0.00    -0.646 OA
HETATM   15  O           1     -36.967   0.965 -16.096  0.00  0.00    -0.646 OA
ENDBRANCH   5  13
ENDBRANCH   3   5
BRANCH   1  16
HETATM   16  C           1     -35.223  -0.817 -11.885  0.00  0.00     0.275 C 
BRANCH  16  17
HETATM   17  C           1     -35.240  -2.339 -11.833  0.00  0.00     0.046 C 
BRANCH  17  18
HETATM   18  C           1     -33.863  -2.849 -11.427  0.00  0.00    -0.020 C 
HETATM   19  C           1     -33.268  -1.921 -10.375  0.00  0.00     0.009 C 
HETATM   20  C           1     -33.993  -4.252 -10.849  0.00  0.00     0.009 C 
ENDBRANCH  17  18
ENDBRANCH  16  17
BRANCH  16  21
HETATM   21  N           1     -36.506  -0.283 -11.321  0.00  0.00    -0.066 N 
HETATM   22  H           1     -37.121  -1.080 -11.038  0.00  0.00     0.275 HD
HETATM   23  H           1     -36.299   0.310 -10.486  0.00  0.00     0.275 HD
HETATM   24  H           1     -36.992   0.292 -12.045  0.00  0.00     0.275 HD
ENDBRANCH  16  21
ENDBRANCH   1  16
TORSDOF 10
ENDMDL
MODEL 5
REMARK VINA RESULT:      -5.4      3.709      6.884
REMARK  10 active torsions:
REMARK  status: ('A' for Active; 'I' for Inactive)
REMARK    1  A    between atoms: C_1  and  C_10 
REMARK    2  A    between atoms: C_1  and  O_18 
REMARK       I    between atoms: C_2  and  N_9 
REMARK    3  A    between atoms: C_2  and  C_20 
REMARK    4  A    between atoms: C_3  and  C_20 
REMARK    5  A    between atoms: C_3  and  C_4 
REMARK    6  A    between atoms: N_9  and  C_10 
REMARK    7  A    between atoms: C_10  and  C_15 
REMARK    8  A    between atoms: O_12  and  P_19 
REMARK    9  A    between atoms: N_13  and  C_20 
REMARK   10  A    between atoms: O_18  and  P_19 
ROOT
HETATM    1  C           1     -21.308  -5.822  -5.676  0.00  0.00     0.249 C 
HETATM    2  H           1     -19.902  -7.049  -4.780  0.00  0.00     0.163 HD
HETATM    3  N           1     -20.879  -6.783  -4.800  0.00  0.00    -0.343 N 
HETATM    4  O           1     -22.474  -5.504  -5.700  0.00  0.00    -0.271 OA
ENDROOT
BRANCH   3   5
HETATM    5  C           1     -21.822  -7.417  -3.901  0.00  0.00     0.210 C 
BRANCH   5   6
HETATM    6  C           1     -21.588  -8.922  -3.901  0.00  0.00     0.217 C 
BRANCH   6   7
HETATM    7  O           1     -20.947  -9.297  -5.090  0.00  0.00    -0.287 OA
BRANCH   7   8
HETATM    8  P           1     -19.353  -9.529  -4.993  0.00  0.00     0.406 P 
HETATM    9  O           1     -19.054 -10.971  -5.147  0.00  0.00    -0.624 OA
HETATM   10  O           1     -18.676  -8.768  -6.067  0.00  0.00    -0.624 OA
BRANCH   8  11
HETATM   11  O           1     -18.821  -9.018  -3.556  0.00  0.00    -0.300 OA
HETATM   12  H           1     -18.934  -8.083  -3.572  0.00  0.00     0.223 HD
ENDBRANCH   8  11
ENDBRANCH   7   8
ENDBRANCH   6   7
ENDBRANCH   5   6
BRANCH   5  13
HETATM   13  C           1     -21.626  -6.878  -2.505  0.00  0.00     0.198 C 
HETATM   14  O           1     -20.806  -7.422  -1.733  0.00  0.00    -0.646 OA
HETATM   15  O           1     -22.283  -5.886  -2.120  0.00  0.00    -0.646 OA
ENDBRANCH   5  13
ENDBRANCH   3   5
BRANCH   1  16
HETATM   16  C           1     -20.328  -5.161  -6.612  0.00  0.00     0.275 C 
BRANCH  16  17
HETATM   17  C           1     -21.052  -4.125  -7.461  0.00  0.00     0.046 C 
BRANCH  17  18
HETATM   18  C           1     -21.317  -4.700  -8.847  0.00  0.00    -0.020 C 
HETATM   19  C           1     -22.796  -4.559  -9.182  0.00  0.00     0.009 C 
HETATM   20  C           1     -20.490  -3.941  -9.877  0.00  0.00     0.009 C 
ENDBRANCH  17  18
ENDBRANCH  16  17
BRANCH  16  21
HETATM   21  N           1     -19.713  -6.198  -7.506  0.00  0.00    -0.066 N 
HETATM   22  H           1     -18.684  -6.032  -7.576  0.00  0.00     0.275 HD
HETATM   23  H           1     -19.886  -7.148  -7.106  0.00  0.00     0.275 HD
HETATM   24  H           1     -20.142  -6.136  -8.457  0.00  0.00     0.275 HD
ENDBRANCH  16  21
ENDBRANCH   1  16
TORSDOF 10
ENDMDL
MODEL 6
REMARK VINA RESULT:      -5.4      4.202      6.325
REMARK  10 active torsions:
REMARK  status: ('A' for Active; 'I' for Inactive)
REMARK    1  A    between atoms: C_1  and  C_10 
REMARK    2  A    between atoms: C_1  and  O_18 
REMARK       I    between atoms: C_2  and  N_9 
REMARK    3  A    between atoms: C_2  and  C_20 
REMARK    4  A    between atoms: C_3  and  C_20 
REMARK    5  A    between atoms: C_3  and  C_4 
REMARK    6  A    between atoms: N_9  and  C_10 
REMARK    7  A    between atoms: C_10  and  C_15 
REMARK    8  A    between atoms: O_12  and  P_19 
REMARK    9  A    between atoms: N_13  and  C_20 
REMARK   10  A    between atoms: O_18  and  P_19 
ROOT
HETATM    1  C           1     -20.470 -10.021  -1.491  0.00  0.00     0.249 C 
HETATM    2  H           1     -22.410  -9.330  -1.279  0.00  0.00     0.163 HD
HETATM    3  N           1     -21.487  -9.115  -1.635  0.00  0.00    -0.343 N 
HETATM    4  O           1     -19.368  -9.764  -1.915  0.00  0.00    -0.271 OA
ENDROOT
BRANCH   3   5
HETATM    5  C           1     -21.241  -7.848  -2.295  0.00  0.00     0.210 C 
BRANCH   5   6
HETATM    6  C           1     -21.543  -7.984  -3.782  0.00  0.00     0.217 C 
BRANCH   6   7
HETATM    7  O           1     -20.548  -7.333  -4.524  0.00  0.00    -0.287 OA
BRANCH   7   8
HETATM    8  P           1     -21.059  -6.205  -5.559  0.00  0.00     0.406 P 
HETATM    9  O           1     -20.282  -4.962  -5.356  0.00  0.00    -0.624 OA
HETATM   10  O           1     -20.869  -6.684  -6.946  0.00  0.00    -0.624 OA
BRANCH   8  11
HETATM   11  O           1     -22.626  -5.910  -5.303  0.00  0.00    -0.300 OA
HETATM   12  H           1     -23.007  -6.752  -5.122  0.00  0.00     0.223 HD
ENDBRANCH   8  11
ENDBRANCH   7   8
ENDBRANCH   6   7
ENDBRANCH   5   6
BRANCH   5  13
HETATM   13  C           1     -22.133  -6.788  -1.695  0.00  0.00     0.198 C 
HETATM   14  O           1     -22.713  -7.001  -0.608  0.00  0.00    -0.646 OA
HETATM   15  O           1     -22.291  -5.697  -2.285  0.00  0.00    -0.646 OA
ENDBRANCH   5  13
ENDBRANCH   3   5
BRANCH   1  16
HETATM   16  C           1     -20.725 -11.339  -0.804  0.00  0.00     0.275 C 
BRANCH  16  17
HETATM   17  C           1     -21.659 -11.125   0.379  0.00  0.00     0.046 C 
BRANCH  17  18
HETATM   18  C           1     -22.936 -11.930   0.170  0.00  0.00    -0.020 C 
HETATM   19  C           1     -24.101 -10.980  -0.074  0.00  0.00     0.009 C 
HETATM   20  C           1     -22.767 -12.844  -1.037  0.00  0.00     0.009 C 
ENDBRANCH  17  18
ENDBRANCH  16  17
BRANCH  16  21
HETATM   21  N           1     -19.425 -11.908  -0.318  0.00  0.00    -0.066 N 
HETATM   22  H           1     -19.611 -12.602   0.441  0.00  0.00     0.275 HD
HETATM   23  H           1     -18.934 -12.381  -1.110  0.00  0.00     0.275 HD
HETATM   24  H           1     -18.825 -11.138   0.055  0.00  0.00     0.275 HD
ENDBRANCH  16  21
ENDBRANCH   1  16
TORSDOF 10
ENDMDL
MODEL 7
REMARK VINA RESULT:      -5.3      4.559      7.570
REMARK  10 active torsions:
REMARK  status: ('A' for Active; 'I' for Inactive)
REMARK    1  A    between atoms: C_1  and  C_10 
REMARK    2  A    between atoms: C_1  and  O_18 
REMARK       I    between atoms: C_2  and  N_9 
REMARK    3  A    between atoms: C_2  and  C_20 
REMARK    4  A    between atoms: C_3  and  C_20 
REMARK    5  A    between atoms: C_3  and  C_4 
REMARK    6  A    between atoms: N_9  and  C_10 
REMARK    7  A    between atoms: C_10  and  C_15 
REMARK    8  A    between atoms: O_12  and  P_19 
REMARK    9  A    between atoms: N_13  and  C_20 
REMARK   10  A    between atoms: O_18  and  P_19 
ROOT
HETATM    1  C           1     -20.894  -7.574  -5.223  0.00  0.00     0.249 C 
HETATM    2  H           1     -22.195  -7.883  -3.643  0.00  0.00     0.163 HD
HETATM    3  N           1     -21.380  -8.237  -4.127  0.00  0.00    -0.343 N 
HETATM    4  O           1     -19.921  -7.997  -5.802  0.00  0.00    -0.271 OA
ENDROOT
BRANCH   3   5
HETATM    5  C           1     -20.727  -9.444  -3.662  0.00  0.00     0.210 C 
BRANCH   5   6
HETATM    6  C           1     -20.463  -9.335  -2.166  0.00  0.00     0.217 C 
BRANCH   6   7
HETATM    7  O           1     -20.981  -8.123  -1.687  0.00  0.00    -0.287 OA
BRANCH   7   8
HETATM    8  P           1     -22.019  -8.234  -0.456  0.00  0.00     0.406 P 
HETATM    9  O           1     -21.267  -8.324   0.816  0.00  0.00    -0.624 OA
HETATM   10  O           1     -22.886  -7.035  -0.431  0.00  0.00    -0.624 OA
BRANCH   8  11
HETATM   11  O           1     -22.932  -9.553  -0.638  0.00  0.00    -0.300 OA
HETATM   12  H           1     -22.465 -10.236  -0.188  0.00  0.00     0.223 HD
ENDBRANCH   8  11
ENDBRANCH   7   8
ENDBRANCH   6   7
ENDBRANCH   5   6
BRANCH   5  13
HETATM   13  C           1     -21.619 -10.632  -3.930  0.00  0.00     0.198 C 
HETATM   14  O           1     -21.388 -11.380  -4.906  0.00  0.00    -0.646 OA
HETATM   15  O           1     -22.588 -10.869  -3.177  0.00  0.00    -0.646 OA
ENDBRANCH   5  13
ENDBRANCH   3   5
BRANCH   1  16
HETATM   16  C           1     -21.572  -6.318  -5.707  0.00  0.00     0.275 C 
BRANCH  16  17
HETATM   17  C           1     -20.651  -5.125  -5.488  0.00  0.00     0.046 C 
BRANCH  17  18
HETATM   18  C           1     -20.457  -4.385  -6.806  0.00  0.00    -0.020 C 
HETATM   19  C           1     -19.036  -4.602  -7.306  0.00  0.00     0.009 C 
HETATM   20  C           1     -21.444  -4.918  -7.837  0.00  0.00     0.009 C 
ENDBRANCH  17  18
ENDBRANCH  16  17
BRANCH  16  21
HETATM   21  N           1     -22.847  -6.112  -4.943  0.00  0.00    -0.066 N 
HETATM   22  H           1     -23.642  -6.536  -5.472  0.00  0.00     0.275 HD
HETATM   23  H           1     -22.768  -6.568  -4.007  0.00  0.00     0.275 HD
HETATM   24  H           1     -23.017  -5.088  -4.821  0.00  0.00     0.275 HD
ENDBRANCH  16  21
ENDBRANCH   1  16
TORSDOF 10
ENDMDL
MODEL 8
REMARK VINA RESULT:      -5.3      3.276      5.239
REMARK  10 active torsions:
REMARK  status: ('A' for Active; 'I' for Inactive)
REMARK    1  A    between atoms: C_1  and  C_10 
REMARK    2  A    between atoms: C_1  and  O_18 
REMARK       I    between atoms: C_2  and  N_9 
REMARK    3  A    between atoms: C_2  and  C_20 
REMARK    4  A    between atoms: C_3  and  C_20 
REMARK    5  A    between atoms: C_3  and  C_4 
REMARK    6  A    between atoms: N_9  and  C_10 
REMARK    7  A    between atoms: C_10  and  C_15 
REMARK    8  A    between atoms: O_12  and  P_19 
REMARK    9  A    between atoms: N_13  and  C_20 
REMARK   10  A    between atoms: O_18  and  P_19 
ROOT
HETATM    1  C           1     -20.633  -9.056  -2.229  0.00  0.00     0.249 C 
HETATM    2  H           1     -22.010  -9.376  -3.741  0.00  0.00     0.163 HD
HETATM    3  N           1     -21.324  -8.733  -3.366  0.00  0.00    -0.343 N 
HETATM    4  O           1     -19.814  -8.289  -1.781  0.00  0.00    -0.271 OA
ENDROOT
BRANCH   3   5
HETATM    5  C           1     -21.075  -7.470  -4.032  0.00  0.00     0.210 C 
BRANCH   5   6
HETATM    6  C           1     -21.094  -7.679  -5.540  0.00  0.00     0.217 C 
BRANCH   6   7
HETATM    7  O           1     -19.976  -7.058  -6.114  0.00  0.00    -0.287 OA
BRANCH   7   8
HETATM    8  P           1     -20.263  -5.692  -6.926  0.00  0.00     0.406 P 
HETATM    9  O           1     -19.510  -4.581  -6.302  0.00  0.00    -0.624 OA
HETATM   10  O           1     -19.830  -5.852  -8.332  0.00  0.00    -0.624 OA
BRANCH   8  11
HETATM   11  O           1     -21.843  -5.363  -6.885  0.00  0.00    -0.300 OA
HETATM   12  H           1     -22.148  -5.520  -7.762  0.00  0.00     0.223 HD
ENDBRANCH   8  11
ENDBRANCH   7   8
ENDBRANCH   6   7
ENDBRANCH   5   6
BRANCH   5  13
HETATM   13  C           1     -22.146  -6.479  -3.647  0.00  0.00     0.198 C 
HETATM   14  O           1     -22.164  -5.994  -2.495  0.00  0.00    -0.646 OA
HETATM   15  O           1     -23.016  -6.144  -4.480  0.00  0.00    -0.646 OA
ENDBRANCH   5  13
ENDBRANCH   3   5
BRANCH   1  16
HETATM   16  C           1     -20.892 -10.370  -1.536  0.00  0.00     0.275 C 
BRANCH  16  17
HETATM   17  C           1     -21.529 -10.113  -0.177  0.00  0.00     0.046 C 
BRANCH  17  18
HETATM   18  C           1     -22.930  -9.547  -0.373  0.00  0.00    -0.020 C 
HETATM   19  C           1     -23.962 -10.607  -0.008  0.00  0.00     0.009 C 
HETATM   20  C           1     -23.116  -8.330   0.525  0.00  0.00     0.009 C 
ENDBRANCH  17  18
ENDBRANCH  16  17
BRANCH  16  21
HETATM   21  N           1     -19.595 -11.101  -1.349  0.00  0.00    -0.066 N 
HETATM   22  H           1     -18.951 -10.875  -2.141  0.00  0.00     0.275 HD
HETATM   23  H           1     -19.156 -10.805  -0.448  0.00  0.00     0.275 HD
HETATM   24  H           1     -19.775 -12.130  -1.329  0.00  0.00     0.275 HD
ENDBRANCH  16  21
ENDBRANCH   1  16
TORSDOF 10
ENDMDL
MODEL 9
REMARK VINA RESULT:      -5.2      4.773      8.045
REMARK  10 active torsions:
REMARK  status: ('A' for Active; 'I' for Inactive)
REMARK    1  A    between atoms: C_1  and  C_10 
REMARK    2  A    between atoms: C_1  and  O_18 
REMARK       I    between atoms: C_2  and  N_9 
REMARK    3  A    between atoms: C_2  and  C_20 
REMARK    4  A    between atoms: C_3  and  C_20 
REMARK    5  A    between atoms: C_3  and  C_4 
REMARK    6  A    between atoms: N_9  and  C_10 
REMARK    7  A    between atoms: C_10  and  C_15 
REMARK    8  A    between atoms: O_12  and  P_19 
REMARK    9  A    between atoms: N_13  and  C_20 
REMARK   10  A    between atoms: O_18  and  P_19 
ROOT
HETATM    1  C           1     -21.544  -6.400  -4.794  0.00  0.00     0.249 C 
HETATM    2  H           1     -20.002  -7.000  -3.550  0.00  0.00     0.163 HD
HETATM    3  N           1     -21.005  -6.992  -3.682  0.00  0.00    -0.343 N 
HETATM    4  O           1     -22.742  -6.389  -4.952  0.00  0.00    -0.271 OA
ENDROOT
BRANCH   3   5
HETATM    5  C           1     -21.872  -7.605  -2.696  0.00  0.00     0.210 C 
BRANCH   5   6
HETATM    6  C           1     -21.150  -8.778  -2.046  0.00  0.00     0.217 C 
BRANCH   6   7
HETATM    7  O           1     -21.993  -9.899  -2.037  0.00  0.00    -0.287 OA
BRANCH   7   8
HETATM    8  P           1     -22.343 -10.509  -0.584  0.00  0.00     0.406 P 
HETATM    9  O           1     -22.605 -11.961  -0.710  0.00  0.00    -0.624 OA
HETATM   10  O           1     -21.201 -10.293   0.332  0.00  0.00    -0.624 OA
BRANCH   8  11
HETATM   11  O           1     -23.653  -9.774   0.007  0.00  0.00    -0.300 OA
HETATM   12  H           1     -24.226  -9.665  -0.732  0.00  0.00     0.223 HD
ENDBRANCH   8  11
ENDBRANCH   7   8
ENDBRANCH   6   7
ENDBRANCH   5   6
BRANCH   5  13
HETATM   13  C           1     -22.229  -6.587  -1.640  0.00  0.00     0.198 C 
HETATM   14  O           1     -22.811  -6.949  -0.594  0.00  0.00    -0.646 OA
HETATM   15  O           1     -21.945  -5.382  -1.811  0.00  0.00    -0.646 OA
ENDBRANCH   5  13
ENDBRANCH   3   5
BRANCH   1  16
HETATM   16  C           1     -20.643  -5.762  -5.821  0.00  0.00     0.275 C 
BRANCH  16  17
HETATM   17  C           1     -21.459  -4.828  -6.705  0.00  0.00     0.046 C 
BRANCH  17  18
HETATM   18  C           1     -20.925  -4.884  -8.131  0.00  0.00    -0.020 C 
HETATM   19  C           1     -22.047  -4.558  -9.107  0.00  0.00     0.009 C 
HETATM   20  C           1     -19.803  -3.866  -8.292  0.00  0.00     0.009 C 
ENDBRANCH  17  18
ENDBRANCH  16  17
BRANCH  16  21
HETATM   21  N           1     -20.016  -6.830  -6.667  0.00  0.00    -0.066 N 
HETATM   22  H           1     -20.760  -7.338  -7.196  0.00  0.00     0.275 HD
HETATM   23  H           1     -19.348  -6.392  -7.341  0.00  0.00     0.275 HD
HETATM   24  H           1     -19.503  -7.503  -6.054  0.00  0.00     0.275 HD
ENDBRANCH  16  21
ENDBRANCH   1  16
TORSDOF 10
ENDMDL
