MODEL 1
REMARK VINA RESULT:      -8.9      0.000      0.000
REMARK  8 active torsions:
REMARK  status: ('A' for Active; 'I' for Inactive)
REMARK       I    between atoms: C_1  and  N_2 
REMARK    1  A    between atoms: C_1  and  C_17 
REMARK    2  A    between atoms: N_2  and  C_20 
REMARK    3  A    between atoms: C_3  and  C_31 
REMARK    4  A    between atoms: C_8  and  C_20 
REMARK    5  A    between atoms: N_10  and  C_17 
REMARK    6  A    between atoms: C_17  and  C_31 
REMARK    7  A    between atoms: C_18  and  C_19 
REMARK    8  A    between atoms: C_19  and  C_20 
ROOT
HETATM    1  C           1     -20.246  -5.808  -6.369  0.00  0.00     0.249 C 
HETATM    2  N           1     -19.783  -7.096  -6.371  0.00  0.00    -0.344 N 
HETATM    3  H           1     -19.350  -7.476  -7.203  0.00  0.00     0.163 HD
HETATM    4  O           1     -19.517  -4.904  -6.034  0.00  0.00    -0.271 OA
ENDROOT
BRANCH   2   5
HETATM    5  C           1     -19.914  -7.916  -5.183  0.00  0.00     0.190 C 
BRANCH   5   6
HETATM    6  C           1     -18.791  -8.922  -5.141  0.00  0.00     0.197 C 
HETATM    7  O           1     -18.245  -9.207  -4.053  0.00  0.00    -0.646 OA
HETATM    8  O           1     -18.406  -9.473  -6.195  0.00  0.00    -0.646 OA
ENDBRANCH   5   6
BRANCH   5   9
HETATM    9  C           1     -21.250  -8.645  -5.214  0.00  0.00     0.077 C 
BRANCH   9  10
HETATM   10  C           1     -21.550  -9.198  -3.856  0.00  0.00    -0.028 A 
HETATM   11  C           1     -21.809  -8.440  -2.681  0.00  0.00    -0.002 A 
HETATM   12  C           1     -21.870  -7.063  -2.396  0.00  0.00     0.014 A 
HETATM   13  C           1     -22.038  -9.350  -1.648  0.00  0.00     0.042 A 
HETATM   14  C           1     -22.158  -6.645  -1.092  0.00  0.00     0.001 A 
HETATM   15  C           1     -22.382  -7.575  -0.079  0.00  0.00     0.002 A 
HETATM   16  C           1     -22.327  -8.948  -0.338  0.00  0.00     0.030 A 
HETATM   17  N           1     -21.920 -10.611  -2.186  0.00  0.00    -0.365 N 
HETATM   18  H           1     -22.039 -11.507  -1.651  0.00  0.00     0.165 HD
HETATM   19  C           1     -21.625 -10.531  -3.521  0.00  0.00     0.096 A 
ENDBRANCH   9  10
ENDBRANCH   5   9
ENDBRANCH   2   5
BRANCH   1  20
HETATM   20  C           1     -21.668  -5.516  -6.784  0.00  0.00     0.278 C 
BRANCH  20  21
HETATM   21  N           1     -22.565  -5.602  -5.585  0.00  0.00    -0.066 N 
HETATM   22  H           1     -22.506  -6.561  -5.174  0.00  0.00     0.275 HD
HETATM   23  H           1     -22.263  -4.900  -4.873  0.00  0.00     0.275 HD
HETATM   24  H           1     -23.550  -5.407  -5.872  0.00  0.00     0.275 HD
ENDBRANCH  20  21
BRANCH  20  25
HETATM   25  C           1     -21.746  -4.116  -7.377  0.00  0.00     0.081 C 
BRANCH  25  26
HETATM   26  C           1     -21.748  -4.205  -8.872  0.00  0.00    -0.056 A 
HETATM   27  C           1     -22.943  -4.421  -9.557  0.00  0.00     0.007 A 
HETATM   28  C           1     -22.944  -4.505 -10.949  0.00  0.00     0.001 A 
HETATM   29  C           1     -21.750  -4.371 -11.656  0.00  0.00     0.000 A 
HETATM   30  C           1     -20.554  -4.154 -10.971  0.00  0.00     0.001 A 
HETATM   31  C           1     -20.553  -4.071  -9.579  0.00  0.00     0.007 A 
ENDBRANCH  25  26
ENDBRANCH  20  25
ENDBRANCH   1  20
TORSDOF 8
ENDMDL
MODEL 2
REMARK VINA RESULT:      -8.7      1.416      2.114
REMARK  8 active torsions:
REMARK  status: ('A' for Active; 'I' for Inactive)
REMARK       I    between atoms: C_1  and  N_2 
REMARK    1  A    between atoms: C_1  and  C_17 
REMARK    2  A    between atoms: N_2  and  C_20 
REMARK    3  A    between atoms: C_3  and  C_31 
REMARK    4  A    between atoms: C_8  and  C_20 
REMARK    5  A    between atoms: N_10  and  C_17 
REMARK    6  A    between atoms: C_17  and  C_31 
REMARK    7  A    between atoms: C_18  and  C_19 
REMARK    8  A    between atoms: C_19  and  C_20 
ROOT
HETATM    1  C           1     -20.257  -6.354  -6.664  0.00  0.00     0.249 C 
HETATM    2  N           1     -20.861  -7.445  -6.100  0.00  0.00    -0.344 N 
HETATM    3  H           1     -21.612  -7.916  -6.589  0.00  0.00     0.163 HD
HETATM    4  O           1     -19.294  -6.499  -7.379  0.00  0.00    -0.271 OA
ENDROOT
BRANCH   2   5
HETATM    5  C           1     -20.426  -7.925  -4.803  0.00  0.00     0.190 C 
BRANCH   5   6
HETATM    6  C           1     -19.328  -8.943  -4.987  0.00  0.00     0.197 C 
HETATM    7  O           1     -19.316  -9.674  -6.002  0.00  0.00    -0.646 OA
HETATM    8  O           1     -18.429  -9.056  -4.126  0.00  0.00    -0.646 OA
ENDBRANCH   5   6
BRANCH   5   9
HETATM    9  C           1     -21.601  -8.570  -4.081  0.00  0.00     0.077 C 
BRANCH   9  10
HETATM   10  C           1     -21.773  -7.933  -2.738  0.00  0.00    -0.028 A 
HETATM   11  C           1     -21.523  -8.549  -1.480  0.00  0.00    -0.002 A 
HETATM   12  C           1     -21.079  -9.824  -1.084  0.00  0.00     0.014 A 
HETATM   13  C           1     -21.812  -7.603  -0.495  0.00  0.00     0.042 A 
HETATM   14  C           1     -20.939 -10.109   0.280  0.00  0.00     0.001 A 
HETATM   15  C           1     -21.234  -9.145   1.241  0.00  0.00     0.002 A 
HETATM   16  C           1     -21.677  -7.871   0.873  0.00  0.00     0.030 A 
HETATM   17  N           1     -22.221  -6.458  -1.142  0.00  0.00    -0.365 N 
HETATM   18  H           1     -22.507  -5.568  -0.664  0.00  0.00     0.165 HD
HETATM   19  C           1     -22.201  -6.647  -2.498  0.00  0.00     0.096 A 
ENDBRANCH   9  10
ENDBRANCH   5   9
ENDBRANCH   2   5
BRANCH   1  20
HETATM   20  C           1     -20.794  -4.970  -6.394  0.00  0.00     0.278 C 
BRANCH  20  21
HETATM   21  N           1     -20.212  -4.451  -5.112  0.00  0.00    -0.066 N 
HETATM   22  H           1     -19.585  -3.641  -5.318  0.00  0.00     0.275 HD
HETATM   23  H           1     -20.983  -4.142  -4.479  0.00  0.00     0.275 HD
HETATM   24  H           1     -19.662  -5.208  -4.648  0.00  0.00     0.275 HD
ENDBRANCH  20  21
BRANCH  20  25
HETATM   25  C           1     -20.409  -4.043  -7.538  0.00  0.00     0.081 C 
BRANCH  25  26
HETATM   26  C           1     -21.414  -4.165  -8.641  0.00  0.00    -0.056 A 
HETATM   27  C           1     -22.777  -4.135  -8.349  0.00  0.00     0.007 A 
HETATM   28  C           1     -23.713  -4.249  -9.376  0.00  0.00     0.001 A 
HETATM   29  C           1     -23.285  -4.391 -10.697  0.00  0.00     0.000 A 
HETATM   30  C           1     -21.922  -4.420 -10.989  0.00  0.00     0.001 A 
HETATM   31  C           1     -20.986  -4.307  -9.961  0.00  0.00     0.007 A 
ENDBRANCH  25  26
ENDBRANCH  20  25
ENDBRANCH   1  20
TORSDOF 8
ENDMDL
MODEL 3
REMARK VINA RESULT:      -8.6      1.909      8.079
REMARK  8 active torsions:
REMARK  status: ('A' for Active; 'I' for Inactive)
REMARK       I    between atoms: C_1  and  N_2 
REMARK    1  A    between atoms: C_1  and  C_17 
REMARK    2  A    between atoms: N_2  and  C_20 
REMARK    3  A    between atoms: C_3  and  C_31 
REMARK    4  A    between atoms: C_8  and  C_20 
REMARK    5  A    between atoms: N_10  and  C_17 
REMARK    6  A    between atoms: C_17  and  C_31 
REMARK    7  A    between atoms: C_18  and  C_19 
REMARK    8  A    between atoms: C_19  and  C_20 
ROOT
HETATM    1  C           1     -21.468  -6.725  -3.213  0.00  0.00     0.249 C 
HETATM    2  N           1     -22.362  -6.631  -4.245  0.00  0.00    -0.344 N 
HETATM    3  H           1     -23.346  -6.489  -4.050  0.00  0.00     0.163 HD
HETATM    4  O           1     -20.929  -5.730  -2.788  0.00  0.00    -0.271 OA
ENDROOT
BRANCH   2   5
HETATM    5  C           1     -21.902  -6.735  -5.615  0.00  0.00     0.190 C 
BRANCH   5   6
HETATM    6  C           1     -20.887  -7.847  -5.720  0.00  0.00     0.197 C 
HETATM    7  O           1     -19.665  -7.581  -5.712  0.00  0.00    -0.646 OA
HETATM    8  O           1     -21.266  -9.033  -5.815  0.00  0.00    -0.646 OA
ENDBRANCH   5   6
BRANCH   5   9
HETATM    9  C           1     -21.261  -5.420  -6.037  0.00  0.00     0.077 C 
BRANCH   9  10
HETATM   10  C           1     -22.032  -4.829  -7.174  0.00  0.00    -0.028 A 
HETATM   11  C           1     -21.535  -4.572  -8.482  0.00  0.00    -0.002 A 
HETATM   12  C           1     -20.289  -4.757  -9.109  0.00  0.00     0.014 A 
HETATM   13  C           1     -22.583  -4.021  -9.219  0.00  0.00     0.042 A 
HETATM   14  C           1     -20.135  -4.385 -10.450  0.00  0.00     0.001 A 
HETATM   15  C           1     -21.200  -3.837 -11.163  0.00  0.00     0.002 A 
HETATM   16  C           1     -22.447  -3.644 -10.561  0.00  0.00     0.030 A 
HETATM   17  N           1     -23.673  -3.950  -8.382  0.00  0.00    -0.365 N 
HETATM   18  H           1     -24.617  -3.576  -8.653  0.00  0.00     0.165 HD
HETATM   19  C           1     -23.351  -4.435  -7.142  0.00  0.00     0.096 A 
ENDBRANCH   9  10
ENDBRANCH   5   9
ENDBRANCH   2   5
BRANCH   1  20
HETATM   20  C           1     -21.154  -8.071  -2.605  0.00  0.00     0.278 C 
BRANCH  20  21
HETATM   21  N           1     -19.670  -8.212  -2.446  0.00  0.00    -0.066 N 
HETATM   22  H           1     -19.271  -8.672  -3.295  0.00  0.00     0.275 HD
HETATM   23  H           1     -19.241  -7.267  -2.328  0.00  0.00     0.275 HD
HETATM   24  H           1     -19.464  -8.796  -1.604  0.00  0.00     0.275 HD
ENDBRANCH  20  21
BRANCH  20  25
HETATM   25  C           1     -21.825  -8.182  -1.243  0.00  0.00     0.081 C 
BRANCH  25  26
HETATM   26  C           1     -22.567  -9.479  -1.155  0.00  0.00    -0.056 A 
HETATM   27  C           1     -22.474 -10.408  -2.190  0.00  0.00     0.007 A 
HETATM   28  C           1     -23.166 -11.616  -2.108  0.00  0.00     0.001 A 
HETATM   29  C           1     -23.950 -11.895  -0.989  0.00  0.00     0.000 A 
HETATM   30  C           1     -24.044 -10.966   0.048  0.00  0.00     0.001 A 
HETATM   31  C           1     -23.351  -9.758  -0.035  0.00  0.00     0.007 A 
ENDBRANCH  25  26
ENDBRANCH  20  25
ENDBRANCH   1  20
TORSDOF 8
ENDMDL
MODEL 4
REMARK VINA RESULT:      -8.5      1.731      2.380
REMARK  8 active torsions:
REMARK  status: ('A' for Active; 'I' for Inactive)
REMARK       I    between atoms: C_1  and  N_2 
REMARK    1  A    between atoms: C_1  and  C_17 
REMARK    2  A    between atoms: N_2  and  C_20 
REMARK    3  A    between atoms: C_3  and  C_31 
REMARK    4  A    between atoms: C_8  and  C_20 
REMARK    5  A    between atoms: N_10  and  C_17 
REMARK    6  A    between atoms: C_17  and  C_31 
REMARK    7  A    between atoms: C_18  and  C_19 
REMARK    8  A    between atoms: C_19  and  C_20 
ROOT
HETATM    1  C           1     -20.811  -5.635  -5.628  0.00  0.00     0.249 C 
HETATM    2  N           1     -20.550  -6.942  -5.320  0.00  0.00    -0.344 N 
HETATM    3  H           1     -19.813  -7.439  -5.804  0.00  0.00     0.163 HD
HETATM    4  O           1     -20.241  -4.749  -5.037  0.00  0.00    -0.271 OA
ENDROOT
BRANCH   2   5
HETATM    5  C           1     -21.329  -7.616  -4.299  0.00  0.00     0.190 C 
BRANCH   5   6
HETATM    6  C           1     -21.602  -6.661  -3.164  0.00  0.00     0.197 C 
HETATM    7  O           1     -22.683  -6.034  -3.120  0.00  0.00    -0.646 OA
HETATM    8  O           1     -20.748  -6.497  -2.266  0.00  0.00    -0.646 OA
ENDBRANCH   5   6
BRANCH   5   9
HETATM    9  C           1     -20.551  -8.817  -3.778  0.00  0.00     0.077 C 
BRANCH   9  10
HETATM   10  C           1     -21.499  -9.933  -3.470  0.00  0.00    -0.028 A 
HETATM   11  C           1     -22.221 -10.109  -2.258  0.00  0.00    -0.002 A 
HETATM   12  C           1     -22.300  -9.390  -1.050  0.00  0.00     0.014 A 
HETATM   13  C           1     -22.982 -11.270  -2.398  0.00  0.00     0.042 A 
HETATM   14  C           1     -23.135  -9.856  -0.028  0.00  0.00     0.001 A 
HETATM   15  C           1     -23.883 -11.019  -0.195  0.00  0.00     0.002 A 
HETATM   16  C           1     -23.822 -11.750  -1.385  0.00  0.00     0.030 A 
HETATM   17  N           1     -22.724 -11.774  -3.653  0.00  0.00    -0.365 N 
HETATM   18  H           1     -23.153 -12.646  -4.051  0.00  0.00     0.165 HD
HETATM   19  C           1     -21.829 -10.972  -4.310  0.00  0.00     0.096 A 
ENDBRANCH   9  10
ENDBRANCH   5   9
ENDBRANCH   2   5
BRANCH   1  20
HETATM   20  C           1     -21.813  -5.299  -6.707  0.00  0.00     0.278 C 
BRANCH  20  21
HETATM   21  N           1     -23.180  -5.192  -6.101  0.00  0.00    -0.066 N 
HETATM   22  H           1     -23.126  -4.641  -5.214  0.00  0.00     0.275 HD
HETATM   23  H           1     -23.821  -4.709  -6.770  0.00  0.00     0.275 HD
HETATM   24  H           1     -23.547  -6.148  -5.895  0.00  0.00     0.275 HD
ENDBRANCH  20  21
BRANCH  20  25
HETATM   25  C           1     -21.438  -3.972  -7.353  0.00  0.00     0.081 C 
BRANCH  25  26
HETATM   26  C           1     -21.533  -4.097  -8.842  0.00  0.00    -0.056 A 
HETATM   27  C           1     -22.780  -4.222  -9.453  0.00  0.00     0.007 A 
HETATM   28  C           1     -22.868  -4.338 -10.840  0.00  0.00     0.001 A 
HETATM   29  C           1     -21.708  -4.327 -11.616  0.00  0.00     0.000 A 
HETATM   30  C           1     -20.461  -4.201 -11.005  0.00  0.00     0.001 A 
HETATM   31  C           1     -20.373  -4.085  -9.617  0.00  0.00     0.007 A 
ENDBRANCH  25  26
ENDBRANCH  20  25
ENDBRANCH   1  20
TORSDOF 8
ENDMDL
MODEL 5
REMARK VINA RESULT:      -8.4      2.615      4.318
REMARK  8 active torsions:
REMARK  status: ('A' for Active; 'I' for Inactive)
REMARK       I    between atoms: C_1  and  N_2 
REMARK    1  A    between atoms: C_1  and  C_17 
REMARK    2  A    between atoms: N_2  and  C_20 
REMARK    3  A    between atoms: C_3  and  C_31 
REMARK    4  A    between atoms: C_8  and  C_20 
REMARK    5  A    between atoms: N_10  and  C_17 
REMARK    6  A    between atoms: C_17  and  C_31 
REMARK    7  A    between atoms: C_18  and  C_19 
REMARK    8  A    between atoms: C_19  and  C_20 
ROOT
HETATM    1  C           1     -21.673  -6.261  -4.339  0.00  0.00     0.249 C 
HETATM    2  N           1     -21.408  -6.466  -3.012  0.00  0.00    -0.344 N 
HETATM    3  H           1     -21.232  -5.677  -2.404  0.00  0.00     0.163 HD
HETATM    4  O           1     -22.813  -6.108  -4.711  0.00  0.00    -0.271 OA
ENDROOT
BRANCH   2   5
HETATM    5  C           1     -21.379  -7.814  -2.479  0.00  0.00     0.190 C 
BRANCH   5   6
HETATM    6  C           1     -22.159  -7.860  -1.188  0.00  0.00     0.197 C 
HETATM    7  O           1     -22.719  -6.828  -0.759  0.00  0.00    -0.646 OA
HETATM    8  O           1     -22.247  -8.930  -0.548  0.00  0.00    -0.646 OA
ENDBRANCH   5   6
BRANCH   5   9
HETATM    9  C           1     -19.936  -8.224  -2.216  0.00  0.00     0.077 C 
BRANCH   9  10
HETATM   10  C           1     -19.476  -9.155  -3.292  0.00  0.00    -0.028 A 
HETATM   11  C           1     -18.142  -9.604  -3.501  0.00  0.00    -0.002 A 
HETATM   12  C           1     -16.916  -9.366  -2.851  0.00  0.00     0.014 A 
HETATM   13  C           1     -18.163 -10.454  -4.607  0.00  0.00     0.042 A 
HETATM   14  C           1     -15.756  -9.985  -3.330  0.00  0.00     0.001 A 
HETATM   15  C           1     -15.806 -10.830  -4.437  0.00  0.00     0.002 A 
HETATM   16  C           1     -17.011 -11.082  -5.098  0.00  0.00     0.030 A 
HETATM   17  N           1     -19.465 -10.513  -5.047  0.00  0.00    -0.365 N 
HETATM   18  H           1     -19.797 -11.077  -5.869  0.00  0.00     0.165 HD
HETATM   19  C           1     -20.268  -9.732  -4.260  0.00  0.00     0.096 A 
ENDBRANCH   9  10
ENDBRANCH   5   9
ENDBRANCH   2   5
BRANCH   1  20
HETATM   20  C           1     -20.543  -6.226  -5.339  0.00  0.00     0.278 C 
BRANCH  20  21
HETATM   21  N           1     -20.942  -6.984  -6.570  0.00  0.00    -0.066 N 
HETATM   22  H           1     -21.903  -7.374  -6.442  0.00  0.00     0.275 HD
HETATM   23  H           1     -20.936  -6.340  -7.393  0.00  0.00     0.275 HD
HETATM   24  H           1     -20.268  -7.765  -6.733  0.00  0.00     0.275 HD
ENDBRANCH  20  21
BRANCH  20  25
HETATM   25  C           1     -20.236  -4.781  -5.709  0.00  0.00     0.081 C 
BRANCH  25  26
HETATM   26  C           1     -20.682  -4.519  -7.114  0.00  0.00    -0.056 A 
HETATM   27  C           1     -21.985  -4.091  -7.364  0.00  0.00     0.007 A 
HETATM   28  C           1     -22.400  -3.847  -8.673  0.00  0.00     0.001 A 
HETATM   29  C           1     -21.511  -4.031  -9.732  0.00  0.00     0.000 A 
HETATM   30  C           1     -20.207  -4.459  -9.482  0.00  0.00     0.001 A 
HETATM   31  C           1     -19.793  -4.703  -8.173  0.00  0.00     0.007 A 
ENDBRANCH  25  26
ENDBRANCH  20  25
ENDBRANCH   1  20
TORSDOF 8
ENDMDL
MODEL 6
REMARK VINA RESULT:      -8.3      1.427      2.262
REMARK  8 active torsions:
REMARK  status: ('A' for Active; 'I' for Inactive)
REMARK       I    between atoms: C_1  and  N_2 
REMARK    1  A    between atoms: C_1  and  C_17 
REMARK    2  A    between atoms: N_2  and  C_20 
REMARK    3  A    between atoms: C_3  and  C_31 
REMARK    4  A    between atoms: C_8  and  C_20 
REMARK    5  A    between atoms: N_10  and  C_17 
REMARK    6  A    between atoms: C_17  and  C_31 
REMARK    7  A    between atoms: C_18  and  C_19 
REMARK    8  A    between atoms: C_19  and  C_20 
ROOT
HETATM    1  C           1     -20.355  -6.804  -6.323  0.00  0.00     0.249 C 
HETATM    2  N           1     -20.657  -8.090  -5.965  0.00  0.00    -0.344 N 
HETATM    3  H           1     -21.231  -8.662  -6.571  0.00  0.00     0.163 HD
HETATM    4  O           1     -19.363  -6.575  -6.973  0.00  0.00    -0.271 OA
ENDROOT
BRANCH   2   5
HETATM    5  C           1     -20.155  -8.633  -4.718  0.00  0.00     0.190 C 
BRANCH   5   6
HETATM    6  C           1     -18.805  -9.264  -4.952  0.00  0.00     0.197 C 
HETATM    7  O           1     -17.958  -9.290  -4.032  0.00  0.00    -0.646 OA
HETATM    8  O           1     -18.532  -9.763  -6.065  0.00  0.00    -0.646 OA
ENDBRANCH   5   6
BRANCH   5   9
HETATM    9  C           1     -21.125  -9.684  -4.195  0.00  0.00     0.077 C 
BRANCH   9  10
HETATM   10  C           1     -21.542  -9.333  -2.802  0.00  0.00    -0.028 A 
HETATM   11  C           1     -22.451 -10.064  -1.989  0.00  0.00    -0.002 A 
HETATM   12  C           1     -23.201 -11.241  -2.173  0.00  0.00     0.014 A 
HETATM   13  C           1     -22.552  -9.387  -0.773  0.00  0.00     0.042 A 
HETATM   14  C           1     -24.024 -11.698  -1.136  0.00  0.00     0.001 A 
HETATM   15  C           1     -24.105 -11.001   0.068  0.00  0.00     0.002 A 
HETATM   16  C           1     -23.369  -9.830   0.274  0.00  0.00     0.030 A 
HETATM   17  N           1     -21.729  -8.286  -0.855  0.00  0.00    -0.365 N 
HETATM   18  H           1     -21.593  -7.579  -0.090  0.00  0.00     0.165 HD
HETATM   19  C           1     -21.113  -8.243  -2.078  0.00  0.00     0.096 A 
ENDBRANCH   9  10
ENDBRANCH   5   9
ENDBRANCH   2   5
BRANCH   1  20
HETATM   20  C           1     -21.261  -5.671  -5.904  0.00  0.00     0.278 C 
BRANCH  20  21
HETATM   21  N           1     -21.245  -5.547  -4.410  0.00  0.00    -0.066 N 
HETATM   22  H           1     -21.653  -4.625  -4.133  0.00  0.00     0.275 HD
HETATM   23  H           1     -21.811  -6.317  -3.989  0.00  0.00     0.275 HD
HETATM   24  H           1     -20.260  -5.609  -4.066  0.00  0.00     0.275 HD
ENDBRANCH  20  21
BRANCH  20  25
HETATM   25  C           1     -20.770  -4.372  -6.528  0.00  0.00     0.081 C 
BRANCH  25  26
HETATM   26  C           1     -21.382  -4.205  -7.884  0.00  0.00    -0.056 A 
HETATM   27  C           1     -20.566  -4.094  -9.009  0.00  0.00     0.007 A 
HETATM   28  C           1     -21.137  -3.938 -10.272  0.00  0.00     0.001 A 
HETATM   29  C           1     -22.524  -3.896 -10.410  0.00  0.00     0.000 A 
HETATM   30  C           1     -23.341  -4.008  -9.285  0.00  0.00     0.001 A 
HETATM   31  C           1     -22.770  -4.164  -8.022  0.00  0.00     0.007 A 
ENDBRANCH  25  26
ENDBRANCH  20  25
ENDBRANCH   1  20
TORSDOF 8
ENDMDL
MODEL 7
REMARK VINA RESULT:      -8.2      3.444      6.982
REMARK  8 active torsions:
REMARK  status: ('A' for Active; 'I' for Inactive)
REMARK       I    between atoms: C_1  and  N_2 
REMARK    1  A    between atoms: C_1  and  C_17 
REMARK    2  A    between atoms: N_2  and  C_20 
REMARK    3  A    between atoms: C_3  and  C_31 
REMARK    4  A    between atoms: C_8  and  C_20 
REMARK    5  A    between atoms: N_10  and  C_17 
REMARK    6  A    between atoms: C_17  and  C_31 
REMARK    7  A    between atoms: C_18  and  C_19 
REMARK    8  A    between atoms: C_19  and  C_20 
ROOT
HETATM    1  C           1     -21.172 -10.924  -5.525  0.00  0.00     0.249 C 
HETATM    2  N           1     -20.242 -10.012  -5.107  0.00  0.00    -0.344 N 
HETATM    3  H           1     -19.279 -10.295  -4.976  0.00  0.00     0.163 HD
HETATM    4  O           1     -21.376 -11.080  -6.706  0.00  0.00    -0.271 OA
ENDROOT
BRANCH   2   5
HETATM    5  C           1     -20.636  -8.640  -4.849  0.00  0.00     0.190 C 
BRANCH   5   6
HETATM    6  C           1     -20.238  -7.775  -6.019  0.00  0.00     0.197 C 
HETATM    7  O           1     -21.098  -7.085  -6.608  0.00  0.00    -0.646 OA
HETATM    8  O           1     -19.048  -7.747  -6.399  0.00  0.00    -0.646 OA
ENDBRANCH   5   6
BRANCH   5   9
HETATM    9  C           1     -19.942  -8.142  -3.588  0.00  0.00     0.077 C 
BRANCH   9  10
HETATM   10  C           1     -20.948  -7.508  -2.680  0.00  0.00    -0.028 A 
HETATM   11  C           1     -21.259  -7.920  -1.354  0.00  0.00    -0.002 A 
HETATM   12  C           1     -20.791  -8.947  -0.513  0.00  0.00     0.014 A 
HETATM   13  C           1     -22.247  -7.058  -0.877  0.00  0.00     0.042 A 
HETATM   14  C           1     -21.328  -9.076   0.774  0.00  0.00     0.001 A 
HETATM   15  C           1     -22.314  -8.201   1.224  0.00  0.00     0.002 A 
HETATM   16  C           1     -22.793  -7.173   0.407  0.00  0.00     0.030 A 
HETATM   17  N           1     -22.520  -6.160  -1.883  0.00  0.00    -0.365 N 
HETATM   18  H           1     -23.225  -5.383  -1.821  0.00  0.00     0.165 HD
HETATM   19  C           1     -21.741  -6.423  -2.978  0.00  0.00     0.096 A 
ENDBRANCH   9  10
ENDBRANCH   5   9
ENDBRANCH   2   5
BRANCH   1  20
HETATM   20  C           1     -21.943 -11.735  -4.513  0.00  0.00     0.278 C 
BRANCH  20  21
HETATM   21  N           1     -22.258 -13.083  -5.089  0.00  0.00    -0.066 N 
HETATM   22  H           1     -23.291 -13.244  -5.055  0.00  0.00     0.275 HD
HETATM   23  H           1     -21.933 -13.123  -6.081  0.00  0.00     0.275 HD
HETATM   24  H           1     -21.773 -13.823  -4.533  0.00  0.00     0.275 HD
ENDBRANCH  20  21
BRANCH  20  25
HETATM   25  C           1     -21.105 -11.905  -3.253  0.00  0.00     0.081 C 
BRANCH  25  26
HETATM   26  C           1     -21.998 -11.892  -2.052  0.00  0.00    -0.056 A 
HETATM   27  C           1     -23.180 -11.152  -2.069  0.00  0.00     0.007 A 
HETATM   28  C           1     -24.011 -11.140  -0.949  0.00  0.00     0.001 A 
HETATM   29  C           1     -23.662 -11.870   0.187  0.00  0.00     0.000 A 
HETATM   30  C           1     -22.481 -12.611   0.204  0.00  0.00     0.001 A 
HETATM   31  C           1     -21.649 -12.623  -0.916  0.00  0.00     0.007 A 
ENDBRANCH  25  26
ENDBRANCH  20  25
ENDBRANCH   1  20
TORSDOF 8
ENDMDL
MODEL 8
REMARK VINA RESULT:      -8.2      1.629      2.060
REMARK  8 active torsions:
REMARK  status: ('A' for Active; 'I' for Inactive)
REMARK       I    between atoms: C_1  and  N_2 
REMARK    1  A    between atoms: C_1  and  C_17 
REMARK    2  A    between atoms: N_2  and  C_20 
REMARK    3  A    between atoms: C_3  and  C_31 
REMARK    4  A    between atoms: C_8  and  C_20 
REMARK    5  A    between atoms: N_10  and  C_17 
REMARK    6  A    between atoms: C_17  and  C_31 
REMARK    7  A    between atoms: C_18  and  C_19 
REMARK    8  A    between atoms: C_19  and  C_20 
ROOT
HETATM    1  C           1     -21.279  -7.552  -5.342  0.00  0.00     0.249 C 
HETATM    2  N           1     -20.809  -8.444  -4.417  0.00  0.00    -0.344 N 
HETATM    3  H           1     -21.458  -8.984  -3.859  0.00  0.00     0.163 HD
HETATM    4  O           1     -21.485  -7.910  -6.477  0.00  0.00    -0.271 OA
ENDROOT
BRANCH   2   5
HETATM    5  C           1     -19.380  -8.616  -4.236  0.00  0.00     0.190 C 
BRANCH   5   6
HETATM    6  C           1     -18.856  -9.582  -5.269  0.00  0.00     0.197 C 
HETATM    7  O           1     -17.657  -9.533  -5.620  0.00  0.00    -0.646 OA
HETATM    8  O           1     -19.619 -10.432  -5.775  0.00  0.00    -0.646 OA
ENDBRANCH   5   6
BRANCH   5   9
HETATM    9  C           1     -19.108  -9.165  -2.842  0.00  0.00     0.077 C 
BRANCH   9  10
HETATM   10  C           1     -20.357  -9.782  -2.295  0.00  0.00    -0.028 A 
HETATM   11  C           1     -21.235  -9.195  -1.341  0.00  0.00    -0.002 A 
HETATM   12  C           1     -21.249  -7.971  -0.647  0.00  0.00     0.014 A 
HETATM   13  C           1     -22.265 -10.108  -1.115  0.00  0.00     0.042 A 
HETATM   14  C           1     -22.293  -7.703   0.247  0.00  0.00     0.001 A 
HETATM   15  C           1     -23.309  -8.633   0.454  0.00  0.00     0.002 A 
HETATM   16  C           1     -23.316  -9.856  -0.224  0.00  0.00     0.030 A 
HETATM   17  N           1     -22.013 -11.206  -1.906  0.00  0.00    -0.365 N 
HETATM   18  H           1     -22.618 -12.064  -1.953  0.00  0.00     0.165 HD
HETATM   19  C           1     -20.862 -11.019  -2.624  0.00  0.00     0.096 A 
ENDBRANCH   9  10
ENDBRANCH   5   9
ENDBRANCH   2   5
BRANCH   1  20
HETATM   20  C           1     -21.540  -6.119  -4.944  0.00  0.00     0.278 C 
BRANCH  20  21
HETATM   21  N           1     -21.555  -6.012  -3.448  0.00  0.00    -0.066 N 
HETATM   22  H           1     -21.430  -5.012  -3.170  0.00  0.00     0.275 HD
HETATM   23  H           1     -22.467  -6.363  -3.082  0.00  0.00     0.275 HD
HETATM   24  H           1     -20.775  -6.583  -3.051  0.00  0.00     0.275 HD
ENDBRANCH  20  21
BRANCH  20  25
HETATM   25  C           1     -20.442  -5.227  -5.507  0.00  0.00     0.081 C 
BRANCH  25  26
HETATM   26  C           1     -20.808  -4.798  -6.893  0.00  0.00    -0.056 A 
HETATM   27  C           1     -22.117  -4.415  -7.183  0.00  0.00     0.007 A 
HETATM   28  C           1     -22.458  -4.015  -8.475  0.00  0.00     0.001 A 
HETATM   29  C           1     -21.488  -3.996  -9.477  0.00  0.00     0.000 A 
HETATM   30  C           1     -20.178  -4.378  -9.188  0.00  0.00     0.001 A 
HETATM   31  C           1     -19.838  -4.779  -7.896  0.00  0.00     0.007 A 
ENDBRANCH  25  26
ENDBRANCH  20  25
ENDBRANCH   1  20
TORSDOF 8
ENDMDL
MODEL 9
REMARK VINA RESULT:      -7.9      4.743      6.905
REMARK  8 active torsions:
REMARK  status: ('A' for Active; 'I' for Inactive)
REMARK       I    between atoms: C_1  and  N_2 
REMARK    1  A    between atoms: C_1  and  C_17 
REMARK    2  A    between atoms: N_2  and  C_20 
REMARK    3  A    between atoms: C_3  and  C_31 
REMARK    4  A    between atoms: C_8  and  C_20 
REMARK    5  A    between atoms: N_10  and  C_17 
REMARK    6  A    between atoms: C_17  and  C_31 
REMARK    7  A    between atoms: C_18  and  C_19 
REMARK    8  A    between atoms: C_19  and  C_20 
ROOT
HETATM    1  C           1     -19.982 -11.316  -5.219  0.00  0.00     0.249 C 
HETATM    2  N           1     -18.836 -11.218  -4.477  0.00  0.00    -0.344 N 
HETATM    3  H           1     -18.264 -12.037  -4.319  0.00  0.00     0.163 HD
HETATM    4  O           1     -19.944 -11.147  -6.415  0.00  0.00    -0.271 OA
ENDROOT
BRANCH   2   5
HETATM    5  C           1     -18.442  -9.939  -3.917  0.00  0.00     0.190 C 
BRANCH   5   6
HETATM    6  C           1     -16.945  -9.784  -4.023  0.00  0.00     0.197 C 
HETATM    7  O           1     -16.293  -9.337  -3.055  0.00  0.00    -0.646 OA
HETATM    8  O           1     -16.357 -10.103  -5.079  0.00  0.00    -0.646 OA
ENDBRANCH   5   6
BRANCH   5   9
HETATM    9  C           1     -18.857  -9.878  -2.453  0.00  0.00     0.077 C 
BRANCH   9  10
HETATM   10  C           1     -20.011  -8.938  -2.299  0.00  0.00    -0.028 A 
HETATM   11  C           1     -20.750  -8.705  -1.106  0.00  0.00    -0.002 A 
HETATM   12  C           1     -20.677  -9.210   0.206  0.00  0.00     0.014 A 
HETATM   13  C           1     -21.731  -7.761  -1.408  0.00  0.00     0.042 A 
HETATM   14  C           1     -21.586  -8.754   1.167  0.00  0.00     0.001 A 
HETATM   15  C           1     -22.556  -7.810   0.838  0.00  0.00     0.002 A 
HETATM   16  C           1     -22.648  -7.293  -0.458  0.00  0.00     0.030 A 
HETATM   17  N           1     -21.586  -7.438  -2.739  0.00  0.00    -0.365 N 
HETATM   18  H           1     -22.184  -6.749  -3.259  0.00  0.00     0.165 HD
HETATM   19  C           1     -20.549  -8.144  -3.287  0.00  0.00     0.096 A 
ENDBRANCH   9  10
ENDBRANCH   5   9
ENDBRANCH   2   5
BRANCH   1  20
HETATM   20  C           1     -21.293 -11.636  -4.544  0.00  0.00     0.278 C 
BRANCH  20  21
HETATM   21  N           1     -22.225 -12.264  -5.537  0.00  0.00    -0.066 N 
HETATM   22  H           1     -21.721 -12.414  -6.441  0.00  0.00     0.275 HD
HETATM   23  H           1     -22.560 -13.183  -5.170  0.00  0.00     0.275 HD
HETATM   24  H           1     -23.042 -11.633  -5.696  0.00  0.00     0.275 HD
ENDBRANCH  20  21
BRANCH  20  25
HETATM   25  C           1     -21.050 -12.604  -3.394  0.00  0.00     0.081 C 
BRANCH  25  26
HETATM   26  C           1     -21.917 -12.229  -2.232  0.00  0.00    -0.056 A 
HETATM   27  C           1     -22.952 -11.311  -2.402  0.00  0.00     0.007 A 
HETATM   28  C           1     -23.759 -10.961  -1.320  0.00  0.00     0.001 A 
HETATM   29  C           1     -23.532 -11.533  -0.068  0.00  0.00     0.000 A 
HETATM   30  C           1     -22.496 -12.452   0.103  0.00  0.00     0.001 A 
HETATM   31  C           1     -21.689 -12.801  -0.980  0.00  0.00     0.007 A 
ENDBRANCH  25  26
ENDBRANCH  20  25
ENDBRANCH   1  20
TORSDOF 8
ENDMDL
