MODEL 1
REMARK VINA RESULT:      -6.5      0.000      0.000
REMARK  10 active torsions:
REMARK  status: ('A' for Active; 'I' for Inactive)
REMARK    1  A    between atoms: C_4  and  O_12 
REMARK    2  A    between atoms: C_4  and  C_18 
REMARK    3  A    between atoms: C_5  and  C_20 
REMARK    4  A    between atoms: C_5  and  C_23 
REMARK    5  A    between atoms: C_5  and  N_15 
REMARK    6  A    between atoms: N_7  and  C_8 
REMARK    7  A    between atoms: C_8  and  C_9 
REMARK    8  A    between atoms: C_9  and  C_23 
REMARK    9  A    between atoms: C_17  and  C_18 
REMARK   10  A    between atoms: C_18  and  N_21 
REMARK       I    between atoms: C_20  and  N_21 
ROOT
HETATM    1  C           1     -21.258  -5.825  -6.981  0.00  0.00     0.274 C 
ENDROOT
BRANCH   1   2
HETATM    2  C           1     -21.729  -4.650  -7.802  0.00  0.00     0.249 C 
HETATM    3  O           1     -21.745  -3.543  -7.319  0.00  0.00    -0.271 OA
HETATM    4  N           1     -22.141  -4.839  -9.094  0.00  0.00    -0.343 N 
HETATM    5  H           1     -22.128  -5.767  -9.498  0.00  0.00     0.163 HD
BRANCH   4   6
HETATM    6  C           1     -22.594  -3.711  -9.883  0.00  0.00     0.214 C 
BRANCH   6   7
HETATM    7  C           1     -21.810  -3.656 -11.187  0.00  0.00     0.147 C 
HETATM    8  C           1     -20.417  -4.228 -10.965  0.00  0.00     0.042 C 
BRANCH   7   9
HETATM    9  O           1     -22.476  -4.410 -12.164  0.00  0.00    -0.393 OA
HETATM   10  H           1     -23.391  -4.402 -11.939  0.00  0.00     0.210 HD
ENDBRANCH   7   9
ENDBRANCH   6   7
BRANCH   6  11
HETATM   11  C           1     -24.064  -3.867 -10.185  0.00  0.00     0.199 C 
HETATM   12  O           1     -24.698  -2.927 -10.711  0.00  0.00    -0.646 OA
HETATM   13  O           1     -24.649  -4.938  -9.910  0.00  0.00    -0.646 OA
ENDBRANCH   6  11
ENDBRANCH   4   6
ENDBRANCH   1   2
BRANCH   1  14
HETATM   14  C           1     -21.200  -5.428  -5.511  0.00  0.00     0.044 C 
BRANCH  14  15
HETATM   15  C           1     -21.977  -6.440  -4.681  0.00  0.00     0.030 C 
BRANCH  15  16
HETATM   16  C           1     -21.407  -6.486  -3.269  0.00  0.00     0.248 C 
BRANCH  16  17
HETATM   17  N           1     -22.397  -5.893  -2.311  0.00  0.00    -0.079 N 
HETATM   18  H           1     -22.211  -6.255  -1.348  0.00  0.00     0.274 HD
HETATM   19  H           1     -23.366  -6.156  -2.602  0.00  0.00     0.274 HD
HETATM   20  H           1     -22.305  -4.851  -2.315  0.00  0.00     0.274 HD
ENDBRANCH  16  17
ENDBRANCH  15  16
ENDBRANCH  14  15
ENDBRANCH   1  14
BRANCH   1  21
HETATM   21  N           1     -19.891  -6.239  -7.441  0.00  0.00    -0.067 N 
HETATM   22  H           1     -19.889  -6.344  -8.481  0.00  0.00     0.275 HD
HETATM   23  H           1     -19.196  -5.511  -7.162  0.00  0.00     0.275 HD
HETATM   24  H           1     -19.637  -7.152  -6.999  0.00  0.00     0.257 HD
ENDBRANCH   1  21
TORSDOF 10
ENDMDL
MODEL 2
REMARK VINA RESULT:      -5.3      3.212      6.514
REMARK  10 active torsions:
REMARK  status: ('A' for Active; 'I' for Inactive)
REMARK    1  A    between atoms: C_4  and  O_12 
REMARK    2  A    between atoms: C_4  and  C_18 
REMARK    3  A    between atoms: C_5  and  C_20 
REMARK    4  A    between atoms: C_5  and  C_23 
REMARK    5  A    between atoms: C_5  and  N_15 
REMARK    6  A    between atoms: N_7  and  C_8 
REMARK    7  A    between atoms: C_8  and  C_9 
REMARK    8  A    between atoms: C_9  and  C_23 
REMARK    9  A    between atoms: C_17  and  C_18 
REMARK   10  A    between atoms: C_18  and  N_21 
REMARK       I    between atoms: C_20  and  N_21 
ROOT
HETATM    1  C           1     -20.496  -4.674  -6.483  0.00  0.00     0.274 C 
ENDROOT
BRANCH   1   2
HETATM    2  C           1     -21.335  -5.613  -5.651  0.00  0.00     0.249 C 
HETATM    3  O           1     -22.540  -5.590  -5.745  0.00  0.00    -0.271 OA
HETATM    4  N           1     -20.732  -6.489  -4.790  0.00  0.00    -0.343 N 
HETATM    5  H           1     -19.724  -6.507  -4.711  0.00  0.00     0.163 HD
BRANCH   4   6
HETATM    6  C           1     -21.539  -7.390  -3.990  0.00  0.00     0.214 C 
BRANCH   6   7
HETATM    7  C           1     -20.886  -8.766  -3.964  0.00  0.00     0.147 C 
HETATM    8  C           1     -21.213  -9.507  -5.253  0.00  0.00     0.042 C 
BRANCH   7   9
HETATM    9  O           1     -19.496  -8.621  -3.847  0.00  0.00    -0.393 OA
HETATM   10  H           1     -19.107  -9.350  -4.298  0.00  0.00     0.210 HD
ENDBRANCH   7   9
ENDBRANCH   6   7
BRANCH   6  11
HETATM   11  C           1     -21.644  -6.856  -2.583  0.00  0.00     0.199 C 
HETATM   12  O           1     -22.417  -5.907  -2.331  0.00  0.00    -0.646 OA
HETATM   13  O           1     -20.958  -7.363  -1.669  0.00  0.00    -0.646 OA
ENDBRANCH   6  11
ENDBRANCH   4   6
ENDBRANCH   1   2
BRANCH   1  14
HETATM   14  C           1     -21.401  -3.674  -7.191  0.00  0.00     0.044 C 
BRANCH  14  15
HETATM   15  C           1     -21.517  -4.047  -8.663  0.00  0.00     0.030 C 
BRANCH  15  16
HETATM   16  C           1     -22.940  -3.788  -9.143  0.00  0.00     0.248 C 
BRANCH  16  17
HETATM   17  N           1     -23.905  -4.097  -8.037  0.00  0.00    -0.079 N 
HETATM   18  H           1     -24.877  -3.877  -8.351  0.00  0.00     0.274 HD
HETATM   19  H           1     -23.670  -3.521  -7.198  0.00  0.00     0.274 HD
HETATM   20  H           1     -23.840  -5.112  -7.791  0.00  0.00     0.274 HD
ENDBRANCH  16  17
ENDBRANCH  15  16
ENDBRANCH  14  15
ENDBRANCH   1  14
BRANCH   1  21
HETATM   21  N           1     -19.729  -5.462  -7.504  0.00  0.00    -0.067 N 
HETATM   22  H           1     -18.886  -4.920  -7.802  0.00  0.00     0.275 HD
HETATM   23  H           1     -19.428  -6.371  -7.086  0.00  0.00     0.275 HD
HETATM   24  H           1     -20.338  -5.643  -8.334  0.00  0.00     0.257 HD
ENDBRANCH   1  21
TORSDOF 10
ENDMDL
MODEL 3
REMARK VINA RESULT:      -5.2     18.336     20.079
REMARK  10 active torsions:
REMARK  status: ('A' for Active; 'I' for Inactive)
REMARK    1  A    between atoms: C_4  and  O_12 
REMARK    2  A    between atoms: C_4  and  C_18 
REMARK    3  A    between atoms: C_5  and  C_20 
REMARK    4  A    between atoms: C_5  and  C_23 
REMARK    5  A    between atoms: C_5  and  N_15 
REMARK    6  A    between atoms: N_7  and  C_8 
REMARK    7  A    between atoms: C_8  and  C_9 
REMARK    8  A    between atoms: C_9  and  C_23 
REMARK    9  A    between atoms: C_17  and  C_18 
REMARK   10  A    between atoms: C_18  and  N_21 
REMARK       I    between atoms: C_20  and  N_21 
ROOT
HETATM    1  C           1     -14.062   5.728 -21.784  0.00  0.00     0.274 C 
ENDROOT
BRANCH   1   2
HETATM    2  C           1     -12.658   6.263 -21.641  0.00  0.00     0.249 C 
HETATM    3  O           1     -11.865   6.125 -22.542  0.00  0.00    -0.271 OA
HETATM    4  N           1     -12.282   6.902 -20.490  0.00  0.00    -0.343 N 
HETATM    5  H           1     -12.946   7.016 -19.736  0.00  0.00     0.163 HD
BRANCH   4   6
HETATM    6  C           1     -10.933   7.415 -20.353  0.00  0.00     0.214 C 
BRANCH   6   7
HETATM    7  C           1     -10.960   8.702 -19.540  0.00  0.00     0.147 C 
HETATM    8  C           1     -12.404   9.082 -19.241  0.00  0.00     0.042 C 
BRANCH   7   9
HETATM    9  O           1     -10.268   8.508 -18.336  0.00  0.00    -0.393 OA
HETATM   10  H           1     -10.335   9.312 -17.850  0.00  0.00     0.210 HD
ENDBRANCH   7   9
ENDBRANCH   6   7
BRANCH   6  11
HETATM   11  C           1     -10.076   6.392 -19.649  0.00  0.00     0.199 C 
HETATM   12  O           1      -8.880   6.243 -19.981  0.00  0.00    -0.646 OA
HETATM   13  O           1     -10.562   5.694 -18.732  0.00  0.00    -0.646 OA
ENDBRANCH   6  11
ENDBRANCH   4   6
ENDBRANCH   1   2
BRANCH   1  14
HETATM   14  C           1     -14.010   4.238 -22.097  0.00  0.00     0.044 C 
BRANCH  14  15
HETATM   15  C           1     -13.560   3.474 -20.859  0.00  0.00     0.030 C 
BRANCH  15  16
HETATM   16  C           1     -12.289   2.696 -21.175  0.00  0.00     0.248 C 
BRANCH  16  17
HETATM   17  N           1     -11.206   3.100 -20.220  0.00  0.00    -0.079 N 
HETATM   18  H           1     -10.971   2.294 -19.597  0.00  0.00     0.274 HD
HETATM   19  H           1     -11.534   3.904 -19.639  0.00  0.00     0.274 HD
HETATM   20  H           1     -10.355   3.385 -20.757  0.00  0.00     0.274 HD
ENDBRANCH  16  17
ENDBRANCH  15  16
ENDBRANCH  14  15
ENDBRANCH   1  14
BRANCH   1  21
HETATM   21  N           1     -14.760   6.449 -22.899  0.00  0.00    -0.067 N 
HETATM   22  H           1     -15.004   5.770 -23.655  0.00  0.00     0.275 HD
HETATM   23  H           1     -15.632   6.893 -22.533  0.00  0.00     0.275 HD
HETATM   24  H           1     -14.128   7.187 -23.286  0.00  0.00     0.257 HD
ENDBRANCH   1  21
TORSDOF 10
ENDMDL
MODEL 4
REMARK VINA RESULT:      -5.0     18.315     20.435
REMARK  10 active torsions:
REMARK  status: ('A' for Active; 'I' for Inactive)
REMARK    1  A    between atoms: C_4  and  O_12 
REMARK    2  A    between atoms: C_4  and  C_18 
REMARK    3  A    between atoms: C_5  and  C_20 
REMARK    4  A    between atoms: C_5  and  C_23 
REMARK    5  A    between atoms: C_5  and  N_15 
REMARK    6  A    between atoms: N_7  and  C_8 
REMARK    7  A    between atoms: C_8  and  C_9 
REMARK    8  A    between atoms: C_9  and  C_23 
REMARK    9  A    between atoms: C_17  and  C_18 
REMARK   10  A    between atoms: C_18  and  N_21 
REMARK       I    between atoms: C_20  and  N_21 
ROOT
HETATM    1  C           1     -13.455   5.453 -20.601  0.00  0.00     0.274 C 
ENDROOT
BRANCH   1   2
HETATM    2  C           1     -12.205   6.100 -20.056  0.00  0.00     0.249 C 
HETATM    3  O           1     -11.650   5.625 -19.094  0.00  0.00    -0.271 OA
HETATM    4  N           1     -11.701   7.224 -20.652  0.00  0.00    -0.343 N 
HETATM    5  H           1     -12.166   7.622 -21.457  0.00  0.00     0.163 HD
BRANCH   4   6
HETATM    6  C           1     -10.500   7.846 -20.128  0.00  0.00     0.214 C 
BRANCH   6   7
HETATM    7  C           1      -9.736   8.511 -21.265  0.00  0.00     0.147 C 
HETATM    8  C           1     -10.662   8.690 -22.461  0.00  0.00     0.042 C 
BRANCH   7   9
HETATM    9  O           1      -9.269   9.764 -20.843  0.00  0.00    -0.393 OA
HETATM   10  H           1      -9.044  10.248 -21.619  0.00  0.00     0.210 HD
ENDBRANCH   7   9
ENDBRANCH   6   7
BRANCH   6  11
HETATM   11  C           1     -10.879   8.884 -19.101  0.00  0.00     0.199 C 
HETATM   12  O           1     -11.930   9.545 -19.238  0.00  0.00    -0.646 OA
HETATM   13  O           1     -10.140   9.082 -18.111  0.00  0.00    -0.646 OA
ENDBRANCH   6  11
ENDBRANCH   4   6
ENDBRANCH   1   2
BRANCH   1  14
HETATM   14  C           1     -13.249   3.946 -20.693  0.00  0.00     0.044 C 
BRANCH  14  15
HETATM   15  C           1     -12.501   3.614 -21.977  0.00  0.00     0.030 C 
BRANCH  15  16
HETATM   16  C           1     -11.084   3.168 -21.639  0.00  0.00     0.248 C 
BRANCH  16  17
HETATM   17  N           1     -11.015   2.771 -20.195  0.00  0.00    -0.079 N 
HETATM   18  H           1     -10.835   3.617 -19.609  0.00  0.00     0.274 HD
HETATM   19  H           1     -10.242   2.081 -20.059  0.00  0.00     0.274 HD
HETATM   20  H           1     -11.923   2.335 -19.909  0.00  0.00     0.274 HD
ENDBRANCH  16  17
ENDBRANCH  15  16
ENDBRANCH  14  15
ENDBRANCH   1  14
BRANCH   1  21
HETATM   21  N           1     -13.746   6.002 -21.966  0.00  0.00    -0.067 N 
HETATM   22  H           1     -14.380   6.829 -21.882  0.00  0.00     0.275 HD
HETATM   23  H           1     -12.852   6.292 -22.423  0.00  0.00     0.275 HD
HETATM   24  H           1     -14.211   5.266 -22.545  0.00  0.00     0.257 HD
ENDBRANCH   1  21
TORSDOF 10
ENDMDL
MODEL 5
REMARK VINA RESULT:      -4.8      3.169      6.604
REMARK  10 active torsions:
REMARK  status: ('A' for Active; 'I' for Inactive)
REMARK    1  A    between atoms: C_4  and  O_12 
REMARK    2  A    between atoms: C_4  and  C_18 
REMARK    3  A    between atoms: C_5  and  C_20 
REMARK    4  A    between atoms: C_5  and  C_23 
REMARK    5  A    between atoms: C_5  and  N_15 
REMARK    6  A    between atoms: N_7  and  C_8 
REMARK    7  A    between atoms: C_8  and  C_9 
REMARK    8  A    between atoms: C_9  and  C_23 
REMARK    9  A    between atoms: C_17  and  C_18 
REMARK   10  A    between atoms: C_18  and  N_21 
REMARK       I    between atoms: C_20  and  N_21 
ROOT
HETATM    1  C           1     -21.362  -4.769  -8.366  0.00  0.00     0.274 C 
ENDROOT
BRANCH   1   2
HETATM    2  C           1     -20.848  -5.284  -7.043  0.00  0.00     0.249 C 
HETATM    3  O           1     -20.103  -4.604  -6.378  0.00  0.00    -0.271 OA
HETATM    4  N           1     -21.225  -6.522  -6.598  0.00  0.00    -0.343 N 
HETATM    5  H           1     -21.848  -7.092  -7.155  0.00  0.00     0.163 HD
BRANCH   4   6
HETATM    6  C           1     -20.732  -7.017  -5.328  0.00  0.00     0.214 C 
BRANCH   6   7
HETATM    7  C           1     -21.848  -6.960  -4.293  0.00  0.00     0.147 C 
HETATM    8  C           1     -21.356  -6.217  -3.058  0.00  0.00     0.042 C 
BRANCH   7   9
HETATM    9  O           1     -22.953  -6.288  -4.835  0.00  0.00    -0.393 OA
HETATM   10  H           1     -22.892  -5.391  -4.553  0.00  0.00     0.210 HD
ENDBRANCH   7   9
ENDBRANCH   6   7
BRANCH   6  11
HETATM   11  C           1     -20.268  -8.444  -5.490  0.00  0.00     0.199 C 
HETATM   12  O           1     -21.103  -9.373  -5.518  0.00  0.00    -0.646 OA
HETATM   13  O           1     -19.048  -8.696  -5.597  0.00  0.00    -0.646 OA
ENDBRANCH   6  11
ENDBRANCH   4   6
ENDBRANCH   1   2
BRANCH   1  14
HETATM   14  C           1     -20.185  -4.427  -9.270  0.00  0.00     0.044 C 
BRANCH  14  15
HETATM   15  C           1     -20.670  -3.571 -10.432  0.00  0.00     0.030 C 
BRANCH  15  16
HETATM   16  C           1     -21.436  -4.440 -11.421  0.00  0.00     0.248 C 
BRANCH  16  17
HETATM   17  N           1     -21.519  -3.739 -12.744  0.00  0.00    -0.079 N 
HETATM   18  H           1     -20.903  -2.894 -12.730  0.00  0.00     0.274 HD
HETATM   19  H           1     -22.506  -3.448 -12.923  0.00  0.00     0.274 HD
HETATM   20  H           1     -21.205  -4.387 -13.503  0.00  0.00     0.274 HD
ENDBRANCH  16  17
ENDBRANCH  15  16
ENDBRANCH  14  15
ENDBRANCH   1  14
BRANCH   1  21
HETATM   21  N           1     -22.189  -3.539  -8.136  0.00  0.00    -0.067 N 
HETATM   22  H           1     -21.873  -2.780  -8.781  0.00  0.00     0.275 HD
HETATM   23  H           1     -23.194  -3.757  -8.319  0.00  0.00     0.275 HD
HETATM   24  H           1     -22.074  -3.223  -7.145  0.00  0.00     0.257 HD
ENDBRANCH   1  21
TORSDOF 10
ENDMDL
MODEL 6
REMARK VINA RESULT:      -4.8      4.815      8.121
REMARK  10 active torsions:
REMARK  status: ('A' for Active; 'I' for Inactive)
REMARK    1  A    between atoms: C_4  and  O_12 
REMARK    2  A    between atoms: C_4  and  C_18 
REMARK    3  A    between atoms: C_5  and  C_20 
REMARK    4  A    between atoms: C_5  and  C_23 
REMARK    5  A    between atoms: C_5  and  N_15 
REMARK    6  A    between atoms: N_7  and  C_8 
REMARK    7  A    between atoms: C_8  and  C_9 
REMARK    8  A    between atoms: C_9  and  C_23 
REMARK    9  A    between atoms: C_17  and  C_18 
REMARK   10  A    between atoms: C_18  and  N_21 
REMARK       I    between atoms: C_20  and  N_21 
ROOT
HETATM    1  C           1     -21.472  -7.118  -5.455  0.00  0.00     0.274 C 
ENDROOT
BRANCH   1   2
HETATM    2  C           1     -20.810  -7.845  -4.310  0.00  0.00     0.249 C 
HETATM    3  O           1     -19.688  -8.273  -4.436  0.00  0.00    -0.271 OA
HETATM    4  N           1     -21.483  -8.021  -3.131  0.00  0.00    -0.343 N 
HETATM    5  H           1     -22.423  -7.664  -3.026  0.00  0.00     0.163 HD
BRANCH   4   6
HETATM    6  C           1     -20.847  -8.720  -2.031  0.00  0.00     0.214 C 
BRANCH   6   7
HETATM    7  C           1     -21.189  -8.024  -0.721  0.00  0.00     0.147 C 
HETATM    8  C           1     -22.286  -6.996  -0.966  0.00  0.00     0.042 C 
BRANCH   7   9
HETATM    9  O           1     -21.636  -8.973   0.209  0.00  0.00    -0.393 OA
HETATM   10  H           1     -20.936  -9.592   0.326  0.00  0.00     0.210 HD
ENDBRANCH   7   9
ENDBRANCH   6   7
BRANCH   6  11
HETATM   11  C           1     -21.342 -10.145  -1.988  0.00  0.00     0.199 C 
HETATM   12  O           1     -22.528 -10.404  -2.285  0.00  0.00    -0.646 OA
HETATM   13  O           1     -20.565 -11.067  -1.656  0.00  0.00    -0.646 OA
ENDBRANCH   6  11
ENDBRANCH   4   6
ENDBRANCH   1   2
BRANCH   1  14
HETATM   14  C           1     -20.426  -6.325  -6.227  0.00  0.00     0.044 C 
BRANCH  14  15
HETATM   15  C           1     -20.560  -4.846  -5.890  0.00  0.00     0.030 C 
BRANCH  15  16
HETATM   16  C           1     -20.647  -4.036  -7.178  0.00  0.00     0.248 C 
BRANCH  16  17
HETATM   17  N           1     -22.070  -3.631  -7.419  0.00  0.00    -0.079 N 
HETATM   18  H           1     -22.590  -4.425  -7.856  0.00  0.00     0.274 HD
HETATM   19  H           1     -22.095  -2.804  -8.058  0.00  0.00     0.274 HD
HETATM   20  H           1     -22.520  -3.378  -6.508  0.00  0.00     0.274 HD
ENDBRANCH  16  17
ENDBRANCH  15  16
ENDBRANCH  14  15
ENDBRANCH   1  14
BRANCH   1  21
HETATM   21  N           1     -22.512  -6.181  -4.916  0.00  0.00    -0.067 N 
HETATM   22  H           1     -22.493  -6.200  -3.871  0.00  0.00     0.275 HD
HETATM   23  H           1     -22.313  -5.211  -5.250  0.00  0.00     0.275 HD
HETATM   24  H           1     -23.457  -6.478  -5.252  0.00  0.00     0.257 HD
ENDBRANCH   1  21
TORSDOF 10
ENDMDL
MODEL 7
REMARK VINA RESULT:      -4.7     18.200     20.242
REMARK  10 active torsions:
REMARK  status: ('A' for Active; 'I' for Inactive)
REMARK    1  A    between atoms: C_4  and  O_12 
REMARK    2  A    between atoms: C_4  and  C_18 
REMARK    3  A    between atoms: C_5  and  C_20 
REMARK    4  A    between atoms: C_5  and  C_23 
REMARK    5  A    between atoms: C_5  and  N_15 
REMARK    6  A    between atoms: N_7  and  C_8 
REMARK    7  A    between atoms: C_8  and  C_9 
REMARK    8  A    between atoms: C_9  and  C_23 
REMARK    9  A    between atoms: C_17  and  C_18 
REMARK   10  A    between atoms: C_18  and  N_21 
REMARK       I    between atoms: C_20  and  N_21 
ROOT
HETATM    1  C           1     -10.164   7.006 -20.327  0.00  0.00     0.274 C 
ENDROOT
BRANCH   1   2
HETATM    2  C           1     -11.231   6.417 -21.217  0.00  0.00     0.249 C 
HETATM    3  O           1     -11.401   6.857 -22.329  0.00  0.00    -0.271 OA
HETATM    4  N           1     -12.009   5.386 -20.763  0.00  0.00    -0.343 N 
HETATM    5  H           1     -11.868   5.018 -19.831  0.00  0.00     0.163 HD
BRANCH   4   6
HETATM    6  C           1     -13.034   4.820 -21.618  0.00  0.00     0.214 C 
BRANCH   6   7
HETATM    7  C           1     -12.699   3.365 -21.917  0.00  0.00     0.147 C 
HETATM    8  C           1     -11.747   2.835 -20.853  0.00  0.00     0.042 C 
BRANCH   7   9
HETATM    9  O           1     -13.877   2.605 -21.911  0.00  0.00    -0.393 OA
HETATM   10  H           1     -13.983   2.257 -22.781  0.00  0.00     0.210 HD
ENDBRANCH   7   9
ENDBRANCH   6   7
BRANCH   6  11
HETATM   11  C           1     -14.369   4.896 -20.919  0.00  0.00     0.199 C 
HETATM   12  O           1     -15.392   5.223 -21.558  0.00  0.00    -0.646 OA
HETATM   13  O           1     -14.452   4.632 -19.700  0.00  0.00    -0.646 OA
ENDBRANCH   6  11
ENDBRANCH   4   6
ENDBRANCH   1   2
BRANCH   1  14
HETATM   14  C           1      -9.690   8.331 -20.910  0.00  0.00     0.044 C 
BRANCH  14  15
HETATM   15  C           1     -10.244   9.479 -20.077  0.00  0.00     0.030 C 
BRANCH  15  16
HETATM   16  C           1     -11.568   9.945 -20.670  0.00  0.00     0.248 C 
BRANCH  16  17
HETATM   17  N           1     -11.467   9.965 -22.166  0.00  0.00    -0.079 N 
HETATM   18  H           1     -12.313   9.510 -22.578  0.00  0.00     0.274 HD
HETATM   19  H           1     -10.611   9.445 -22.465  0.00  0.00     0.274 HD
HETATM   20  H           1     -11.406  10.955 -22.499  0.00  0.00     0.274 HD
ENDBRANCH  16  17
ENDBRANCH  15  16
ENDBRANCH  14  15
ENDBRANCH   1  14
BRANCH   1  21
HETATM   21  N           1      -9.007   6.056 -20.239  0.00  0.00    -0.067 N 
HETATM   22  H           1      -9.041   5.547 -19.327  0.00  0.00     0.275 HD
HETATM   23  H           1      -9.062   5.369 -21.024  0.00  0.00     0.275 HD
HETATM   24  H           1      -8.111   6.591 -20.305  0.00  0.00     0.257 HD
ENDBRANCH   1  21
TORSDOF 10
ENDMDL
MODEL 8
REMARK VINA RESULT:      -4.7      5.276      8.940
REMARK  10 active torsions:
REMARK  status: ('A' for Active; 'I' for Inactive)
REMARK    1  A    between atoms: C_4  and  O_12 
REMARK    2  A    between atoms: C_4  and  C_18 
REMARK    3  A    between atoms: C_5  and  C_20 
REMARK    4  A    between atoms: C_5  and  C_23 
REMARK    5  A    between atoms: C_5  and  N_15 
REMARK    6  A    between atoms: N_7  and  C_8 
REMARK    7  A    between atoms: C_8  and  C_9 
REMARK    8  A    between atoms: C_9  and  C_23 
REMARK    9  A    between atoms: C_17  and  C_18 
REMARK   10  A    between atoms: C_18  and  N_21 
REMARK       I    between atoms: C_20  and  N_21 
ROOT
HETATM    1  C           1     -21.971  -6.616  -3.308  0.00  0.00     0.274 C 
ENDROOT
BRANCH   1   2
HETATM    2  C           1     -21.328  -7.906  -2.864  0.00  0.00     0.249 C 
HETATM    3  O           1     -20.423  -8.383  -3.507  0.00  0.00    -0.271 OA
HETATM    4  N           1     -21.771  -8.537  -1.733  0.00  0.00    -0.343 N 
HETATM    5  H           1     -22.529  -8.138  -1.194  0.00  0.00     0.163 HD
BRANCH   4   6
HETATM    6  C           1     -21.153  -9.778  -1.306  0.00  0.00     0.214 C 
BRANCH   6   7
HETATM    7  C           1     -20.921  -9.737   0.199  0.00  0.00     0.147 C 
HETATM    8  C           1     -21.676  -8.557   0.797  0.00  0.00     0.042 C 
BRANCH   7   9
HETATM    9  O           1     -21.383 -10.929   0.775  0.00  0.00    -0.393 OA
HETATM   10  H           1     -20.662 -11.298   1.256  0.00  0.00     0.210 HD
ENDBRANCH   7   9
ENDBRANCH   6   7
BRANCH   6  11
HETATM   11  C           1     -22.061 -10.934  -1.644  0.00  0.00     0.199 C 
HETATM   12  O           1     -23.298 -10.816  -1.514  0.00  0.00    -0.646 OA
HETATM   13  O           1     -21.576 -12.011  -2.054  0.00  0.00    -0.646 OA
ENDBRANCH   6  11
ENDBRANCH   4   6
ENDBRANCH   1   2
BRANCH   1  14
HETATM   14  C           1     -21.014  -5.857  -4.219  0.00  0.00     0.044 C 
BRANCH  14  15
HETATM   15  C           1     -21.576  -5.826  -5.633  0.00  0.00     0.030 C 
BRANCH  15  16
HETATM   16  C           1     -20.464  -6.130  -6.630  0.00  0.00     0.248 C 
BRANCH  16  17
HETATM   17  N           1     -19.798  -7.421  -6.257  0.00  0.00    -0.079 N 
HETATM   18  H           1     -20.476  -8.208  -6.366  0.00  0.00     0.274 HD
HETATM   19  H           1     -19.476  -7.373  -5.264  0.00  0.00     0.274 HD
HETATM   20  H           1     -18.974  -7.582  -6.881  0.00  0.00     0.274 HD
ENDBRANCH  16  17
ENDBRANCH  15  16
ENDBRANCH  14  15
ENDBRANCH   1  14
BRANCH   1  21
HETATM   21  N           1     -22.289  -5.776  -2.107  0.00  0.00    -0.067 N 
HETATM   22  H           1     -23.221  -5.321  -2.235  0.00  0.00     0.275 HD
HETATM   23  H           1     -22.310  -6.381  -1.256  0.00  0.00     0.275 HD
HETATM   24  H           1     -21.555  -5.039  -1.993  0.00  0.00     0.257 HD
ENDBRANCH   1  21
TORSDOF 10
ENDMDL
MODEL 9
REMARK VINA RESULT:      -4.6      5.403      7.056
REMARK  10 active torsions:
REMARK  status: ('A' for Active; 'I' for Inactive)
REMARK    1  A    between atoms: C_4  and  O_12 
REMARK    2  A    between atoms: C_4  and  C_18 
REMARK    3  A    between atoms: C_5  and  C_20 
REMARK    4  A    between atoms: C_5  and  C_23 
REMARK    5  A    between atoms: C_5  and  N_15 
REMARK    6  A    between atoms: N_7  and  C_8 
REMARK    7  A    between atoms: C_8  and  C_9 
REMARK    8  A    between atoms: C_9  and  C_23 
REMARK    9  A    between atoms: C_17  and  C_18 
REMARK   10  A    between atoms: C_18  and  N_21 
REMARK       I    between atoms: C_20  and  N_21 
ROOT
HETATM    1  C           1     -21.843 -10.558  -1.566  0.00  0.00     0.274 C 
ENDROOT
BRANCH   1   2
HETATM    2  C           1     -21.143  -9.323  -2.079  0.00  0.00     0.249 C 
HETATM    3  O           1     -20.264  -8.812  -1.427  0.00  0.00    -0.271 OA
HETATM    4  N           1     -21.506  -8.782  -3.283  0.00  0.00    -0.343 N 
HETATM    5  H           1     -22.242  -9.209  -3.829  0.00  0.00     0.163 HD
BRANCH   4   6
HETATM    6  C           1     -20.833  -7.596  -3.776  0.00  0.00     0.214 C 
BRANCH   6   7
HETATM    7  C           1     -20.299  -7.861  -5.177  0.00  0.00     0.147 C 
HETATM    8  C           1     -19.149  -8.857  -5.101  0.00  0.00     0.042 C 
BRANCH   7   9
HETATM    9  O           1     -21.324  -8.389  -5.975  0.00  0.00    -0.393 OA
HETATM   10  H           1     -20.940  -9.075  -6.494  0.00  0.00     0.210 HD
ENDBRANCH   7   9
ENDBRANCH   6   7
BRANCH   6  11
HETATM   11  C           1     -21.809  -6.446  -3.819  0.00  0.00     0.199 C 
HETATM   12  O           1     -22.124  -5.933  -4.914  0.00  0.00    -0.646 OA
HETATM   13  O           1     -22.304  -6.006  -2.758  0.00  0.00    -0.646 OA
ENDBRANCH   6  11
ENDBRANCH   4   6
ENDBRANCH   1   2
BRANCH   1  14
HETATM   14  C           1     -22.182 -10.375  -0.092  0.00  0.00     0.044 C 
BRANCH  14  15
HETATM   15  C           1     -23.481  -9.590   0.036  0.00  0.00     0.030 C 
BRANCH  15  16
HETATM   16  C           1     -23.177  -8.179   0.523  0.00  0.00     0.248 C 
BRANCH  16  17
HETATM   17  N           1     -21.834  -8.158   1.190  0.00  0.00    -0.079 N 
HETATM   18  H           1     -21.424  -9.120   1.179  0.00  0.00     0.274 HD
HETATM   19  H           1     -21.940  -7.836   2.179  0.00  0.00     0.274 HD
HETATM   20  H           1     -21.200  -7.503   0.678  0.00  0.00     0.274 HD
ENDBRANCH  16  17
ENDBRANCH  15  16
ENDBRANCH  14  15
ENDBRANCH   1  14
BRANCH   1  21
HETATM   21  N           1     -20.942 -11.746  -1.728  0.00  0.00    -0.067 N 
HETATM   22  H           1     -19.948 -11.427  -1.774  0.00  0.00     0.275 HD
HETATM   23  H           1     -21.065 -12.388  -0.913  0.00  0.00     0.275 HD
HETATM   24  H           1     -21.187 -12.251  -2.610  0.00  0.00     0.257 HD
ENDBRANCH   1  21
TORSDOF 10
ENDMDL
