MODEL 1
REMARK VINA RESULT:      -7.1      0.000      0.000
REMARK  8 active torsions:
REMARK  status: ('A' for Active; 'I' for Inactive)
REMARK       I    between atoms: C_1  and  N_6 
REMARK    1  A    between atoms: C_1  and  C_12 
REMARK    2  A    between atoms: C_2  and  C_10 
REMARK    3  A    between atoms: N_6  and  C_22 
REMARK    4  A    between atoms: C_10  and  C_22 
REMARK    5  A    between atoms: C_12  and  C_13 
REMARK    6  A    between atoms: C_12  and  N_18 
REMARK    7  A    between atoms: C_13  and  C_14 
REMARK    8  A    between atoms: C_22  and  C_24 
ROOT
HETATM    1  C           1     -21.743  -6.407  -3.121  0.00  0.00     0.249 C 
HETATM    2  N           1     -22.423  -6.373  -4.309  0.00  0.00    -0.344 N 
HETATM    3  H           1     -23.421  -6.208  -4.317  0.00  0.00     0.163 HD
HETATM    4  O           1     -21.273  -5.392  -2.664  0.00  0.00    -0.271 OA
ENDROOT
BRANCH   2   5
HETATM    5  C           1     -21.711  -6.573  -5.557  0.00  0.00     0.189 C 
BRANCH   5   6
HETATM    6  C           1     -20.811  -5.374  -5.824  0.00  0.00     0.074 C 
BRANCH   6   7
HETATM    7  C           1     -21.060  -4.863  -7.210  0.00  0.00    -0.056 A 
HETATM    8  C           1     -22.293  -4.299  -7.533  0.00  0.00     0.007 A 
HETATM    9  C           1     -22.525  -3.822  -8.824  0.00  0.00     0.001 A 
HETATM   10  C           1     -21.523  -3.911  -9.791  0.00  0.00     0.000 A 
HETATM   11  C           1     -20.290  -4.475  -9.467  0.00  0.00     0.001 A 
HETATM   12  C           1     -20.058  -4.951  -8.176  0.00  0.00     0.007 A 
ENDBRANCH   6   7
ENDBRANCH   5   6
BRANCH   5  13
HETATM   13  C           1     -20.869  -7.822  -5.459  0.00  0.00     0.197 C 
HETATM   14  O           1     -21.394  -8.945  -5.619  0.00  0.00    -0.646 OA
HETATM   15  O           1     -19.645  -7.733  -5.219  0.00  0.00    -0.646 OA
ENDBRANCH   5  13
ENDBRANCH   2   5
BRANCH   1  16
HETATM   16  C           1     -21.582  -7.713  -2.382  0.00  0.00     0.275 C 
BRANCH  16  17
HETATM   17  C           1     -22.238  -7.605  -1.011  0.00  0.00     0.046 C 
BRANCH  17  18
HETATM   18  C           1     -21.938  -8.860  -0.203  0.00  0.00    -0.020 C 
HETATM   19  C           1     -21.464  -8.466   1.189  0.00  0.00     0.009 C 
HETATM   20  C           1     -23.200  -9.704  -0.089  0.00  0.00     0.009 C 
ENDBRANCH  17  18
ENDBRANCH  16  17
BRANCH  16  21
HETATM   21  N           1     -20.123  -8.015  -2.214  0.00  0.00    -0.066 N 
HETATM   22  H           1     -19.643  -7.188  -1.793  0.00  0.00     0.275 HD
HETATM   23  H           1     -19.700  -8.223  -3.147  0.00  0.00     0.275 HD
HETATM   24  H           1     -20.008  -8.843  -1.588  0.00  0.00     0.275 HD
ENDBRANCH  16  21
ENDBRANCH   1  16
TORSDOF 8
ENDMDL
MODEL 2
REMARK VINA RESULT:      -7.1      2.442      7.255
REMARK  8 active torsions:
REMARK  status: ('A' for Active; 'I' for Inactive)
REMARK       I    between atoms: C_1  and  N_6 
REMARK    1  A    between atoms: C_1  and  C_12 
REMARK    2  A    between atoms: C_2  and  C_10 
REMARK    3  A    between atoms: N_6  and  C_22 
REMARK    4  A    between atoms: C_10  and  C_22 
REMARK    5  A    between atoms: C_12  and  C_13 
REMARK    6  A    between atoms: C_12  and  N_18 
REMARK    7  A    between atoms: C_13  and  C_14 
REMARK    8  A    between atoms: C_22  and  C_24 
ROOT
HETATM    1  C           1     -22.771  -4.463  -7.106  0.00  0.00     0.249 C 
HETATM    2  N           1     -21.635  -4.134  -6.416  0.00  0.00    -0.344 N 
HETATM    3  H           1     -21.382  -3.162  -6.291  0.00  0.00     0.163 HD
HETATM    4  O           1     -23.822  -4.578  -6.521  0.00  0.00    -0.271 OA
ENDROOT
BRANCH   2   5
HETATM    5  C           1     -20.796  -5.180  -5.864  0.00  0.00     0.189 C 
BRANCH   5   6
HETATM    6  C           1     -21.638  -6.420  -5.601  0.00  0.00     0.074 C 
BRANCH   6   7
HETATM    7  C           1     -21.429  -6.875  -4.190  0.00  0.00    -0.056 A 
HETATM    8  C           1     -20.575  -7.945  -3.922  0.00  0.00     0.007 A 
HETATM    9  C           1     -20.381  -8.369  -2.606  0.00  0.00     0.001 A 
HETATM   10  C           1     -21.041  -7.723  -1.561  0.00  0.00     0.000 A 
HETATM   11  C           1     -21.894  -6.654  -1.829  0.00  0.00     0.001 A 
HETATM   12  C           1     -22.089  -6.230  -3.144  0.00  0.00     0.007 A 
ENDBRANCH   6   7
ENDBRANCH   5   6
BRANCH   5  13
HETATM   13  C           1     -19.700  -5.515  -6.848  0.00  0.00     0.197 C 
HETATM   14  O           1     -19.590  -6.679  -7.289  0.00  0.00    -0.646 OA
HETATM   15  O           1     -18.903  -4.627  -7.221  0.00  0.00    -0.646 OA
ENDBRANCH   5  13
ENDBRANCH   2   5
BRANCH   1  16
HETATM   16  C           1     -22.711  -4.679  -8.599  0.00  0.00     0.275 C 
BRANCH  16  17
HETATM   17  C           1     -21.722  -3.697  -9.214  0.00  0.00     0.046 C 
BRANCH  17  18
HETATM   18  C           1     -21.320  -4.182 -10.601  0.00  0.00    -0.020 C 
HETATM   19  C           1     -21.295  -3.003 -11.564  0.00  0.00     0.009 C 
HETATM   20  C           1     -19.936  -4.813 -10.536  0.00  0.00     0.009 C 
ENDBRANCH  17  18
ENDBRANCH  16  17
BRANCH  16  21
HETATM   21  N           1     -24.070  -4.456  -9.191  0.00  0.00    -0.066 N 
HETATM   22  H           1     -24.530  -5.378  -9.364  0.00  0.00     0.275 HD
HETATM   23  H           1     -23.976  -3.940 -10.095  0.00  0.00     0.275 HD
HETATM   24  H           1     -24.651  -3.894  -8.528  0.00  0.00     0.275 HD
ENDBRANCH  16  21
ENDBRANCH   1  16
TORSDOF 8
ENDMDL
MODEL 3
REMARK VINA RESULT:      -7.0      2.027      6.881
REMARK  8 active torsions:
REMARK  status: ('A' for Active; 'I' for Inactive)
REMARK       I    between atoms: C_1  and  N_6 
REMARK    1  A    between atoms: C_1  and  C_12 
REMARK    2  A    between atoms: C_2  and  C_10 
REMARK    3  A    between atoms: N_6  and  C_22 
REMARK    4  A    between atoms: C_10  and  C_22 
REMARK    5  A    between atoms: C_12  and  C_13 
REMARK    6  A    between atoms: C_12  and  N_18 
REMARK    7  A    between atoms: C_13  and  C_14 
REMARK    8  A    between atoms: C_22  and  C_24 
ROOT
HETATM    1  C           1     -20.110  -5.522  -6.731  0.00  0.00     0.249 C 
HETATM    2  N           1     -19.978  -6.869  -6.522  0.00  0.00    -0.344 N 
HETATM    3  H           1     -19.816  -7.489  -7.305  0.00  0.00     0.163 HD
HETATM    4  O           1     -19.135  -4.808  -6.705  0.00  0.00    -0.271 OA
ENDROOT
BRANCH   2   5
HETATM    5  C           1     -20.071  -7.406  -5.178  0.00  0.00     0.189 C 
BRANCH   5   6
HETATM    6  C           1     -21.528  -7.695  -4.847  0.00  0.00     0.074 C 
BRANCH   6   7
HETATM    7  C           1     -21.739  -7.572  -3.370  0.00  0.00    -0.056 A 
HETATM    8  C           1     -21.705  -8.710  -2.564  0.00  0.00     0.007 A 
HETATM    9  C           1     -21.902  -8.595  -1.187  0.00  0.00     0.001 A 
HETATM   10  C           1     -22.132  -7.343  -0.618  0.00  0.00     0.000 A 
HETATM   11  C           1     -22.166  -6.206  -1.424  0.00  0.00     0.001 A 
HETATM   12  C           1     -21.970  -6.320  -2.800  0.00  0.00     0.007 A 
ENDBRANCH   6   7
ENDBRANCH   5   6
BRANCH   5  13
HETATM   13  C           1     -19.272  -8.684  -5.092  0.00  0.00     0.197 C 
HETATM   14  O           1     -19.366  -9.542  -5.995  0.00  0.00    -0.646 OA
HETATM   15  O           1     -18.516  -8.884  -4.116  0.00  0.00    -0.646 OA
ENDBRANCH   5  13
ENDBRANCH   2   5
BRANCH   1  16
HETATM   16  C           1     -21.472  -4.930  -6.995  0.00  0.00     0.275 C 
BRANCH  16  17
HETATM   17  C           1     -21.893  -5.243  -8.425  0.00  0.00     0.046 C 
BRANCH  17  18
HETATM   18  C           1     -21.607  -4.040  -9.315  0.00  0.00    -0.020 C 
HETATM   19  C           1     -20.435  -4.356 -10.234  0.00  0.00     0.009 C 
HETATM   20  C           1     -22.838  -3.725 -10.153  0.00  0.00     0.009 C 
ENDBRANCH  17  18
ENDBRANCH  16  17
BRANCH  16  21
HETATM   21  N           1     -21.416  -3.444  -6.805  0.00  0.00    -0.066 N 
HETATM   22  H           1     -21.950  -3.183  -5.946  0.00  0.00     0.275 HD
HETATM   23  H           1     -21.840  -2.970  -7.635  0.00  0.00     0.275 HD
HETATM   24  H           1     -20.420  -3.143  -6.704  0.00  0.00     0.275 HD
ENDBRANCH  16  21
ENDBRANCH   1  16
TORSDOF 8
ENDMDL
MODEL 4
REMARK VINA RESULT:      -6.9      2.745      4.856
REMARK  8 active torsions:
REMARK  status: ('A' for Active; 'I' for Inactive)
REMARK       I    between atoms: C_1  and  N_6 
REMARK    1  A    between atoms: C_1  and  C_12 
REMARK    2  A    between atoms: C_2  and  C_10 
REMARK    3  A    between atoms: N_6  and  C_22 
REMARK    4  A    between atoms: C_10  and  C_22 
REMARK    5  A    between atoms: C_12  and  C_13 
REMARK    6  A    between atoms: C_12  and  N_18 
REMARK    7  A    between atoms: C_13  and  C_14 
REMARK    8  A    between atoms: C_22  and  C_24 
ROOT
HETATM    1  C           1     -21.845  -7.046  -2.464  0.00  0.00     0.249 C 
HETATM    2  N           1     -21.715  -7.640  -3.691  0.00  0.00    -0.344 N 
HETATM    3  H           1     -22.502  -8.123  -4.106  0.00  0.00     0.163 HD
HETATM    4  O           1     -22.205  -5.895  -2.384  0.00  0.00    -0.271 OA
ENDROOT
BRANCH   2   5
HETATM    5  C           1     -20.449  -7.576  -4.396  0.00  0.00     0.189 C 
BRANCH   5   6
HETATM    6  C           1     -20.105  -8.954  -4.945  0.00  0.00     0.074 C 
BRANCH   6   7
HETATM    7  C           1     -18.687  -9.290  -4.599  0.00  0.00    -0.056 A 
HETATM    8  C           1     -17.783  -9.619  -5.607  0.00  0.00     0.007 A 
HETATM    9  C           1     -16.461  -9.932  -5.284  0.00  0.00     0.001 A 
HETATM   10  C           1     -16.047  -9.916  -3.953  0.00  0.00     0.000 A 
HETATM   11  C           1     -16.952  -9.587  -2.945  0.00  0.00     0.001 A 
HETATM   12  C           1     -18.273  -9.273  -3.267  0.00  0.00     0.007 A 
ENDBRANCH   6   7
ENDBRANCH   5   6
BRANCH   5  13
HETATM   13  C           1     -20.559  -6.593  -5.536  0.00  0.00     0.197 C 
HETATM   14  O           1     -20.503  -5.365  -5.311  0.00  0.00    -0.646 OA
HETATM   15  O           1     -20.705  -7.008  -6.707  0.00  0.00    -0.646 OA
ENDBRANCH   5  13
ENDBRANCH   2   5
BRANCH   1  16
HETATM   16  C           1     -21.539  -7.830  -1.211  0.00  0.00     0.275 C 
BRANCH  16  17
HETATM   17  C           1     -21.920  -9.291  -1.421  0.00  0.00     0.046 C 
BRANCH  17  18
HETATM   18  C           1     -22.426  -9.878  -0.110  0.00  0.00    -0.020 C 
HETATM   19  C           1     -23.708 -10.660  -0.366  0.00  0.00     0.009 C 
HETATM   20  C           1     -21.370 -10.809   0.470  0.00  0.00     0.009 C 
ENDBRANCH  17  18
ENDBRANCH  16  17
BRANCH  16  21
HETATM   21  N           1     -22.328  -7.268  -0.066  0.00  0.00    -0.066 N 
HETATM   22  H           1     -22.783  -6.376  -0.363  0.00  0.00     0.275 HD
HETATM   23  H           1     -21.689  -7.081   0.739  0.00  0.00     0.275 HD
HETATM   24  H           1     -23.061  -7.955   0.222  0.00  0.00     0.275 HD
ENDBRANCH  16  21
ENDBRANCH   1  16
TORSDOF 8
ENDMDL
MODEL 5
REMARK VINA RESULT:      -6.8      3.129      6.460
REMARK  8 active torsions:
REMARK  status: ('A' for Active; 'I' for Inactive)
REMARK       I    between atoms: C_1  and  N_6 
REMARK    1  A    between atoms: C_1  and  C_12 
REMARK    2  A    between atoms: C_2  and  C_10 
REMARK    3  A    between atoms: N_6  and  C_22 
REMARK    4  A    between atoms: C_10  and  C_22 
REMARK    5  A    between atoms: C_12  and  C_13 
REMARK    6  A    between atoms: C_12  and  N_18 
REMARK    7  A    between atoms: C_13  and  C_14 
REMARK    8  A    between atoms: C_22  and  C_24 
ROOT
HETATM    1  C           1     -19.508  -9.539  -4.786  0.00  0.00     0.249 C 
HETATM    2  N           1     -19.801  -8.212  -4.624  0.00  0.00    -0.344 N 
HETATM    3  H           1     -19.091  -7.512  -4.800  0.00  0.00     0.163 HD
HETATM    4  O           1     -19.680 -10.070  -5.859  0.00  0.00    -0.271 OA
ENDROOT
BRANCH   2   5
HETATM    5  C           1     -21.128  -7.809  -4.202  0.00  0.00     0.189 C 
BRANCH   5   6
HETATM    6  C           1     -21.028  -7.009  -2.910  0.00  0.00     0.074 C 
BRANCH   6   7
HETATM    7  C           1     -21.747  -7.736  -1.816  0.00  0.00    -0.056 A 
HETATM    8  C           1     -21.846  -9.127  -1.852  0.00  0.00     0.007 A 
HETATM    9  C           1     -22.516  -9.805  -0.832  0.00  0.00     0.001 A 
HETATM   10  C           1     -23.086  -9.091   0.222  0.00  0.00     0.000 A 
HETATM   11  C           1     -22.987  -7.701   0.257  0.00  0.00     0.001 A 
HETATM   12  C           1     -22.318  -7.022  -0.762  0.00  0.00     0.007 A 
ENDBRANCH   6   7
ENDBRANCH   5   6
BRANCH   5  13
HETATM   13  C           1     -21.758  -6.954  -5.275  0.00  0.00     0.197 C 
HETATM   14  O           1     -21.306  -6.978  -6.440  0.00  0.00    -0.646 OA
HETATM   15  O           1     -22.733  -6.221  -4.998  0.00  0.00    -0.646 OA
ENDBRANCH   5  13
ENDBRANCH   2   5
BRANCH   1  16
HETATM   16  C           1     -18.971 -10.340  -3.626  0.00  0.00     0.275 C 
BRANCH  16  17
HETATM   17  C           1     -17.700  -9.683  -3.101  0.00  0.00     0.046 C 
BRANCH  17  18
HETATM   18  C           1     -16.490 -10.504  -3.525  0.00  0.00    -0.020 C 
HETATM   19  C           1     -15.729  -9.760  -4.615  0.00  0.00     0.009 C 
HETATM   20  C           1     -15.577 -10.720  -2.326  0.00  0.00     0.009 C 
ENDBRANCH  17  18
ENDBRANCH  16  17
BRANCH  16  21
HETATM   21  N           1     -18.659 -11.734  -4.082  0.00  0.00    -0.066 N 
HETATM   22  H           1     -17.623 -11.869  -4.103  0.00  0.00     0.275 HD
HETATM   23  H           1     -19.047 -11.881  -5.042  0.00  0.00     0.275 HD
HETATM   24  H           1     -19.089 -12.421  -3.423  0.00  0.00     0.275 HD
ENDBRANCH  16  21
ENDBRANCH   1  16
TORSDOF 8
ENDMDL
MODEL 6
REMARK VINA RESULT:      -6.8      4.528      7.509
REMARK  8 active torsions:
REMARK  status: ('A' for Active; 'I' for Inactive)
REMARK       I    between atoms: C_1  and  N_6 
REMARK    1  A    between atoms: C_1  and  C_12 
REMARK    2  A    between atoms: C_2  and  C_10 
REMARK    3  A    between atoms: N_6  and  C_22 
REMARK    4  A    between atoms: C_10  and  C_22 
REMARK    5  A    between atoms: C_12  and  C_13 
REMARK    6  A    between atoms: C_12  and  N_18 
REMARK    7  A    between atoms: C_13  and  C_14 
REMARK    8  A    between atoms: C_22  and  C_24 
ROOT
HETATM    1  C           1     -21.825 -11.468  -4.097  0.00  0.00     0.249 C 
HETATM    2  N           1     -22.910 -11.486  -3.263  0.00  0.00    -0.344 N 
HETATM    3  H           1     -23.821 -11.215  -3.611  0.00  0.00     0.163 HD
HETATM    4  O           1     -21.538 -12.452  -4.737  0.00  0.00    -0.271 OA
ENDROOT
BRANCH   2   5
HETATM    5  C           1     -22.754 -11.895  -1.880  0.00  0.00     0.189 C 
BRANCH   5   6
HETATM    6  C           1     -23.597 -10.995  -0.987  0.00  0.00     0.074 C 
BRANCH   6   7
HETATM    7  C           1     -22.698 -10.153  -0.135  0.00  0.00    -0.056 A 
HETATM    8  C           1     -23.012  -8.815   0.099  0.00  0.00     0.007 A 
HETATM    9  C           1     -22.173  -8.030   0.893  0.00  0.00     0.001 A 
HETATM   10  C           1     -21.022  -8.586   1.451  0.00  0.00     0.000 A 
HETATM   11  C           1     -20.709  -9.924   1.217  0.00  0.00     0.001 A 
HETATM   12  C           1     -21.546 -10.708   0.423  0.00  0.00     0.007 A 
ENDBRANCH   6   7
ENDBRANCH   5   6
BRANCH   5  13
HETATM   13  C           1     -23.210 -13.325  -1.725  0.00  0.00     0.197 C 
HETATM   14  O           1     -24.325 -13.576  -1.219  0.00  0.00    -0.646 OA
HETATM   15  O           1     -22.471 -14.261  -2.104  0.00  0.00    -0.646 OA
ENDBRANCH   5  13
ENDBRANCH   2   5
BRANCH   1  16
HETATM   16  C           1     -20.988 -10.218  -4.217  0.00  0.00     0.275 C 
BRANCH  16  17
HETATM   17  C           1     -21.789  -9.020  -3.722  0.00  0.00     0.046 C 
BRANCH  17  18
HETATM   18  C           1     -20.837  -7.945  -3.215  0.00  0.00    -0.020 C 
HETATM   19  C           1     -21.640  -6.797  -2.618  0.00  0.00     0.009 C 
HETATM   20  C           1     -19.927  -8.537  -2.147  0.00  0.00     0.009 C 
ENDBRANCH  17  18
ENDBRANCH  16  17
BRANCH  16  21
HETATM   21  N           1     -20.610 -10.007  -5.653  0.00  0.00    -0.066 N 
HETATM   22  H           1     -20.002  -9.161  -5.731  0.00  0.00     0.275 HD
HETATM   23  H           1     -21.474  -9.867  -6.224  0.00  0.00     0.275 HD
HETATM   24  H           1     -20.092 -10.844  -6.004  0.00  0.00     0.275 HD
ENDBRANCH  16  21
ENDBRANCH   1  16
TORSDOF 8
ENDMDL
MODEL 7
REMARK VINA RESULT:      -6.7      1.810      7.066
REMARK  8 active torsions:
REMARK  status: ('A' for Active; 'I' for Inactive)
REMARK       I    between atoms: C_1  and  N_6 
REMARK    1  A    between atoms: C_1  and  C_12 
REMARK    2  A    between atoms: C_2  and  C_10 
REMARK    3  A    between atoms: N_6  and  C_22 
REMARK    4  A    between atoms: C_10  and  C_22 
REMARK    5  A    between atoms: C_12  and  C_13 
REMARK    6  A    between atoms: C_12  and  N_18 
REMARK    7  A    between atoms: C_13  and  C_14 
REMARK    8  A    between atoms: C_22  and  C_24 
ROOT
HETATM    1  C           1     -20.612  -7.360  -5.602  0.00  0.00     0.249 C 
HETATM    2  N           1     -21.025  -8.488  -4.945  0.00  0.00    -0.344 N 
HETATM    3  H           1     -21.686  -9.116  -5.383  0.00  0.00     0.163 HD
HETATM    4  O           1     -19.639  -7.399  -6.317  0.00  0.00    -0.271 OA
ENDROOT
BRANCH   2   5
HETATM    5  C           1     -20.513  -8.783  -3.620  0.00  0.00     0.189 C 
BRANCH   5   6
HETATM    6  C           1     -21.528  -9.627  -2.861  0.00  0.00     0.074 C 
BRANCH   6   7
HETATM    7  C           1     -21.522  -9.233  -1.416  0.00  0.00    -0.056 A 
HETATM    8  C           1     -20.965 -10.086  -0.464  0.00  0.00     0.007 A 
HETATM    9  C           1     -20.961  -9.720   0.883  0.00  0.00     0.001 A 
HETATM   10  C           1     -21.514  -8.501   1.276  0.00  0.00     0.000 A 
HETATM   11  C           1     -22.071  -7.649   0.323  0.00  0.00     0.001 A 
HETATM   12  C           1     -22.076  -8.015  -1.023  0.00  0.00     0.007 A 
ENDBRANCH   6   7
ENDBRANCH   5   6
BRANCH   5  13
HETATM   13  C           1     -19.216  -9.545  -3.742  0.00  0.00     0.197 C 
HETATM   14  O           1     -18.222  -9.201  -3.066  0.00  0.00    -0.646 OA
HETATM   15  O           1     -19.135 -10.521  -4.519  0.00  0.00    -0.646 OA
ENDBRANCH   5  13
ENDBRANCH   2   5
BRANCH   1  16
HETATM   16  C           1     -21.373  -6.068  -5.433  0.00  0.00     0.275 C 
BRANCH  16  17
HETATM   17  C           1     -20.416  -4.892  -5.580  0.00  0.00     0.046 C 
BRANCH  17  18
HETATM   18  C           1     -20.818  -4.056  -6.787  0.00  0.00    -0.020 C 
HETATM   19  C           1     -19.795  -4.243  -7.898  0.00  0.00     0.009 C 
HETATM   20  C           1     -22.189  -4.501  -7.278  0.00  0.00     0.009 C 
ENDBRANCH  17  18
ENDBRANCH  16  17
BRANCH  16  21
HETATM   21  N           1     -22.001  -6.033  -4.072  0.00  0.00    -0.066 N 
HETATM   22  H           1     -21.392  -6.546  -3.395  0.00  0.00     0.275 HD
HETATM   23  H           1     -22.941  -6.491  -4.109  0.00  0.00     0.275 HD
HETATM   24  H           1     -22.109  -5.041  -3.763  0.00  0.00     0.275 HD
ENDBRANCH  16  21
ENDBRANCH   1  16
TORSDOF 8
ENDMDL
MODEL 8
REMARK VINA RESULT:      -6.7      3.701      7.324
REMARK  8 active torsions:
REMARK  status: ('A' for Active; 'I' for Inactive)
REMARK       I    between atoms: C_1  and  N_6 
REMARK    1  A    between atoms: C_1  and  C_12 
REMARK    2  A    between atoms: C_2  and  C_10 
REMARK    3  A    between atoms: N_6  and  C_22 
REMARK    4  A    between atoms: C_10  and  C_22 
REMARK    5  A    between atoms: C_12  and  C_13 
REMARK    6  A    between atoms: C_12  and  N_18 
REMARK    7  A    between atoms: C_13  and  C_14 
REMARK    8  A    between atoms: C_22  and  C_24 
ROOT
HETATM    1  C           1     -20.581  -8.444  -4.114  0.00  0.00     0.249 C 
HETATM    2  N           1     -20.575  -7.812  -2.899  0.00  0.00    -0.344 N 
HETATM    3  H           1     -19.852  -7.138  -2.683  0.00  0.00     0.163 HD
HETATM    4  O           1     -21.178  -7.957  -5.045  0.00  0.00    -0.271 OA
ENDROOT
BRANCH   2   5
HETATM    5  C           1     -21.606  -8.110  -1.923  0.00  0.00     0.189 C 
BRANCH   5   6
HETATM    6  C           1     -20.972  -8.750  -0.696  0.00  0.00     0.074 C 
BRANCH   6   7
HETATM    7  C           1     -21.742  -9.978  -0.320  0.00  0.00    -0.056 A 
HETATM    8  C           1     -21.106 -11.020   0.354  0.00  0.00     0.007 A 
HETATM    9  C           1     -21.824 -12.165   0.704  0.00  0.00     0.001 A 
HETATM   10  C           1     -23.177 -12.266   0.379  0.00  0.00     0.000 A 
HETATM   11  C           1     -23.812 -11.224  -0.294  0.00  0.00     0.001 A 
HETATM   12  C           1     -23.095 -10.079  -0.644  0.00  0.00     0.007 A 
ENDBRANCH   6   7
ENDBRANCH   5   6
BRANCH   5  13
HETATM   13  C           1     -22.300  -6.831  -1.521  0.00  0.00     0.197 C 
HETATM   14  O           1     -22.448  -5.911  -2.354  0.00  0.00    -0.646 OA
HETATM   15  O           1     -22.729  -6.693  -0.354  0.00  0.00    -0.646 OA
ENDBRANCH   5  13
ENDBRANCH   2   5
BRANCH   1  16
HETATM   16  C           1     -19.841  -9.747  -4.290  0.00  0.00     0.275 C 
BRANCH  16  17
HETATM   17  C           1     -18.340  -9.483  -4.287  0.00  0.00     0.046 C 
BRANCH  17  18
HETATM   18  C           1     -17.806  -9.598  -2.865  0.00  0.00    -0.020 C 
HETATM   19  C           1     -18.305 -10.893  -2.239  0.00  0.00     0.009 C 
HETATM   20  C           1     -16.283  -9.602  -2.895  0.00  0.00     0.009 C 
ENDBRANCH  17  18
ENDBRANCH  16  17
BRANCH  16  21
HETATM   21  N           1     -20.235 -10.372  -5.594  0.00  0.00    -0.066 N 
HETATM   22  H           1     -19.882 -11.355  -5.629  0.00  0.00     0.275 HD
HETATM   23  H           1     -19.818  -9.827  -6.383  0.00  0.00     0.275 HD
HETATM   24  H           1     -21.276 -10.371  -5.681  0.00  0.00     0.275 HD
ENDBRANCH  16  21
ENDBRANCH   1  16
TORSDOF 8
ENDMDL
MODEL 9
REMARK VINA RESULT:      -6.7      2.207      7.857
REMARK  8 active torsions:
REMARK  status: ('A' for Active; 'I' for Inactive)
REMARK       I    between atoms: C_1  and  N_6 
REMARK    1  A    between atoms: C_1  and  C_12 
REMARK    2  A    between atoms: C_2  and  C_10 
REMARK    3  A    between atoms: N_6  and  C_22 
REMARK    4  A    between atoms: C_10  and  C_22 
REMARK    5  A    between atoms: C_12  and  C_13 
REMARK    6  A    between atoms: C_12  and  N_18 
REMARK    7  A    between atoms: C_13  and  C_14 
REMARK    8  A    between atoms: C_22  and  C_24 
ROOT
HETATM    1  C           1     -21.742  -6.739  -2.830  0.00  0.00     0.249 C 
HETATM    2  N           1     -21.114  -7.591  -1.961  0.00  0.00    -0.344 N 
HETATM    3  H           1     -20.112  -7.533  -1.830  0.00  0.00     0.163 HD
HETATM    4  O           1     -22.159  -5.675  -2.438  0.00  0.00    -0.271 OA
ENDROOT
BRANCH   2   5
HETATM    5  C           1     -21.887  -8.575  -1.228  0.00  0.00     0.189 C 
BRANCH   5   6
HETATM    6  C           1     -21.046  -9.827  -1.021  0.00  0.00     0.074 C 
BRANCH   6   7
HETATM    7  C           1     -21.924 -10.947  -0.554  0.00  0.00    -0.056 A 
HETATM    8  C           1     -21.535 -11.732   0.530  0.00  0.00     0.007 A 
HETATM    9  C           1     -22.354 -12.776   0.965  0.00  0.00     0.001 A 
HETATM   10  C           1     -23.560 -13.033   0.314  0.00  0.00     0.000 A 
HETATM   11  C           1     -23.949 -12.248  -0.770  0.00  0.00     0.001 A 
HETATM   12  C           1     -23.131 -11.204  -1.205  0.00  0.00     0.007 A 
ENDBRANCH   6   7
ENDBRANCH   5   6
BRANCH   5  13
HETATM   13  C           1     -22.280  -8.006   0.114  0.00  0.00     0.197 C 
HETATM   14  O           1     -21.462  -8.007   1.058  0.00  0.00    -0.646 OA
HETATM   15  O           1     -23.426  -7.533   0.280  0.00  0.00    -0.646 OA
ENDBRANCH   5  13
ENDBRANCH   2   5
BRANCH   1  16
HETATM   16  C           1     -21.911  -7.129  -4.278  0.00  0.00     0.275 C 
BRANCH  16  17
HETATM   17  C           1     -20.600  -6.905  -5.021  0.00  0.00     0.046 C 
BRANCH  17  18
HETATM   18  C           1     -20.729  -5.684  -5.923  0.00  0.00    -0.020 C 
HETATM   19  C           1     -19.952  -4.523  -5.319  0.00  0.00     0.009 C 
HETATM   20  C           1     -20.166  -6.010  -7.300  0.00  0.00     0.009 C 
ENDBRANCH  17  18
ENDBRANCH  16  17
BRANCH  16  21
HETATM   21  N           1     -22.987  -6.289  -4.899  0.00  0.00    -0.066 N 
HETATM   22  H           1     -22.680  -5.290  -4.916  0.00  0.00     0.275 HD
HETATM   23  H           1     -23.864  -6.373  -4.337  0.00  0.00     0.275 HD
HETATM   24  H           1     -23.166  -6.617  -5.875  0.00  0.00     0.275 HD
ENDBRANCH  16  21
ENDBRANCH   1  16
TORSDOF 8
ENDMDL
