MODEL 1
REMARK VINA RESULT:      -8.0      0.000      0.000
REMARK  16 active torsions:
REMARK  status: ('A' for Active; 'I' for Inactive)
REMARK       I    between atoms: N_1  and  C_15 
REMARK    1  A    between atoms: C_4  and  C_5 
REMARK    2  A    between atoms: C_5  and  C_6 
REMARK    3  A    between atoms: C_5  and  N_21 
REMARK    4  A    between atoms: C_6  and  C_7 
REMARK    5  A    between atoms: C_7  and  N_8 
REMARK    6  A    between atoms: N_8  and  C_34 
REMARK    7  A    between atoms: C_10  and  C_17 
REMARK    8  A    between atoms: C_10  and  N_24 
REMARK    9  A    between atoms: N_13  and  C_19 
REMARK       I    between atoms: N_14  and  C_15 
REMARK   10  A    between atoms: C_17  and  C_18 
REMARK   11  A    between atoms: C_18  and  C_19 
REMARK   12  A    between atoms: C_19  and  C_20 
REMARK       I    between atoms: C_20  and  N_21 
REMARK   13  A    between atoms: C_23  and  C_34 
REMARK   14  A    between atoms: C_29  and  O_30 
REMARK   15  A    between atoms: C_32  and  C_35 
REMARK   16  A    between atoms: C_34  and  C_35 
ROOT
HETATM    1  C           1     -35.620  -0.926 -15.440  0.00  0.00     0.187 C 
ENDROOT
BRANCH   1   2
HETATM    2  C           1     -36.792  -0.338 -16.187  0.00  0.00     0.196 C 
HETATM    3  O           1     -37.320   0.722 -15.786  0.00  0.00    -0.646 OA
HETATM    4  O           1     -37.236  -0.913 -17.204  0.00  0.00    -0.646 OA
ENDBRANCH   1   2
BRANCH   1   5
HETATM    5  C           1     -34.789   0.196 -14.834  0.00  0.00     0.066 C 
BRANCH   5   6
HETATM    6  C           1     -34.963   0.199 -13.320  0.00  0.00     0.273 C 
BRANCH   6   7
HETATM    7  N           1     -36.209  -0.436 -12.980  0.00  0.00     0.098 N 
HETATM    8  H           1     -36.462  -1.100 -13.712  0.00  0.00     0.317 HD
BRANCH   7   9
HETATM    9  C           1     -36.018  -1.139 -11.741  0.00  0.00     0.324 C 
BRANCH   9  10
HETATM   10  C           1     -36.565  -0.311 -10.604  0.00  0.00     0.207 C 
HETATM   11  O           1     -36.079  -0.425  -9.458  0.00  0.00    -0.646 OA
HETATM   12  O           1     -37.505   0.487 -10.809  0.00  0.00    -0.646 OA
ENDBRANCH   9  10
BRANCH   9  13
HETATM   13  C           1     -34.530  -1.384 -11.522  0.00  0.00     0.085 C 
BRANCH  13  14
HETATM   14  C           1     -34.284  -2.851 -11.364  0.00  0.00    -0.055 A 
HETATM   15  C           1     -35.296  -3.682 -10.884  0.00  0.00     0.010 A 
HETATM   16  C           1     -35.067  -5.049 -10.738  0.00  0.00     0.037 A 
HETATM   17  C           1     -33.824  -5.588 -11.071  0.00  0.00     0.065 A 
HETATM   18  C           1     -32.811  -4.758 -11.552  0.00  0.00     0.037 A 
HETATM   19  C           1     -33.041  -3.390 -11.697  0.00  0.00     0.010 A 
BRANCH  17  20
HETATM   20  O           1     -33.601  -6.916 -10.928  0.00  0.00    -0.361 OA
HETATM   21  H           1     -33.956  -7.367 -11.713  0.00  0.00     0.217 HD
ENDBRANCH  17  20
ENDBRANCH  13  14
ENDBRANCH   9  13
ENDBRANCH   7   9
ENDBRANCH   6   7
ENDBRANCH   5   6
ENDBRANCH   1   5
BRANCH   1  22
HETATM   22  N           1     -34.799  -1.692 -16.357  0.00  0.00    -0.345 N 
HETATM   23  C           1     -34.340  -2.931 -15.994  0.00  0.00     0.249 C 
HETATM   24  O           1     -34.618  -3.384 -14.910  0.00  0.00    -0.271 OA
HETATM   25  H           1     -34.566  -1.313 -17.265  0.00  0.00     0.163 HD
BRANCH  23  26
HETATM   26  C           1     -33.485  -3.728 -16.949  0.00  0.00     0.274 C 
BRANCH  26  27
HETATM   27  N           1     -32.439  -2.835 -17.546  0.00  0.00    -0.067 N 
HETATM   28  H           1     -32.897  -2.002 -17.980  0.00  0.00     0.275 HD
HETATM   29  H           1     -31.782  -2.520 -16.798  0.00  0.00     0.275 HD
HETATM   30  H           1     -31.909  -3.361 -18.277  0.00  0.00     0.275 HD
ENDBRANCH  26  27
BRANCH  26  31
HETATM   31  C           1     -32.811  -4.867 -16.198  0.00  0.00     0.044 C 
BRANCH  31  32
HETATM   32  C           1     -31.326  -4.891 -16.536  0.00  0.00     0.023 C 
BRANCH  32  33
HETATM   33  C           1     -30.997  -6.174 -17.288  0.00  0.00     0.138 C 
BRANCH  33  34
HETATM   34  N           1     -29.778  -5.976 -18.087  0.00  0.00    -0.227 N 
HETATM   35  C           1     -28.753  -6.684 -17.864  0.00  0.00     0.665 C 
HETATM   36  N           1     -28.777  -7.586 -16.928  0.00  0.00    -0.235 N 
HETATM   37  N           1     -27.704  -6.513 -18.552  0.00  0.00    -0.235 N 
HETATM   38  H           1     -27.931  -8.170 -16.744  0.00  0.00     0.174 HD
HETATM   39  H           1     -29.642  -7.726 -16.360  0.00  0.00     0.174 HD
HETATM   40  H           1     -26.854  -7.100 -18.367  0.00  0.00     0.174 HD
HETATM   41  H           1     -27.685  -5.785 -19.308  0.00  0.00     0.174 HD
HETATM   42  H           1     -29.760  -5.247 -18.844  0.00  0.00     0.177 HD
ENDBRANCH  33  34
ENDBRANCH  32  33
ENDBRANCH  31  32
ENDBRANCH  26  31
ENDBRANCH  23  26
ENDBRANCH   1  22
TORSDOF 16
ENDMDL
MODEL 2
REMARK VINA RESULT:      -7.7     14.589     17.649
REMARK  16 active torsions:
REMARK  status: ('A' for Active; 'I' for Inactive)
REMARK       I    between atoms: N_1  and  C_15 
REMARK    1  A    between atoms: C_4  and  C_5 
REMARK    2  A    between atoms: C_5  and  C_6 
REMARK    3  A    between atoms: C_5  and  N_21 
REMARK    4  A    between atoms: C_6  and  C_7 
REMARK    5  A    between atoms: C_7  and  N_8 
REMARK    6  A    between atoms: N_8  and  C_34 
REMARK    7  A    between atoms: C_10  and  C_17 
REMARK    8  A    between atoms: C_10  and  N_24 
REMARK    9  A    between atoms: N_13  and  C_19 
REMARK       I    between atoms: N_14  and  C_15 
REMARK   10  A    between atoms: C_17  and  C_18 
REMARK   11  A    between atoms: C_18  and  C_19 
REMARK   12  A    between atoms: C_19  and  C_20 
REMARK       I    between atoms: C_20  and  N_21 
REMARK   13  A    between atoms: C_23  and  C_34 
REMARK   14  A    between atoms: C_29  and  O_30 
REMARK   15  A    between atoms: C_32  and  C_35 
REMARK   16  A    between atoms: C_34  and  C_35 
ROOT
HETATM    1  C           1     -20.643  -9.711  -4.827  0.00  0.00     0.187 C 
ENDROOT
BRANCH   1   2
HETATM    2  C           1     -21.066 -10.919  -5.629  0.00  0.00     0.196 C 
HETATM    3  O           1     -21.986 -11.655  -5.210  0.00  0.00    -0.646 OA
HETATM    4  O           1     -20.496 -11.183  -6.709  0.00  0.00    -0.646 OA
ENDBRANCH   1   2
BRANCH   1   5
HETATM    5  C           1     -20.816 -10.000  -3.343  0.00  0.00     0.066 C 
BRANCH   5   6
HETATM    6  C           1     -19.582  -9.526  -2.585  0.00  0.00     0.273 C 
BRANCH   6   7
HETATM    7  N           1     -19.868  -8.272  -1.941  0.00  0.00     0.098 N 
HETATM    8  H           1     -19.781  -7.515  -2.619  0.00  0.00     0.317 HD
BRANCH   7   9
HETATM    9  C           1     -21.220  -8.327  -1.456  0.00  0.00     0.324 C 
BRANCH   9  10
HETATM   10  C           1     -21.867  -6.973  -1.617  0.00  0.00     0.207 C 
HETATM   11  O           1     -22.817  -6.643  -0.875  0.00  0.00    -0.646 OA
HETATM   12  O           1     -21.454  -6.183  -2.493  0.00  0.00    -0.646 OA
ENDBRANCH   9  10
BRANCH   9  13
HETATM   13  C           1     -21.215  -8.717   0.016  0.00  0.00     0.085 C 
BRANCH  13  14
HETATM   14  C           1     -21.850 -10.061   0.179  0.00  0.00    -0.055 A 
HETATM   15  C           1     -21.120 -11.118   0.724  0.00  0.00     0.010 A 
HETATM   16  C           1     -21.713 -12.370   0.877  0.00  0.00     0.037 A 
HETATM   17  C           1     -23.036 -12.569   0.484  0.00  0.00     0.065 A 
HETATM   18  C           1     -23.767 -11.513  -0.061  0.00  0.00     0.037 A 
HETATM   19  C           1     -23.174 -10.260  -0.214  0.00  0.00     0.010 A 
BRANCH  17  20
HETATM   20  O           1     -23.611 -13.786   0.632  0.00  0.00    -0.361 OA
HETATM   21  H           1     -23.151 -14.252   1.350  0.00  0.00     0.217 HD
ENDBRANCH  17  20
ENDBRANCH  13  14
ENDBRANCH   9  13
ENDBRANCH   7   9
ENDBRANCH   6   7
ENDBRANCH   5   6
ENDBRANCH   1   5
BRANCH   1  22
HETATM   22  N           1     -21.464  -8.575  -5.197  0.00  0.00    -0.345 N 
HETATM   23  C           1     -20.887  -7.461  -5.746  0.00  0.00     0.249 C 
HETATM   24  O           1     -19.692  -7.426  -5.921  0.00  0.00    -0.271 OA
HETATM   25  H           1     -22.465  -8.605  -5.050  0.00  0.00     0.163 HD
BRANCH  23  26
HETATM   26  C           1     -21.742  -6.279  -6.130  0.00  0.00     0.274 C 
BRANCH  26  27
HETATM   27  N           1     -22.758  -6.028  -5.055  0.00  0.00    -0.067 N 
HETATM   28  H           1     -23.023  -6.935  -4.608  0.00  0.00     0.275 HD
HETATM   29  H           1     -22.351  -5.391  -4.334  0.00  0.00     0.275 HD
HETATM   30  H           1     -23.606  -5.585  -5.475  0.00  0.00     0.275 HD
ENDBRANCH  26  27
BRANCH  26  31
HETATM   31  C           1     -20.862  -5.047  -6.293  0.00  0.00     0.044 C 
BRANCH  31  32
HETATM   32  C           1     -21.641  -3.958  -7.019  0.00  0.00     0.023 C 
BRANCH  32  33
HETATM   33  C           1     -22.284  -4.542  -8.270  0.00  0.00     0.138 C 
BRANCH  33  34
HETATM   34  N           1     -23.677  -4.080  -8.368  0.00  0.00    -0.227 N 
HETATM   35  C           1     -24.198  -3.877  -9.504  0.00  0.00     0.665 C 
HETATM   36  N           1     -23.503  -4.078 -10.584  0.00  0.00    -0.235 N 
HETATM   37  N           1     -25.397  -3.479  -9.588  0.00  0.00    -0.235 N 
HETATM   38  H           1     -23.933  -3.912 -11.520  0.00  0.00     0.174 HD
HETATM   39  H           1     -22.513  -4.407 -10.514  0.00  0.00     0.174 HD
HETATM   40  H           1     -25.829  -3.312 -10.529  0.00  0.00     0.174 HD
HETATM   41  H           1     -25.958  -3.317  -8.716  0.00  0.00     0.174 HD
HETATM   42  H           1     -24.238  -3.917  -7.495  0.00  0.00     0.177 HD
ENDBRANCH  33  34
ENDBRANCH  32  33
ENDBRANCH  31  32
ENDBRANCH  26  31
ENDBRANCH  23  26
ENDBRANCH   1  22
TORSDOF 16
ENDMDL
MODEL 3
REMARK VINA RESULT:      -7.4      2.390      4.789
REMARK  16 active torsions:
REMARK  status: ('A' for Active; 'I' for Inactive)
REMARK       I    between atoms: N_1  and  C_15 
REMARK    1  A    between atoms: C_4  and  C_5 
REMARK    2  A    between atoms: C_5  and  C_6 
REMARK    3  A    between atoms: C_5  and  N_21 
REMARK    4  A    between atoms: C_6  and  C_7 
REMARK    5  A    between atoms: C_7  and  N_8 
REMARK    6  A    between atoms: N_8  and  C_34 
REMARK    7  A    between atoms: C_10  and  C_17 
REMARK    8  A    between atoms: C_10  and  N_24 
REMARK    9  A    between atoms: N_13  and  C_19 
REMARK       I    between atoms: N_14  and  C_15 
REMARK   10  A    between atoms: C_17  and  C_18 
REMARK   11  A    between atoms: C_18  and  C_19 
REMARK   12  A    between atoms: C_19  and  C_20 
REMARK       I    between atoms: C_20  and  N_21 
REMARK   13  A    between atoms: C_23  and  C_34 
REMARK   14  A    between atoms: C_29  and  O_30 
REMARK   15  A    between atoms: C_32  and  C_35 
REMARK   16  A    between atoms: C_34  and  C_35 
ROOT
HETATM    1  C           1     -33.776  -4.418 -16.102  0.00  0.00     0.187 C 
ENDROOT
BRANCH   1   2
HETATM    2  C           1     -34.103  -3.057 -16.668  0.00  0.00     0.196 C 
HETATM    3  O           1     -35.055  -2.397 -16.198  0.00  0.00    -0.646 OA
HETATM    4  O           1     -33.423  -2.591 -17.607  0.00  0.00    -0.646 OA
ENDBRANCH   1   2
BRANCH   1   5
HETATM    5  C           1     -34.578  -4.644 -14.827  0.00  0.00     0.066 C 
BRANCH   5   6
HETATM    6  C           1     -33.836  -4.033 -13.645  0.00  0.00     0.273 C 
BRANCH   6   7
HETATM    7  N           1     -34.777  -3.693 -12.612  0.00  0.00     0.098 N 
HETATM    8  H           1     -34.721  -4.381 -11.861  0.00  0.00     0.317 HD
BRANCH   7   9
HETATM    9  C           1     -34.417  -2.398 -12.101  0.00  0.00     0.324 C 
BRANCH   9  10
HETATM   10  C           1     -33.731  -2.557 -10.766  0.00  0.00     0.207 C 
HETATM   11  O           1     -33.255  -1.558 -10.186  0.00  0.00    -0.646 OA
HETATM   12  O           1     -33.639  -3.688 -10.242  0.00  0.00    -0.646 OA
ENDBRANCH   9  10
BRANCH   9  13
HETATM   13  C           1     -35.672  -1.553 -11.931  0.00  0.00     0.085 C 
BRANCH  13  14
HETATM   14  C           1     -35.787  -0.593 -13.073  0.00  0.00    -0.055 A 
HETATM   15  C           1     -36.950  -0.561 -13.843  0.00  0.00     0.010 A 
HETATM   16  C           1     -37.058   0.335 -14.907  0.00  0.00     0.037 A 
HETATM   17  C           1     -36.002   1.197 -15.202  0.00  0.00     0.065 A 
HETATM   18  C           1     -34.839   1.165 -14.432  0.00  0.00     0.037 A 
HETATM   19  C           1     -34.732   0.269 -13.368  0.00  0.00     0.010 A 
BRANCH  17  20
HETATM   20  O           1     -36.106   2.067 -16.236  0.00  0.00    -0.361 OA
HETATM   21  H           1     -35.759   2.926 -15.942  0.00  0.00     0.217 HD
ENDBRANCH  17  20
ENDBRANCH  13  14
ENDBRANCH   9  13
ENDBRANCH   7   9
ENDBRANCH   6   7
ENDBRANCH   5   6
ENDBRANCH   1   5
BRANCH   1  22
HETATM   22  N           1     -32.360  -4.486 -15.799  0.00  0.00    -0.345 N 
HETATM   23  C           1     -31.540  -5.298 -16.537  0.00  0.00     0.249 C 
HETATM   24  O           1     -31.997  -5.956 -17.440  0.00  0.00    -0.271 OA
HETATM   25  H           1     -31.977  -3.934 -15.042  0.00  0.00     0.163 HD
BRANCH  23  26
HETATM   26  C           1     -30.066  -5.369 -16.221  0.00  0.00     0.274 C 
BRANCH  26  27
HETATM   27  N           1     -29.882  -5.637 -14.757  0.00  0.00    -0.067 N 
HETATM   28  H           1     -30.813  -5.632 -14.282  0.00  0.00     0.275 HD
HETATM   29  H           1     -29.431  -6.570 -14.628  0.00  0.00     0.275 HD
HETATM   30  H           1     -29.276  -4.895 -14.341  0.00  0.00     0.275 HD
ENDBRANCH  26  27
BRANCH  26  31
HETATM   31  C           1     -29.428  -6.493 -17.026  0.00  0.00     0.044 C 
BRANCH  31  32
HETATM   32  C           1     -28.162  -5.981 -17.701  0.00  0.00     0.023 C 
BRANCH  32  33
HETATM   33  C           1     -27.015  -5.986 -16.699  0.00  0.00     0.138 C 
BRANCH  33  34
HETATM   34  N           1     -25.880  -6.737 -17.255  0.00  0.00    -0.227 N 
HETATM   35  C           1     -24.869  -6.983 -16.534  0.00  0.00     0.665 C 
HETATM   36  N           1     -24.834  -6.572 -15.301  0.00  0.00    -0.235 N 
HETATM   37  N           1     -23.892  -7.630 -17.013  0.00  0.00    -0.235 N 
HETATM   38  H           1     -24.001  -6.775 -14.705  0.00  0.00     0.174 HD
HETATM   39  H           1     -25.641  -6.038 -14.905  0.00  0.00     0.174 HD
HETATM   40  H           1     -23.054  -7.834 -16.415  0.00  0.00     0.174 HD
HETATM   41  H           1     -23.920  -7.962 -18.008  0.00  0.00     0.174 HD
HETATM   42  H           1     -25.908  -7.069 -18.251  0.00  0.00     0.177 HD
ENDBRANCH  33  34
ENDBRANCH  32  33
ENDBRANCH  31  32
ENDBRANCH  26  31
ENDBRANCH  23  26
ENDBRANCH   1  22
TORSDOF 16
ENDMDL
MODEL 4
REMARK VINA RESULT:      -7.3      2.510      3.996
REMARK  16 active torsions:
REMARK  status: ('A' for Active; 'I' for Inactive)
REMARK       I    between atoms: N_1  and  C_15 
REMARK    1  A    between atoms: C_4  and  C_5 
REMARK    2  A    between atoms: C_5  and  C_6 
REMARK    3  A    between atoms: C_5  and  N_21 
REMARK    4  A    between atoms: C_6  and  C_7 
REMARK    5  A    between atoms: C_7  and  N_8 
REMARK    6  A    between atoms: N_8  and  C_34 
REMARK    7  A    between atoms: C_10  and  C_17 
REMARK    8  A    between atoms: C_10  and  N_24 
REMARK    9  A    between atoms: N_13  and  C_19 
REMARK       I    between atoms: N_14  and  C_15 
REMARK   10  A    between atoms: C_17  and  C_18 
REMARK   11  A    between atoms: C_18  and  C_19 
REMARK   12  A    between atoms: C_19  and  C_20 
REMARK       I    between atoms: C_20  and  N_21 
REMARK   13  A    between atoms: C_23  and  C_34 
REMARK   14  A    between atoms: C_29  and  O_30 
REMARK   15  A    between atoms: C_32  and  C_35 
REMARK   16  A    between atoms: C_34  and  C_35 
ROOT
HETATM    1  C           1     -33.039  -4.593 -16.502  0.00  0.00     0.187 C 
ENDROOT
BRANCH   1   2
HETATM    2  C           1     -33.139  -3.283 -17.246  0.00  0.00     0.196 C 
HETATM    3  O           1     -34.167  -2.580 -17.139  0.00  0.00    -0.646 OA
HETATM    4  O           1     -32.194  -2.903 -17.970  0.00  0.00    -0.646 OA
ENDBRANCH   1   2
BRANCH   1   5
HETATM    5  C           1     -34.132  -4.661 -15.445  0.00  0.00     0.066 C 
BRANCH   5   6
HETATM    6  C           1     -33.628  -4.031 -14.152  0.00  0.00     0.273 C 
BRANCH   6   7
HETATM    7  N           1     -34.410  -2.861 -13.852  0.00  0.00     0.098 N 
HETATM    8  H           1     -35.308  -2.921 -14.331  0.00  0.00     0.317 HD
BRANCH   7   9
HETATM    9  C           1     -34.626  -2.833 -12.431  0.00  0.00     0.324 C 
BRANCH   9  10
HETATM   10  C           1     -34.801  -1.404 -11.977  0.00  0.00     0.207 C 
HETATM   11  O           1     -34.866  -0.484 -12.820  0.00  0.00    -0.646 OA
HETATM   12  O           1     -34.880  -1.142 -10.757  0.00  0.00    -0.646 OA
ENDBRANCH   9  10
BRANCH   9  13
HETATM   13  C           1     -33.427  -3.448 -11.723  0.00  0.00     0.085 C 
BRANCH  13  14
HETATM   14  C           1     -33.818  -4.766 -11.132  0.00  0.00    -0.055 A 
HETATM   15  C           1     -32.943  -5.850 -11.201  0.00  0.00     0.010 A 
HETATM   16  C           1     -33.307  -7.077 -10.649  0.00  0.00     0.037 A 
HETATM   17  C           1     -34.547  -7.223 -10.028  0.00  0.00     0.065 A 
HETATM   18  C           1     -35.423  -6.139  -9.958  0.00  0.00     0.037 A 
HETATM   19  C           1     -35.058  -4.911 -10.511  0.00  0.00     0.010 A 
BRANCH  17  20
HETATM   20  O           1     -34.901  -8.415  -9.492  0.00  0.00    -0.361 OA
HETATM   21  H           1     -35.872  -8.454  -9.459  0.00  0.00     0.217 HD
ENDBRANCH  17  20
ENDBRANCH  13  14
ENDBRANCH   9  13
ENDBRANCH   7   9
ENDBRANCH   6   7
ENDBRANCH   5   6
ENDBRANCH   1   5
BRANCH   1  22
HETATM   22  N           1     -31.742  -4.686 -15.862  0.00  0.00    -0.345 N 
HETATM   23  C           1     -30.722  -5.362 -16.477  0.00  0.00     0.249 C 
HETATM   24  O           1     -30.904  -5.881 -17.552  0.00  0.00    -0.271 OA
HETATM   25  H           1     -31.590  -4.251 -14.961  0.00  0.00     0.163 HD
BRANCH  23  26
HETATM   26  C           1     -29.371  -5.460 -15.810  0.00  0.00     0.274 C 
BRANCH  26  27
HETATM   27  N           1     -29.546  -5.927 -14.396  0.00  0.00    -0.067 N 
HETATM   28  H           1     -28.640  -6.309 -14.041  0.00  0.00     0.275 HD
HETATM   29  H           1     -29.843  -5.124 -13.798  0.00  0.00     0.275 HD
HETATM   30  H           1     -30.275  -6.674 -14.364  0.00  0.00     0.275 HD
ENDBRANCH  26  27
BRANCH  26  31
HETATM   31  C           1     -28.501  -6.452 -16.568  0.00  0.00     0.044 C 
BRANCH  31  32
HETATM   32  C           1     -27.544  -7.134 -15.599  0.00  0.00     0.023 C 
BRANCH  32  33
HETATM   33  C           1     -26.141  -6.572 -15.790  0.00  0.00     0.138 C 
BRANCH  33  34
HETATM   34  N           1     -25.739  -6.723 -17.196  0.00  0.00    -0.227 N 
HETATM   35  C           1     -24.640  -7.282 -17.484  0.00  0.00     0.665 C 
HETATM   36  N           1     -23.868  -7.723 -16.536  0.00  0.00    -0.235 N 
HETATM   37  N           1     -24.295  -7.413 -18.695  0.00  0.00    -0.235 N 
HETATM   38  H           1     -22.962  -8.185 -16.773  0.00  0.00     0.174 HD
HETATM   39  H           1     -24.153  -7.616 -15.537  0.00  0.00     0.174 HD
HETATM   40  H           1     -23.384  -7.876 -18.933  0.00  0.00     0.174 HD
HETATM   41  H           1     -24.919  -7.056 -19.460  0.00  0.00     0.174 HD
HETATM   42  H           1     -26.364  -6.367 -17.961  0.00  0.00     0.177 HD
ENDBRANCH  33  34
ENDBRANCH  32  33
ENDBRANCH  31  32
ENDBRANCH  26  31
ENDBRANCH  23  26
ENDBRANCH   1  22
TORSDOF 16
ENDMDL
MODEL 5
REMARK VINA RESULT:      -7.2     14.586     17.520
REMARK  16 active torsions:
REMARK  status: ('A' for Active; 'I' for Inactive)
REMARK       I    between atoms: N_1  and  C_15 
REMARK    1  A    between atoms: C_4  and  C_5 
REMARK    2  A    between atoms: C_5  and  C_6 
REMARK    3  A    between atoms: C_5  and  N_21 
REMARK    4  A    between atoms: C_6  and  C_7 
REMARK    5  A    between atoms: C_7  and  N_8 
REMARK    6  A    between atoms: N_8  and  C_34 
REMARK    7  A    between atoms: C_10  and  C_17 
REMARK    8  A    between atoms: C_10  and  N_24 
REMARK    9  A    between atoms: N_13  and  C_19 
REMARK       I    between atoms: N_14  and  C_15 
REMARK   10  A    between atoms: C_17  and  C_18 
REMARK   11  A    between atoms: C_18  and  C_19 
REMARK   12  A    between atoms: C_19  and  C_20 
REMARK       I    between atoms: C_20  and  N_21 
REMARK   13  A    between atoms: C_23  and  C_34 
REMARK   14  A    between atoms: C_29  and  O_30 
REMARK   15  A    between atoms: C_32  and  C_35 
REMARK   16  A    between atoms: C_34  and  C_35 
ROOT
HETATM    1  C           1     -19.850  -8.150  -5.149  0.00  0.00     0.187 C 
ENDROOT
BRANCH   1   2
HETATM    2  C           1     -18.600  -8.973  -5.348  0.00  0.00     0.196 C 
HETATM    3  O           1     -18.033  -9.496  -4.365  0.00  0.00    -0.646 OA
HETATM    4  O           1     -18.132  -9.130  -6.497  0.00  0.00    -0.646 OA
ENDBRANCH   1   2
BRANCH   1   5
HETATM    5  C           1     -21.074  -9.047  -5.278  0.00  0.00     0.066 C 
BRANCH   5   6
HETATM    6  C           1     -21.754  -9.177  -3.921  0.00  0.00     0.273 C 
BRANCH   6   7
HETATM    7  N           1     -21.224  -8.188  -3.022  0.00  0.00     0.098 N 
HETATM    8  H           1     -21.371  -7.258  -3.415  0.00  0.00     0.317 HD
BRANCH   7   9
HETATM    9  C           1     -21.937  -8.300  -1.779  0.00  0.00     0.324 C 
BRANCH   9  10
HETATM   10  C           1     -22.326  -6.924  -1.296  0.00  0.00     0.207 C 
HETATM   11  O           1     -22.301  -5.955  -2.085  0.00  0.00    -0.646 OA
HETATM   12  O           1     -22.673  -6.755  -0.107  0.00  0.00    -0.646 OA
ENDBRANCH   9  10
BRANCH   9  13
HETATM   13  C           1     -21.045  -8.969  -0.742  0.00  0.00     0.085 C 
BRANCH  13  14
HETATM   14  C           1     -21.707 -10.215  -0.242  0.00  0.00    -0.055 A 
HETATM   15  C           1     -20.956 -11.188   0.418  0.00  0.00     0.010 A 
HETATM   16  C           1     -21.574 -12.348   0.885  0.00  0.00     0.037 A 
HETATM   17  C           1     -22.942 -12.537   0.690  0.00  0.00     0.065 A 
HETATM   18  C           1     -23.693 -11.564   0.030  0.00  0.00     0.037 A 
HETATM   19  C           1     -23.075 -10.404  -0.437  0.00  0.00     0.010 A 
BRANCH  17  20
HETATM   20  O           1     -23.542 -13.664   1.142  0.00  0.00    -0.361 OA
HETATM   21  H           1     -24.311 -13.843   0.576  0.00  0.00     0.217 HD
ENDBRANCH  17  20
ENDBRANCH  13  14
ENDBRANCH   9  13
ENDBRANCH   7   9
ENDBRANCH   6   7
ENDBRANCH   5   6
ENDBRANCH   1   5
BRANCH   1  22
HETATM   22  N           1     -19.907  -7.109  -6.156  0.00  0.00    -0.345 N 
HETATM   23  C           1     -20.365  -5.861  -5.826  0.00  0.00     0.249 C 
HETATM   24  O           1     -20.722  -5.629  -4.695  0.00  0.00    -0.271 OA
HETATM   25  H           1     -19.608  -7.303  -7.103  0.00  0.00     0.163 HD
BRANCH  23  26
HETATM   26  C           1     -20.425  -4.777  -6.874  0.00  0.00     0.274 C 
BRANCH  26  27
HETATM   27  N           1     -19.053  -4.551  -7.436  0.00  0.00    -0.067 N 
HETATM   28  H           1     -18.703  -3.613  -7.134  0.00  0.00     0.275 HD
HETATM   29  H           1     -18.406  -5.292  -7.084  0.00  0.00     0.275 HD
HETATM   30  H           1     -19.093  -4.588  -8.479  0.00  0.00     0.275 HD
ENDBRANCH  26  27
BRANCH  26  31
HETATM   31  C           1     -21.366  -5.202  -7.992  0.00  0.00     0.044 C 
BRANCH  31  32
HETATM   32  C           1     -22.649  -4.385  -7.916  0.00  0.00     0.023 C 
BRANCH  32  33
HETATM   33  C           1     -23.118  -4.043  -9.325  0.00  0.00     0.138 C 
BRANCH  33  34
HETATM   34  N           1     -21.981  -3.542 -10.113  0.00  0.00    -0.227 N 
HETATM   35  C           1     -21.817  -3.932 -11.306  0.00  0.00     0.665 C 
HETATM   36  N           1     -22.652  -4.775 -11.835  0.00  0.00    -0.235 N 
HETATM   37  N           1     -20.839  -3.499 -11.983  0.00  0.00    -0.235 N 
HETATM   38  H           1     -22.517  -5.097 -12.819  0.00  0.00     0.174 HD
HETATM   39  H           1     -23.460  -5.132 -11.275  0.00  0.00     0.174 HD
HETATM   40  H           1     -20.703  -3.823 -12.972  0.00  0.00     0.174 HD
HETATM   41  H           1     -20.164  -2.819 -11.555  0.00  0.00     0.174 HD
HETATM   42  H           1     -21.307  -2.860  -9.684  0.00  0.00     0.177 HD
ENDBRANCH  33  34
ENDBRANCH  32  33
ENDBRANCH  31  32
ENDBRANCH  26  31
ENDBRANCH  23  26
ENDBRANCH   1  22
TORSDOF 16
ENDMDL
MODEL 6
REMARK VINA RESULT:      -7.1     15.364     18.671
REMARK  16 active torsions:
REMARK  status: ('A' for Active; 'I' for Inactive)
REMARK       I    between atoms: N_1  and  C_15 
REMARK    1  A    between atoms: C_4  and  C_5 
REMARK    2  A    between atoms: C_5  and  C_6 
REMARK    3  A    between atoms: C_5  and  N_21 
REMARK    4  A    between atoms: C_6  and  C_7 
REMARK    5  A    between atoms: C_7  and  N_8 
REMARK    6  A    between atoms: N_8  and  C_34 
REMARK    7  A    between atoms: C_10  and  C_17 
REMARK    8  A    between atoms: C_10  and  N_24 
REMARK    9  A    between atoms: N_13  and  C_19 
REMARK       I    between atoms: N_14  and  C_15 
REMARK   10  A    between atoms: C_17  and  C_18 
REMARK   11  A    between atoms: C_18  and  C_19 
REMARK   12  A    between atoms: C_19  and  C_20 
REMARK       I    between atoms: C_20  and  N_21 
REMARK   13  A    between atoms: C_23  and  C_34 
REMARK   14  A    between atoms: C_29  and  O_30 
REMARK   15  A    between atoms: C_32  and  C_35 
REMARK   16  A    between atoms: C_34  and  C_35 
ROOT
HETATM    1  C           1     -20.077  -9.081  -4.365  0.00  0.00     0.187 C 
ENDROOT
BRANCH   1   2
HETATM    2  C           1     -21.062 -10.124  -4.837  0.00  0.00     0.196 C 
HETATM    3  O           1     -21.837 -10.666  -4.020  0.00  0.00    -0.646 OA
HETATM    4  O           1     -21.099 -10.446  -6.044  0.00  0.00    -0.646 OA
ENDBRANCH   1   2
BRANCH   1   5
HETATM    5  C           1     -19.669  -9.381  -2.929  0.00  0.00     0.066 C 
BRANCH   5   6
HETATM    6  C           1     -18.664 -10.525  -2.914  0.00  0.00     0.273 C 
BRANCH   6   7
HETATM    7  N           1     -19.238 -11.660  -2.242  0.00  0.00     0.098 N 
HETATM    8  H           1     -18.736 -12.505  -2.514  0.00  0.00     0.317 HD
BRANCH   7   9
HETATM    9  C           1     -19.093 -11.451  -0.828  0.00  0.00     0.324 C 
BRANCH   9  10
HETATM   10  C           1     -17.903 -12.231  -0.323  0.00  0.00     0.207 C 
HETATM   11  O           1     -16.764 -11.719  -0.345  0.00  0.00    -0.646 OA
HETATM   12  O           1     -18.059 -13.392   0.115  0.00  0.00    -0.646 OA
ENDBRANCH   9  10
BRANCH   9  13
HETATM   13  C           1     -20.352 -11.923  -0.113  0.00  0.00     0.085 C 
BRANCH  13  14
HETATM   14  C           1     -21.285 -10.768   0.071  0.00  0.00    -0.055 A 
HETATM   15  C           1     -20.820  -9.575   0.624  0.00  0.00     0.010 A 
HETATM   16  C           1     -21.689  -8.499   0.794  0.00  0.00     0.037 A 
HETATM   17  C           1     -23.026  -8.614   0.413  0.00  0.00     0.065 A 
HETATM   18  C           1     -23.493  -9.807  -0.141  0.00  0.00     0.037 A 
HETATM   19  C           1     -22.622 -10.884  -0.310  0.00  0.00     0.010 A 
BRANCH  17  20
HETATM   20  O           1     -23.871  -7.569   0.579  0.00  0.00    -0.361 OA
HETATM   21  H           1     -24.767  -7.866   0.343  0.00  0.00     0.217 HD
ENDBRANCH  17  20
ENDBRANCH  13  14
ENDBRANCH   9  13
ENDBRANCH   7   9
ENDBRANCH   6   7
ENDBRANCH   5   6
ENDBRANCH   1   5
BRANCH   1  22
HETATM   22  N           1     -20.695  -7.772  -4.427  0.00  0.00    -0.345 N 
HETATM   23  C           1     -20.439  -6.943  -5.487  0.00  0.00     0.249 C 
HETATM   24  O           1     -19.698  -7.304  -6.370  0.00  0.00    -0.271 OA
HETATM   25  H           1     -21.316  -7.469  -3.688  0.00  0.00     0.163 HD
BRANCH  23  26
HETATM   26  C           1     -21.083  -5.579  -5.552  0.00  0.00     0.274 C 
BRANCH  26  27
HETATM   27  N           1     -20.028  -4.523  -5.405  0.00  0.00    -0.067 N 
HETATM   28  H           1     -20.226  -3.738  -6.067  0.00  0.00     0.275 HD
HETATM   29  H           1     -20.032  -4.160  -4.426  0.00  0.00     0.275 HD
HETATM   30  H           1     -19.092  -4.933  -5.622  0.00  0.00     0.275 HD
ENDBRANCH  26  27
BRANCH  26  31
HETATM   31  C           1     -21.784  -5.412  -6.893  0.00  0.00     0.044 C 
BRANCH  31  32
HETATM   32  C           1     -21.705  -3.955  -7.330  0.00  0.00     0.023 C 
BRANCH  32  33
HETATM   33  C           1     -22.198  -3.828  -8.766  0.00  0.00     0.138 C 
BRANCH  33  34
HETATM   34  N           1     -23.627  -3.477  -8.765  0.00  0.00    -0.227 N 
HETATM   35  C           1     -24.379  -3.887  -9.697  0.00  0.00     0.665 C 
HETATM   36  N           1     -23.890  -4.617 -10.655  0.00  0.00    -0.235 N 
HETATM   37  N           1     -25.609  -3.585  -9.696  0.00  0.00    -0.235 N 
HETATM   38  H           1     -24.511  -4.955 -11.423  0.00  0.00     0.174 HD
HETATM   39  H           1     -22.875  -4.866 -10.656  0.00  0.00     0.174 HD
HETATM   40  H           1     -26.233  -3.924 -10.469  0.00  0.00     0.174 HD
HETATM   41  H           1     -26.003  -2.995  -8.923  0.00  0.00     0.174 HD
HETATM   42  H           1     -24.021  -2.887  -7.991  0.00  0.00     0.177 HD
ENDBRANCH  33  34
ENDBRANCH  32  33
ENDBRANCH  31  32
ENDBRANCH  26  31
ENDBRANCH  23  26
ENDBRANCH   1  22
TORSDOF 16
ENDMDL
MODEL 7
REMARK VINA RESULT:      -7.0     14.344     17.458
REMARK  16 active torsions:
REMARK  status: ('A' for Active; 'I' for Inactive)
REMARK       I    between atoms: N_1  and  C_15 
REMARK    1  A    between atoms: C_4  and  C_5 
REMARK    2  A    between atoms: C_5  and  C_6 
REMARK    3  A    between atoms: C_5  and  N_21 
REMARK    4  A    between atoms: C_6  and  C_7 
REMARK    5  A    between atoms: C_7  and  N_8 
REMARK    6  A    between atoms: N_8  and  C_34 
REMARK    7  A    between atoms: C_10  and  C_17 
REMARK    8  A    between atoms: C_10  and  N_24 
REMARK    9  A    between atoms: N_13  and  C_19 
REMARK       I    between atoms: N_14  and  C_15 
REMARK   10  A    between atoms: C_17  and  C_18 
REMARK   11  A    between atoms: C_18  and  C_19 
REMARK   12  A    between atoms: C_19  and  C_20 
REMARK       I    between atoms: C_20  and  N_21 
REMARK   13  A    between atoms: C_23  and  C_34 
REMARK   14  A    between atoms: C_29  and  O_30 
REMARK   15  A    between atoms: C_32  and  C_35 
REMARK   16  A    between atoms: C_34  and  C_35 
ROOT
HETATM    1  C           1     -22.030  -6.845  -4.538  0.00  0.00     0.187 C 
ENDROOT
BRANCH   1   2
HETATM    2  C           1     -21.896  -6.181  -3.189  0.00  0.00     0.196 C 
HETATM    3  O           1     -22.888  -6.098  -2.433  0.00  0.00    -0.646 OA
HETATM    4  O           1     -20.794  -5.713  -2.830  0.00  0.00    -0.646 OA
ENDBRANCH   1   2
BRANCH   1   5
HETATM    5  C           1     -21.791  -8.342  -4.394  0.00  0.00     0.066 C 
BRANCH   5   6
HETATM    6  C           1     -20.348  -8.664  -4.760  0.00  0.00     0.273 C 
BRANCH   6   7
HETATM    7  N           1     -19.973  -9.923  -4.173  0.00  0.00     0.098 N 
HETATM    8  H           1     -19.409 -10.452  -4.838  0.00  0.00     0.317 HD
BRANCH   7   9
HETATM    9  C           1     -19.193  -9.643  -2.999  0.00  0.00     0.324 C 
BRANCH   9  10
HETATM   10  C           1     -17.742  -9.951  -3.275  0.00  0.00     0.207 C 
HETATM   11  O           1     -17.437 -10.831  -4.108  0.00  0.00    -0.646 OA
HETATM   12  O           1     -16.845  -9.327  -2.668  0.00  0.00    -0.646 OA
ENDBRANCH   9  10
BRANCH   9  13
HETATM   13  C           1     -19.687 -10.506  -1.846  0.00  0.00     0.085 C 
BRANCH  13  14
HETATM   14  C           1     -20.804  -9.805  -1.139  0.00  0.00    -0.055 A 
HETATM   15  C           1     -20.606  -8.526  -0.617  0.00  0.00     0.010 A 
HETATM   16  C           1     -21.647  -7.872   0.040  0.00  0.00     0.037 A 
HETATM   17  C           1     -22.887  -8.497   0.178  0.00  0.00     0.065 A 
HETATM   18  C           1     -23.085  -9.776  -0.343  0.00  0.00     0.037 A 
HETATM   19  C           1     -22.043 -10.430  -1.001  0.00  0.00     0.010 A 
BRANCH  17  20
HETATM   20  O           1     -23.898  -7.862   0.818  0.00  0.00    -0.361 OA
HETATM   21  H           1     -24.155  -8.402   1.585  0.00  0.00     0.217 HD
ENDBRANCH  17  20
ENDBRANCH  13  14
ENDBRANCH   9  13
ENDBRANCH   7   9
ENDBRANCH   6   7
ENDBRANCH   5   6
ENDBRANCH   1   5
BRANCH   1  22
HETATM   22  N           1     -21.051  -6.287  -5.450  0.00  0.00    -0.345 N 
HETATM   23  C           1     -21.423  -5.321  -6.347  0.00  0.00     0.249 C 
HETATM   24  O           1     -22.567  -4.936  -6.379  0.00  0.00    -0.271 OA
HETATM   25  H           1     -20.092  -6.609  -5.423  0.00  0.00     0.163 HD
BRANCH  23  26
HETATM   26  C           1     -20.403  -4.740  -7.296  0.00  0.00     0.274 C 
BRANCH  26  27
HETATM   27  N           1     -19.785  -5.844  -8.101  0.00  0.00    -0.067 N 
HETATM   28  H           1     -19.154  -6.410  -7.490  0.00  0.00     0.275 HD
HETATM   29  H           1     -20.537  -6.458  -8.486  0.00  0.00     0.275 HD
HETATM   30  H           1     -19.232  -5.434  -8.887  0.00  0.00     0.275 HD
ENDBRANCH  26  27
BRANCH  26  31
HETATM   31  C           1     -21.086  -3.751  -8.232  0.00  0.00     0.044 C 
BRANCH  31  32
HETATM   32  C           1     -20.517  -3.905  -9.637  0.00  0.00     0.023 C 
BRANCH  32  33
HETATM   33  C           1     -21.642  -3.778 -10.656  0.00  0.00     0.138 C 
BRANCH  33  34
HETATM   34  N           1     -22.926  -3.629  -9.956  0.00  0.00    -0.227 N 
HETATM   35  C           1     -23.949  -4.249 -10.369  0.00  0.00     0.665 C 
HETATM   36  N           1     -23.865  -5.018 -11.414  0.00  0.00    -0.235 N 
HETATM   37  N           1     -25.054  -4.120  -9.765  0.00  0.00    -0.235 N 
HETATM   38  H           1     -24.709  -5.530 -11.755  0.00  0.00     0.174 HD
HETATM   39  H           1     -22.953  -5.124 -11.912  0.00  0.00     0.174 HD
HETATM   40  H           1     -25.902  -4.634 -10.108  0.00  0.00     0.174 HD
HETATM   41  H           1     -25.122  -3.498  -8.922  0.00  0.00     0.174 HD
HETATM   42  H           1     -22.993  -3.007  -9.112  0.00  0.00     0.177 HD
ENDBRANCH  33  34
ENDBRANCH  32  33
ENDBRANCH  31  32
ENDBRANCH  26  31
ENDBRANCH  23  26
ENDBRANCH   1  22
TORSDOF 16
ENDMDL
MODEL 8
REMARK VINA RESULT:      -6.9     15.033     18.227
REMARK  16 active torsions:
REMARK  status: ('A' for Active; 'I' for Inactive)
REMARK       I    between atoms: N_1  and  C_15 
REMARK    1  A    between atoms: C_4  and  C_5 
REMARK    2  A    between atoms: C_5  and  C_6 
REMARK    3  A    between atoms: C_5  and  N_21 
REMARK    4  A    between atoms: C_6  and  C_7 
REMARK    5  A    between atoms: C_7  and  N_8 
REMARK    6  A    between atoms: N_8  and  C_34 
REMARK    7  A    between atoms: C_10  and  C_17 
REMARK    8  A    between atoms: C_10  and  N_24 
REMARK    9  A    between atoms: N_13  and  C_19 
REMARK       I    between atoms: N_14  and  C_15 
REMARK   10  A    between atoms: C_17  and  C_18 
REMARK   11  A    between atoms: C_18  and  C_19 
REMARK   12  A    between atoms: C_19  and  C_20 
REMARK       I    between atoms: C_20  and  N_21 
REMARK   13  A    between atoms: C_23  and  C_34 
REMARK   14  A    between atoms: C_29  and  O_30 
REMARK   15  A    between atoms: C_32  and  C_35 
REMARK   16  A    between atoms: C_34  and  C_35 
ROOT
HETATM    1  C           1     -20.836  -7.885  -2.854  0.00  0.00     0.187 C 
ENDROOT
BRANCH   1   2
HETATM    2  C           1     -21.672  -8.630  -1.841  0.00  0.00     0.196 C 
HETATM    3  O           1     -21.839  -9.863  -1.953  0.00  0.00    -0.646 OA
HETATM    4  O           1     -22.199  -8.011  -0.891  0.00  0.00    -0.646 OA
ENDBRANCH   1   2
BRANCH   1   5
HETATM    5  C           1     -21.627  -6.702  -3.394  0.00  0.00     0.066 C 
BRANCH   5   6
HETATM    6  C           1     -21.898  -6.906  -4.880  0.00  0.00     0.273 C 
BRANCH   6   7
HETATM    7  N           1     -22.351  -5.670  -5.459  0.00  0.00     0.098 N 
HETATM    8  H           1     -22.137  -4.900  -4.825  0.00  0.00     0.317 HD
BRANCH   7   9
HETATM    9  C           1     -21.643  -5.481  -6.695  0.00  0.00     0.324 C 
BRANCH   9  10
HETATM   10  C           1     -20.169  -5.724  -6.473  0.00  0.00     0.207 C 
HETATM   11  O           1     -19.646  -6.790  -6.863  0.00  0.00    -0.646 OA
HETATM   12  O           1     -19.474  -4.859  -5.899  0.00  0.00    -0.646 OA
ENDBRANCH   9  10
BRANCH   9  13
HETATM   13  C           1     -21.854  -4.056  -7.189  0.00  0.00     0.085 C 
BRANCH  13  14
HETATM   14  C           1     -21.822  -4.035  -8.685  0.00  0.00    -0.055 A 
HETATM   15  C           1     -20.600  -4.003  -9.356  0.00  0.00     0.010 A 
HETATM   16  C           1     -20.570  -3.985 -10.750  0.00  0.00     0.037 A 
HETATM   17  C           1     -21.762  -3.997 -11.474  0.00  0.00     0.065 A 
HETATM   18  C           1     -22.985  -4.029 -10.803  0.00  0.00     0.037 A 
HETATM   19  C           1     -23.014  -4.047  -9.409  0.00  0.00     0.010 A 
BRANCH  17  20
HETATM   20  O           1     -21.733  -3.978 -12.828  0.00  0.00    -0.361 OA
HETATM   21  H           1     -22.630  -3.777 -13.145  0.00  0.00     0.217 HD
ENDBRANCH  17  20
ENDBRANCH  13  14
ENDBRANCH   9  13
ENDBRANCH   7   9
ENDBRANCH   6   7
ENDBRANCH   5   6
ENDBRANCH   1   5
BRANCH   1  22
HETATM   22  N           1     -20.497  -8.776  -3.946  0.00  0.00    -0.345 N 
HETATM   23  C           1     -19.240  -9.315  -4.025  0.00  0.00     0.249 C 
HETATM   24  O           1     -18.415  -9.047  -3.184  0.00  0.00    -0.271 OA
HETATM   25  H           1     -21.188  -9.000  -4.650  0.00  0.00     0.163 HD
BRANCH  23  26
HETATM   26  C           1     -18.886 -10.242  -5.161  0.00  0.00     0.274 C 
BRANCH  26  27
HETATM   27  N           1     -20.101 -10.479  -6.009  0.00  0.00    -0.067 N 
HETATM   28  H           1     -20.928 -10.645  -5.392  0.00  0.00     0.275 HD
HETATM   29  H           1     -20.276  -9.641  -6.607  0.00  0.00     0.275 HD
HETATM   30  H           1     -19.944 -11.315  -6.615  0.00  0.00     0.275 HD
ENDBRANCH  26  27
BRANCH  26  31
HETATM   31  C           1     -17.791  -9.610  -6.010  0.00  0.00     0.044 C 
BRANCH  31  32
HETATM   32  C           1     -16.565 -10.514  -6.014  0.00  0.00     0.023 C 
BRANCH  32  33
HETATM   33  C           1     -15.676 -10.168  -4.827  0.00  0.00     0.138 C 
BRANCH  33  34
HETATM   34  N           1     -15.280 -11.402  -4.132  0.00  0.00    -0.227 N 
HETATM   35  C           1     -15.450 -11.508  -2.882  0.00  0.00     0.665 C 
HETATM   36  N           1     -15.973 -10.524  -2.212  0.00  0.00    -0.235 N 
HETATM   37  N           1     -15.110 -12.571  -2.285  0.00  0.00    -0.235 N 
HETATM   38  H           1     -16.113 -10.611  -1.181  0.00  0.00     0.174 HD
HETATM   39  H           1     -16.253  -9.647  -2.705  0.00  0.00     0.174 HD
HETATM   40  H           1     -15.250 -12.658  -1.249  0.00  0.00     0.174 HD
HETATM   41  H           1     -14.687 -13.364  -2.827  0.00  0.00     0.174 HD
HETATM   42  H           1     -14.858 -12.196  -4.675  0.00  0.00     0.177 HD
ENDBRANCH  33  34
ENDBRANCH  32  33
ENDBRANCH  31  32
ENDBRANCH  26  31
ENDBRANCH  23  26
ENDBRANCH   1  22
TORSDOF 16
ENDMDL
MODEL 9
REMARK VINA RESULT:      -6.9     14.255     17.573
REMARK  16 active torsions:
REMARK  status: ('A' for Active; 'I' for Inactive)
REMARK       I    between atoms: N_1  and  C_15 
REMARK    1  A    between atoms: C_4  and  C_5 
REMARK    2  A    between atoms: C_5  and  C_6 
REMARK    3  A    between atoms: C_5  and  N_21 
REMARK    4  A    between atoms: C_6  and  C_7 
REMARK    5  A    between atoms: C_7  and  N_8 
REMARK    6  A    between atoms: N_8  and  C_34 
REMARK    7  A    between atoms: C_10  and  C_17 
REMARK    8  A    between atoms: C_10  and  N_24 
REMARK    9  A    between atoms: N_13  and  C_19 
REMARK       I    between atoms: N_14  and  C_15 
REMARK   10  A    between atoms: C_17  and  C_18 
REMARK   11  A    between atoms: C_18  and  C_19 
REMARK   12  A    between atoms: C_19  and  C_20 
REMARK       I    between atoms: C_20  and  N_21 
REMARK   13  A    between atoms: C_23  and  C_34 
REMARK   14  A    between atoms: C_29  and  O_30 
REMARK   15  A    between atoms: C_32  and  C_35 
REMARK   16  A    between atoms: C_34  and  C_35 
ROOT
HETATM    1  C           1     -21.348  -7.554  -2.729  0.00  0.00     0.187 C 
ENDROOT
BRANCH   1   2
HETATM    2  C           1     -22.116  -6.894  -1.609  0.00  0.00     0.196 C 
HETATM    3  O           1     -22.478  -5.702  -1.718  0.00  0.00    -0.646 OA
HETATM    4  O           1     -22.386  -7.538  -0.573  0.00  0.00    -0.646 OA
ENDBRANCH   1   2
BRANCH   1   5
HETATM    5  C           1     -20.140  -8.282  -2.156  0.00  0.00     0.066 C 
BRANCH   5   6
HETATM    6  C           1     -20.096  -9.704  -2.703  0.00  0.00     0.273 C 
BRANCH   6   7
HETATM    7  N           1     -21.060  -9.840  -3.762  0.00  0.00     0.098 N 
HETATM    8  H           1     -20.674  -9.453  -4.623  0.00  0.00     0.317 HD
BRANCH   7   9
HETATM    9  C           1     -21.316 -11.243  -3.941  0.00  0.00     0.324 C 
BRANCH   9  10
HETATM   10  C           1     -20.950 -11.645  -5.349  0.00  0.00     0.207 C 
HETATM   11  O           1     -20.377 -12.736  -5.558  0.00  0.00    -0.646 OA
HETATM   12  O           1     -21.220 -10.886  -6.306  0.00  0.00    -0.646 OA
ENDBRANCH   9  10
BRANCH   9  13
HETATM   13  C           1     -22.794 -11.522  -3.701  0.00  0.00     0.085 C 
BRANCH  13  14
HETATM   14  C           1     -22.995 -11.962  -2.285  0.00  0.00    -0.055 A 
HETATM   15  C           1     -23.478 -11.061  -1.335  0.00  0.00     0.010 A 
HETATM   16  C           1     -23.666 -11.472  -0.016  0.00  0.00     0.037 A 
HETATM   17  C           1     -23.371 -12.783   0.356  0.00  0.00     0.065 A 
HETATM   18  C           1     -22.888 -13.685  -0.593  0.00  0.00     0.037 A 
HETATM   19  C           1     -22.699 -13.274  -1.913  0.00  0.00     0.010 A 
BRANCH  17  20
HETATM   20  O           1     -23.552 -13.182   1.638  0.00  0.00    -0.361 OA
HETATM   21  H           1     -22.808 -12.845   2.165  0.00  0.00     0.217 HD
ENDBRANCH  17  20
ENDBRANCH  13  14
ENDBRANCH   9  13
ENDBRANCH   7   9
ENDBRANCH   6   7
ENDBRANCH   5   6
ENDBRANCH   1   5
BRANCH   1  22
HETATM   22  N           1     -20.902  -6.545  -3.669  0.00  0.00    -0.345 N 
HETATM   23  C           1     -21.233  -6.648  -4.994  0.00  0.00     0.249 C 
HETATM   24  O           1     -21.896  -7.581  -5.379  0.00  0.00    -0.271 OA
HETATM   25  H           1     -20.346  -5.763  -3.346  0.00  0.00     0.163 HD
BRANCH  23  26
HETATM   26  C           1     -20.768  -5.597  -5.972  0.00  0.00     0.274 C 
BRANCH  26  27
HETATM   27  N           1     -19.931  -6.243  -7.037  0.00  0.00    -0.067 N 
HETATM   28  H           1     -18.924  -6.016  -6.874  0.00  0.00     0.275 HD
HETATM   29  H           1     -20.064  -7.278  -7.004  0.00  0.00     0.275 HD
HETATM   30  H           1     -20.222  -5.883  -7.973  0.00  0.00     0.275 HD
ENDBRANCH  26  27
BRANCH  26  31
HETATM   31  C           1     -21.976  -4.929  -6.613  0.00  0.00     0.044 C 
BRANCH  31  32
HETATM   32  C           1     -21.514  -3.773  -7.491  0.00  0.00     0.023 C 
BRANCH  32  33
HETATM   33  C           1     -22.142  -3.901  -8.872  0.00  0.00     0.138 C 
BRANCH  33  34
HETATM   34  N           1     -23.572  -3.568  -8.794  0.00  0.00    -0.227 N 
HETATM   35  C           1     -24.340  -3.840  -9.763  0.00  0.00     0.665 C 
HETATM   36  N           1     -23.864  -4.414 -10.828  0.00  0.00    -0.235 N 
HETATM   37  N           1     -25.571  -3.553  -9.696  0.00  0.00    -0.235 N 
HETATM   38  H           1     -24.496  -4.639 -11.627  0.00  0.00     0.174 HD
HETATM   39  H           1     -22.847  -4.651 -10.884  0.00  0.00     0.174 HD
HETATM   40  H           1     -26.207  -3.779 -10.499  0.00  0.00     0.174 HD
HETATM   41  H           1     -25.955  -3.089  -8.836  0.00  0.00     0.174 HD
HETATM   42  H           1     -23.956  -3.104  -7.933  0.00  0.00     0.177 HD
ENDBRANCH  33  34
ENDBRANCH  32  33
ENDBRANCH  31  32
ENDBRANCH  26  31
ENDBRANCH  23  26
ENDBRANCH   1  22
TORSDOF 16
ENDMDL
