MODEL 1
REMARK VINA RESULT:      -8.4      0.000      0.000
REMARK  10 active torsions:
REMARK  status: ('A' for Active; 'I' for Inactive)
REMARK    1  A    between atoms: C_2  and  C_12 
REMARK    2  A    between atoms: C_4  and  C_10 
REMARK    3  A    between atoms: C_4  and  C_24 
REMARK    4  A    between atoms: C_4  and  N_9 
REMARK       I    between atoms: N_9  and  C_21 
REMARK    5  A    between atoms: C_10  and  C_29 
REMARK    6  A    between atoms: C_12  and  C_13 
REMARK    7  A    between atoms: C_13  and  C_21 
REMARK    8  A    between atoms: C_13  and  N_19 
REMARK    9  A    between atoms: O_14  and  C_15 
REMARK   10  A    between atoms: O_26  and  C_30 
ROOT
HETATM    1  N           1     -21.296  -7.463  -5.490  0.00  0.00    -0.344 N 
HETATM    2  H           1     -21.688  -8.033  -6.228  0.00  0.00     0.163 HD
HETATM    3  O           1     -20.951  -5.420  -4.657  0.00  0.00    -0.271 OA
HETATM    4  C           1     -21.419  -6.101  -5.539  0.00  0.00     0.249 C 
ENDROOT
BRANCH   4   5
HETATM    5  C           1     -22.140  -5.448  -6.694  0.00  0.00     0.278 C 
BRANCH   5   6
HETATM    6  C           1     -21.366  -4.218  -7.145  0.00  0.00     0.081 C 
BRANCH   6   7
HETATM    7  C           1     -21.437  -4.101  -8.636  0.00  0.00    -0.056 A 
HETATM    8  C           1     -20.332  -4.443  -9.416  0.00  0.00     0.010 A 
HETATM    9  C           1     -20.398  -4.334 -10.805  0.00  0.00     0.037 A 
HETATM   10  C           1     -21.570  -3.885 -11.415  0.00  0.00     0.065 A 
HETATM   11  C           1     -22.675  -3.544 -10.634  0.00  0.00     0.037 A 
HETATM   12  C           1     -22.609  -3.652  -9.246  0.00  0.00     0.010 A 
BRANCH  10  13
HETATM   13  O           1     -21.634  -3.780 -12.764  0.00  0.00    -0.361 OA
HETATM   14  H           1     -22.572  -3.782 -13.021  0.00  0.00     0.217 HD
ENDBRANCH  10  13
ENDBRANCH   6   7
ENDBRANCH   5   6
BRANCH   5  15
HETATM   15  N           1     -23.516  -5.042  -6.257  0.00  0.00    -0.066 N 
HETATM   16  H           1     -23.516  -4.863  -5.228  0.00  0.00     0.275 HD
HETATM   17  H           1     -23.799  -4.172  -6.762  0.00  0.00     0.275 HD
HETATM   18  H           1     -24.192  -5.808  -6.478  0.00  0.00     0.275 HD
ENDBRANCH   5  15
ENDBRANCH   4   5
BRANCH   1  19
HETATM   19  C           1     -20.604  -8.089  -4.381  0.00  0.00     0.189 C 
BRANCH  19  20
HETATM   20  C           1     -21.478  -9.188  -3.793  0.00  0.00     0.074 C 
BRANCH  20  21
HETATM   21  C           1     -21.842  -8.837  -2.384  0.00  0.00    -0.056 A 
HETATM   22  C           1     -21.815  -7.506  -1.966  0.00  0.00     0.010 A 
HETATM   23  C           1     -22.154  -7.180  -0.654  0.00  0.00     0.037 A 
HETATM   24  C           1     -22.522  -8.183   0.243  0.00  0.00     0.065 A 
HETATM   25  C           1     -22.548  -9.514  -0.175  0.00  0.00     0.037 A 
HETATM   26  C           1     -22.209  -9.841  -1.488  0.00  0.00     0.010 A 
BRANCH  24  27
HETATM   27  O           1     -22.852  -7.866   1.517  0.00  0.00    -0.361 OA
HETATM   28  H           1     -22.377  -8.473   2.111  0.00  0.00     0.217 HD
ENDBRANCH  24  27
ENDBRANCH  20  21
ENDBRANCH  19  20
BRANCH  19  29
HETATM   29  C           1     -19.307  -8.686  -4.871  0.00  0.00     0.197 C 
HETATM   30  O           1     -18.537  -9.253  -4.067  0.00  0.00    -0.646 OA
HETATM   31  O           1     -19.002  -8.612  -6.081  0.00  0.00    -0.646 OA
ENDBRANCH  19  29
ENDBRANCH   1  19
TORSDOF 10
ENDMDL
MODEL 2
REMARK VINA RESULT:      -8.3      1.188      8.701
REMARK  10 active torsions:
REMARK  status: ('A' for Active; 'I' for Inactive)
REMARK    1  A    between atoms: C_2  and  C_12 
REMARK    2  A    between atoms: C_4  and  C_10 
REMARK    3  A    between atoms: C_4  and  C_24 
REMARK    4  A    between atoms: C_4  and  N_9 
REMARK       I    between atoms: N_9  and  C_21 
REMARK    5  A    between atoms: C_10  and  C_29 
REMARK    6  A    between atoms: C_12  and  C_13 
REMARK    7  A    between atoms: C_13  and  C_21 
REMARK    8  A    between atoms: C_13  and  N_19 
REMARK    9  A    between atoms: O_14  and  C_15 
REMARK   10  A    between atoms: O_26  and  C_30 
ROOT
HETATM    1  N           1     -21.397  -6.637  -6.002  0.00  0.00    -0.344 N 
HETATM    2  H           1     -22.327  -6.563  -5.609  0.00  0.00     0.163 HD
HETATM    3  O           1     -19.508  -7.814  -6.188  0.00  0.00    -0.271 OA
HETATM    4  C           1     -20.619  -7.726  -5.718  0.00  0.00     0.249 C 
ENDROOT
BRANCH   4   5
HETATM    5  C           1     -21.145  -8.817  -4.818  0.00  0.00     0.278 C 
BRANCH   5   6
HETATM    6  C           1     -20.314  -8.870  -3.544  0.00  0.00     0.081 C 
BRANCH   6   7
HETATM    7  C           1     -21.190  -8.587  -2.363  0.00  0.00    -0.056 A 
HETATM    8  C           1     -21.503  -7.271  -2.025  0.00  0.00     0.010 A 
HETATM    9  C           1     -22.318  -7.008  -0.925  0.00  0.00     0.037 A 
HETATM   10  C           1     -22.823  -8.062  -0.163  0.00  0.00     0.065 A 
HETATM   11  C           1     -22.510  -9.379  -0.501  0.00  0.00     0.037 A 
HETATM   12  C           1     -21.695  -9.642  -1.601  0.00  0.00     0.010 A 
BRANCH  10  13
HETATM   13  O           1     -23.616  -7.807   0.906  0.00  0.00    -0.361 OA
HETATM   14  H           1     -23.054  -7.794   1.700  0.00  0.00     0.217 HD
ENDBRANCH  10  13
ENDBRANCH   6   7
ENDBRANCH   5   6
BRANCH   5  15
HETATM   15  N           1     -21.057 -10.135  -5.529  0.00  0.00    -0.066 N 
HETATM   16  H           1     -21.959 -10.650  -5.421  0.00  0.00     0.275 HD
HETATM   17  H           1     -20.869  -9.970  -6.544  0.00  0.00     0.275 HD
HETATM   18  H           1     -20.280 -10.700  -5.118  0.00  0.00     0.275 HD
ENDBRANCH   5  15
ENDBRANCH   4   5
BRANCH   1  19
HETATM   19  C           1     -20.891  -5.588  -6.867  0.00  0.00     0.189 C 
BRANCH  19  20
HETATM   20  C           1     -22.041  -4.693  -7.305  0.00  0.00     0.074 C 
BRANCH  20  21
HETATM   21  C           1     -21.962  -4.464  -8.782  0.00  0.00    -0.056 A 
HETATM   22  C           1     -23.131  -4.309  -9.528  0.00  0.00     0.010 A 
HETATM   23  C           1     -23.056  -4.096 -10.904  0.00  0.00     0.037 A 
HETATM   24  C           1     -21.814  -4.038 -11.536  0.00  0.00     0.065 A 
HETATM   25  C           1     -20.646  -4.194 -10.790  0.00  0.00     0.037 A 
HETATM   26  C           1     -20.719  -4.407  -9.413  0.00  0.00     0.010 A 
BRANCH  24  27
HETATM   27  O           1     -21.742  -3.831 -12.873  0.00  0.00    -0.361 OA
HETATM   28  H           1     -20.825  -3.990 -13.152  0.00  0.00     0.217 HD
ENDBRANCH  24  27
ENDBRANCH  20  21
ENDBRANCH  19  20
BRANCH  19  29
HETATM   29  C           1     -19.871  -4.767  -6.116  0.00  0.00     0.197 C 
HETATM   30  O           1     -18.798  -4.446  -6.670  0.00  0.00    -0.646 OA
HETATM   31  O           1     -20.099  -4.409  -4.941  0.00  0.00    -0.646 OA
ENDBRANCH  19  29
ENDBRANCH   1  19
TORSDOF 10
ENDMDL
MODEL 3
REMARK VINA RESULT:      -7.9      1.396      1.873
REMARK  10 active torsions:
REMARK  status: ('A' for Active; 'I' for Inactive)
REMARK    1  A    between atoms: C_2  and  C_12 
REMARK    2  A    between atoms: C_4  and  C_10 
REMARK    3  A    between atoms: C_4  and  C_24 
REMARK    4  A    between atoms: C_4  and  N_9 
REMARK       I    between atoms: N_9  and  C_21 
REMARK    5  A    between atoms: C_10  and  C_29 
REMARK    6  A    between atoms: C_12  and  C_13 
REMARK    7  A    between atoms: C_13  and  C_21 
REMARK    8  A    between atoms: C_13  and  N_19 
REMARK    9  A    between atoms: O_14  and  C_15 
REMARK   10  A    between atoms: O_26  and  C_30 
ROOT
HETATM    1  N           1     -20.795  -7.957  -4.467  0.00  0.00    -0.344 N 
HETATM    2  H           1     -21.612  -7.761  -3.904  0.00  0.00     0.163 HD
HETATM    3  O           1     -19.608  -7.504  -6.304  0.00  0.00    -0.271 OA
HETATM    4  C           1     -20.585  -7.270  -5.632  0.00  0.00     0.249 C 
ENDROOT
BRANCH   4   5
HETATM    5  C           1     -21.575  -6.221  -6.079  0.00  0.00     0.278 C 
BRANCH   5   6
HETATM    6  C           1     -20.834  -4.933  -6.412  0.00  0.00     0.081 C 
BRANCH   6   7
HETATM    7  C           1     -21.121  -4.542  -7.827  0.00  0.00    -0.056 A 
HETATM    8  C           1     -22.385  -4.065  -8.178  0.00  0.00     0.010 A 
HETATM    9  C           1     -22.652  -3.701  -9.497  0.00  0.00     0.037 A 
HETATM   10  C           1     -21.655  -3.812 -10.467  0.00  0.00     0.065 A 
HETATM   11  C           1     -20.391  -4.289 -10.117  0.00  0.00     0.037 A 
HETATM   12  C           1     -20.125  -4.653  -8.798  0.00  0.00     0.010 A 
BRANCH  10  13
HETATM   13  O           1     -21.915  -3.458 -11.749  0.00  0.00    -0.361 OA
HETATM   14  H           1     -21.073  -3.210 -12.168  0.00  0.00     0.217 HD
ENDBRANCH  10  13
ENDBRANCH   6   7
ENDBRANCH   5   6
BRANCH   5  15
HETATM   15  N           1     -22.558  -5.963  -4.977  0.00  0.00    -0.066 N 
HETATM   16  H           1     -22.705  -4.934  -4.875  0.00  0.00     0.275 HD
HETATM   17  H           1     -23.468  -6.423  -5.208  0.00  0.00     0.275 HD
HETATM   18  H           1     -22.189  -6.354  -4.081  0.00  0.00     0.275 HD
ENDBRANCH   5  15
ENDBRANCH   4   5
BRANCH   1  19
HETATM   19  C           1     -19.845  -8.964  -4.038  0.00  0.00     0.189 C 
BRANCH  19  20
HETATM   20  C           1     -19.373  -8.648  -2.625  0.00  0.00     0.074 C 
BRANCH  20  21
HETATM   21  C           1     -20.558  -8.374  -1.752  0.00  0.00    -0.056 A 
HETATM   22  C           1     -21.202  -7.138  -1.818  0.00  0.00     0.010 A 
HETATM   23  C           1     -22.306  -6.883  -1.004  0.00  0.00     0.037 A 
HETATM   24  C           1     -22.766  -7.863  -0.124  0.00  0.00     0.065 A 
HETATM   25  C           1     -22.120  -9.098  -0.058  0.00  0.00     0.037 A 
HETATM   26  C           1     -21.017  -9.354  -0.872  0.00  0.00     0.010 A 
BRANCH  24  27
HETATM   27  O           1     -23.837  -7.615   0.666  0.00  0.00    -0.361 OA
HETATM   28  H           1     -23.950  -6.651   0.726  0.00  0.00     0.217 HD
ENDBRANCH  24  27
ENDBRANCH  20  21
ENDBRANCH  19  20
BRANCH  19  29
HETATM   29  C           1     -20.508 -10.320  -4.056  0.00  0.00     0.197 C 
HETATM   30  O           1     -19.847 -11.343  -3.779  0.00  0.00    -0.646 OA
HETATM   31  O           1     -21.720 -10.419  -4.348  0.00  0.00    -0.646 OA
ENDBRANCH  19  29
ENDBRANCH   1  19
TORSDOF 10
ENDMDL
MODEL 4
REMARK VINA RESULT:      -7.7     13.609     15.195
REMARK  10 active torsions:
REMARK  status: ('A' for Active; 'I' for Inactive)
REMARK    1  A    between atoms: C_2  and  C_12 
REMARK    2  A    between atoms: C_4  and  C_10 
REMARK    3  A    between atoms: C_4  and  C_24 
REMARK    4  A    between atoms: C_4  and  N_9 
REMARK       I    between atoms: N_9  and  C_21 
REMARK    5  A    between atoms: C_10  and  C_29 
REMARK    6  A    between atoms: C_12  and  C_13 
REMARK    7  A    between atoms: C_13  and  C_21 
REMARK    8  A    between atoms: C_13  and  N_19 
REMARK    9  A    between atoms: O_14  and  C_15 
REMARK   10  A    between atoms: O_26  and  C_30 
ROOT
HETATM    1  N           1     -33.505  -3.728 -14.344  0.00  0.00    -0.344 N 
HETATM    2  H           1     -32.612  -3.251 -14.332  0.00  0.00     0.163 HD
HETATM    3  O           1     -34.954  -5.005 -15.465  0.00  0.00    -0.271 OA
HETATM    4  C           1     -33.888  -4.435 -15.451  0.00  0.00     0.249 C 
ENDROOT
BRANCH   4   5
HETATM    5  C           1     -32.980  -4.504 -16.655  0.00  0.00     0.278 C 
BRANCH   5   6
HETATM    6  C           1     -31.528  -4.507 -16.197  0.00  0.00     0.081 C 
BRANCH   6   7
HETATM    7  C           1     -30.727  -5.409 -17.082  0.00  0.00    -0.056 A 
HETATM    8  C           1     -29.550  -4.945 -17.670  0.00  0.00     0.010 A 
HETATM    9  C           1     -28.803  -5.787 -18.495  0.00  0.00     0.037 A 
HETATM   10  C           1     -29.233  -7.093 -18.730  0.00  0.00     0.065 A 
HETATM   11  C           1     -30.409  -7.557 -18.142  0.00  0.00     0.037 A 
HETATM   12  C           1     -31.156  -6.716 -17.318  0.00  0.00     0.010 A 
BRANCH  10  13
HETATM   13  O           1     -28.507  -7.910 -19.531  0.00  0.00    -0.361 OA
HETATM   14  H           1     -27.580  -7.871 -19.239  0.00  0.00     0.217 HD
ENDBRANCH  10  13
ENDBRANCH   6   7
ENDBRANCH   5   6
BRANCH   5  15
HETATM   15  N           1     -33.226  -3.313 -17.533  0.00  0.00    -0.066 N 
HETATM   16  H           1     -33.970  -2.715 -17.108  0.00  0.00     0.275 HD
HETATM   17  H           1     -32.343  -2.759 -17.623  0.00  0.00     0.275 HD
HETATM   18  H           1     -33.533  -3.634 -18.478  0.00  0.00     0.275 HD
ENDBRANCH   5  15
ENDBRANCH   4   5
BRANCH   1  19
HETATM   19  C           1     -34.377  -3.661 -13.188  0.00  0.00     0.189 C 
BRANCH  19  20
HETATM   20  C           1     -33.543  -3.756 -11.918  0.00  0.00     0.074 C 
BRANCH  20  21
HETATM   21  C           1     -33.824  -5.056 -11.230  0.00  0.00    -0.056 A 
HETATM   22  C           1     -35.029  -5.241 -10.552  0.00  0.00     0.010 A 
HETATM   23  C           1     -35.290  -6.452  -9.911  0.00  0.00     0.037 A 
HETATM   24  C           1     -34.347  -7.479  -9.949  0.00  0.00     0.065 A 
HETATM   25  C           1     -33.142  -7.293 -10.627  0.00  0.00     0.037 A 
HETATM   26  C           1     -32.880  -6.082 -11.267  0.00  0.00     0.010 A 
BRANCH  24  27
HETATM   27  O           1     -34.600  -8.655  -9.327  0.00  0.00    -0.361 OA
HETATM   28  H           1     -33.754  -9.117  -9.202  0.00  0.00     0.217 HD
ENDBRANCH  24  27
ENDBRANCH  20  21
ENDBRANCH  19  20
BRANCH  19  29
HETATM   29  C           1     -35.129  -2.353 -13.200  0.00  0.00     0.197 C 
HETATM   30  O           1     -35.821  -2.020 -12.215  0.00  0.00    -0.646 OA
HETATM   31  O           1     -35.060  -1.602 -14.198  0.00  0.00    -0.646 OA
ENDBRANCH  19  29
ENDBRANCH   1  19
TORSDOF 10
ENDMDL
MODEL 5
REMARK VINA RESULT:      -7.4      2.619      3.681
REMARK  10 active torsions:
REMARK  status: ('A' for Active; 'I' for Inactive)
REMARK    1  A    between atoms: C_2  and  C_12 
REMARK    2  A    between atoms: C_4  and  C_10 
REMARK    3  A    between atoms: C_4  and  C_24 
REMARK    4  A    between atoms: C_4  and  N_9 
REMARK       I    between atoms: N_9  and  C_21 
REMARK    5  A    between atoms: C_10  and  C_29 
REMARK    6  A    between atoms: C_12  and  C_13 
REMARK    7  A    between atoms: C_13  and  C_21 
REMARK    8  A    between atoms: C_13  and  N_19 
REMARK    9  A    between atoms: O_14  and  C_15 
REMARK   10  A    between atoms: O_26  and  C_30 
ROOT
HETATM    1  N           1     -20.607  -7.380  -4.877  0.00  0.00    -0.344 N 
HETATM    2  H           1     -21.333  -6.956  -4.312  0.00  0.00     0.163 HD
HETATM    3  O           1     -19.291  -7.249  -6.676  0.00  0.00    -0.271 OA
HETATM    4  C           1     -20.158  -6.743  -6.002  0.00  0.00     0.249 C 
ENDROOT
BRANCH   4   5
HETATM    5  C           1     -20.744  -5.411  -6.402  0.00  0.00     0.278 C 
BRANCH   5   6
HETATM    6  C           1     -20.304  -5.067  -7.818  0.00  0.00     0.081 C 
BRANCH   6   7
HETATM    7  C           1     -21.481  -4.578  -8.603  0.00  0.00    -0.056 A 
HETATM    8  C           1     -21.355  -4.330  -9.970  0.00  0.00     0.010 A 
HETATM    9  C           1     -22.452  -3.874 -10.700  0.00  0.00     0.037 A 
HETATM   10  C           1     -23.677  -3.668 -10.064  0.00  0.00     0.065 A 
HETATM   11  C           1     -23.803  -3.916  -8.697  0.00  0.00     0.037 A 
HETATM   12  C           1     -22.706  -4.372  -7.967  0.00  0.00     0.010 A 
BRANCH  10  13
HETATM   13  O           1     -24.742  -3.225 -10.774  0.00  0.00    -0.361 OA
HETATM   14  H           1     -24.483  -3.184 -11.711  0.00  0.00     0.217 HD
ENDBRANCH  10  13
ENDBRANCH   6   7
ENDBRANCH   5   6
BRANCH   5  15
HETATM   15  N           1     -20.261  -4.351  -5.457  0.00  0.00    -0.066 N 
HETATM   16  H           1     -20.246  -3.429  -5.947  0.00  0.00     0.275 HD
HETATM   17  H           1     -20.906  -4.299  -4.635  0.00  0.00     0.275 HD
HETATM   18  H           1     -19.298  -4.589  -5.129  0.00  0.00     0.275 HD
ENDBRANCH   5  15
ENDBRANCH   4   5
BRANCH   1  19
HETATM   19  C           1     -20.045  -8.659  -4.493  0.00  0.00     0.189 C 
BRANCH  19  20
HETATM   20  C           1     -19.887  -8.711  -2.980  0.00  0.00     0.074 C 
BRANCH  20  21
HETATM   21  C           1     -18.739  -9.604  -2.626  0.00  0.00    -0.056 A 
HETATM   22  C           1     -17.449  -9.282  -3.048  0.00  0.00     0.010 A 
HETATM   23  C           1     -16.380 -10.114  -2.718  0.00  0.00     0.037 A 
HETATM   24  C           1     -16.600 -11.269  -1.967  0.00  0.00     0.065 A 
HETATM   25  C           1     -17.890 -11.591  -1.547  0.00  0.00     0.037 A 
HETATM   26  C           1     -18.960 -10.759  -1.876  0.00  0.00     0.010 A 
BRANCH  24  27
HETATM   27  O           1     -15.561 -12.077  -1.647  0.00  0.00    -0.361 OA
HETATM   28  H           1     -15.232 -12.484  -2.467  0.00  0.00     0.217 HD
ENDBRANCH  24  27
ENDBRANCH  20  21
ENDBRANCH  19  20
BRANCH  19  29
HETATM   29  C           1     -20.966  -9.768  -4.942  0.00  0.00     0.197 C 
HETATM   30  O           1     -21.897 -10.145  -4.200  0.00  0.00    -0.646 OA
HETATM   31  O           1     -20.796 -10.309  -6.056  0.00  0.00    -0.646 OA
ENDBRANCH  19  29
ENDBRANCH   1  19
TORSDOF 10
ENDMDL
MODEL 6
REMARK VINA RESULT:      -7.3     12.070     15.223
REMARK  10 active torsions:
REMARK  status: ('A' for Active; 'I' for Inactive)
REMARK    1  A    between atoms: C_2  and  C_12 
REMARK    2  A    between atoms: C_4  and  C_10 
REMARK    3  A    between atoms: C_4  and  C_24 
REMARK    4  A    between atoms: C_4  and  N_9 
REMARK       I    between atoms: N_9  and  C_21 
REMARK    5  A    between atoms: C_10  and  C_29 
REMARK    6  A    between atoms: C_12  and  C_13 
REMARK    7  A    between atoms: C_13  and  C_21 
REMARK    8  A    between atoms: C_13  and  N_19 
REMARK    9  A    between atoms: O_14  and  C_15 
REMARK   10  A    between atoms: O_26  and  C_30 
ROOT
HETATM    1  N           1     -26.249  -7.172 -18.002  0.00  0.00    -0.344 N 
HETATM    2  H           1     -25.748  -8.029 -17.805  0.00  0.00     0.163 HD
HETATM    3  O           1     -27.180  -5.831 -19.526  0.00  0.00    -0.271 OA
HETATM    4  C           1     -26.581  -6.854 -19.291  0.00  0.00     0.249 C 
ENDROOT
BRANCH   4   5
HETATM    5  C           1     -26.198  -7.780 -20.420  0.00  0.00     0.278 C 
BRANCH   5   6
HETATM    6  C           1     -25.343  -7.025 -21.429  0.00  0.00     0.081 C 
BRANCH   6   7
HETATM    7  C           1     -24.007  -7.688 -21.547  0.00  0.00    -0.056 A 
HETATM    8  C           1     -23.202  -7.845 -20.418  0.00  0.00     0.010 A 
HETATM    9  C           1     -21.957  -8.463 -20.529  0.00  0.00     0.037 A 
HETATM   10  C           1     -21.516  -8.926 -21.770  0.00  0.00     0.065 A 
HETATM   11  C           1     -22.320  -8.768 -22.899  0.00  0.00     0.037 A 
HETATM   12  C           1     -23.565  -8.151 -22.787  0.00  0.00     0.010 A 
BRANCH  10  13
HETATM   13  O           1     -20.306  -9.526 -21.877  0.00  0.00    -0.361 OA
HETATM   14  H           1     -19.623  -8.835 -21.829  0.00  0.00     0.217 HD
ENDBRANCH  10  13
ENDBRANCH   6   7
ENDBRANCH   5   6
BRANCH   5  15
HETATM   15  N           1     -27.440  -8.283 -21.094  0.00  0.00    -0.066 N 
HETATM   16  H           1     -27.221  -9.160 -21.618  0.00  0.00     0.275 HD
HETATM   17  H           1     -28.171  -8.481 -20.374  0.00  0.00     0.275 HD
HETATM   18  H           1     -27.794  -7.558 -21.759  0.00  0.00     0.275 HD
ENDBRANCH   5  15
ENDBRANCH   4   5
BRANCH   1  19
HETATM   19  C           1     -26.617  -6.283 -16.918  0.00  0.00     0.189 C 
BRANCH  19  20
HETATM   20  C           1     -27.959  -6.712 -16.342  0.00  0.00     0.074 C 
BRANCH  20  21
HETATM   21  C           1     -29.009  -5.717 -16.725  0.00  0.00    -0.056 A 
HETATM   22  C           1     -30.337  -6.120 -16.863  0.00  0.00     0.010 A 
HETATM   23  C           1     -31.314  -5.192 -17.219  0.00  0.00     0.037 A 
HETATM   24  C           1     -30.965  -3.859 -17.439  0.00  0.00     0.065 A 
HETATM   25  C           1     -29.637  -3.456 -17.302  0.00  0.00     0.037 A 
HETATM   26  C           1     -28.658  -4.384 -16.945  0.00  0.00     0.010 A 
BRANCH  24  27
HETATM   27  O           1     -31.915  -2.958 -17.785  0.00  0.00    -0.361 OA
HETATM   28  H           1     -32.770  -3.280 -17.453  0.00  0.00     0.217 HD
ENDBRANCH  24  27
ENDBRANCH  20  21
ENDBRANCH  19  20
BRANCH  19  29
HETATM   29  C           1     -25.563  -6.345 -15.839  0.00  0.00     0.197 C 
HETATM   30  O           1     -24.778  -5.387 -15.676  0.00  0.00    -0.646 OA
HETATM   31  O           1     -25.475  -7.356 -15.108  0.00  0.00    -0.646 OA
ENDBRANCH  19  29
ENDBRANCH   1  19
TORSDOF 10
ENDMDL
MODEL 7
REMARK VINA RESULT:      -7.2      2.037      3.135
REMARK  10 active torsions:
REMARK  status: ('A' for Active; 'I' for Inactive)
REMARK    1  A    between atoms: C_2  and  C_12 
REMARK    2  A    between atoms: C_4  and  C_10 
REMARK    3  A    between atoms: C_4  and  C_24 
REMARK    4  A    between atoms: C_4  and  N_9 
REMARK       I    between atoms: N_9  and  C_21 
REMARK    5  A    between atoms: C_10  and  C_29 
REMARK    6  A    between atoms: C_12  and  C_13 
REMARK    7  A    between atoms: C_13  and  C_21 
REMARK    8  A    between atoms: C_13  and  N_19 
REMARK    9  A    between atoms: O_14  and  C_15 
REMARK   10  A    between atoms: O_26  and  C_30 
ROOT
HETATM    1  N           1     -20.826  -7.018  -3.612  0.00  0.00    -0.344 N 
HETATM    2  H           1     -19.827  -7.017  -3.454  0.00  0.00     0.163 HD
HETATM    3  O           1     -22.531  -6.490  -4.954  0.00  0.00    -0.271 OA
HETATM    4  C           1     -21.337  -6.488  -4.766  0.00  0.00     0.249 C 
ENDROOT
BRANCH   4   5
HETATM    5  C           1     -20.411  -5.901  -5.803  0.00  0.00     0.278 C 
BRANCH   5   6
HETATM    6  C           1     -20.781  -4.445  -6.049  0.00  0.00     0.081 C 
BRANCH   6   7
HETATM    7  C           1     -21.157  -4.261  -7.485  0.00  0.00    -0.056 A 
HETATM    8  C           1     -20.164  -4.130  -8.456  0.00  0.00     0.010 A 
HETATM    9  C           1     -20.515  -3.958  -9.794  0.00  0.00     0.037 A 
HETATM   10  C           1     -21.860  -3.918 -10.164  0.00  0.00     0.065 A 
HETATM   11  C           1     -22.853  -4.049  -9.193  0.00  0.00     0.037 A 
HETATM   12  C           1     -22.502  -4.221  -7.855  0.00  0.00     0.010 A 
BRANCH  10  13
HETATM   13  O           1     -22.200  -3.751 -11.465  0.00  0.00    -0.361 OA
HETATM   14  H           1     -22.095  -2.809 -11.684  0.00  0.00     0.217 HD
ENDBRANCH  10  13
ENDBRANCH   6   7
ENDBRANCH   5   6
BRANCH   5  15
HETATM   15  N           1     -20.542  -6.674  -7.082  0.00  0.00    -0.066 N 
HETATM   16  H           1     -20.399  -7.690  -6.890  0.00  0.00     0.275 HD
HETATM   17  H           1     -21.496  -6.525  -7.482  0.00  0.00     0.275 HD
HETATM   18  H           1     -19.823  -6.342  -7.764  0.00  0.00     0.275 HD
ENDBRANCH   5  15
ENDBRANCH   4   5
BRANCH   1  19
HETATM   19  C           1     -21.716  -7.582  -2.616  0.00  0.00     0.189 C 
BRANCH  19  20
HETATM   20  C           1     -20.978  -8.653  -1.825  0.00  0.00     0.074 C 
BRANCH  20  21
HETATM   21  C           1     -21.877  -9.833  -1.622  0.00  0.00    -0.056 A 
HETATM   22  C           1     -22.381 -10.117  -0.353  0.00  0.00     0.010 A 
HETATM   23  C           1     -23.217 -11.217  -0.165  0.00  0.00     0.037 A 
HETATM   24  C           1     -23.551 -12.033  -1.245  0.00  0.00     0.065 A 
HETATM   25  C           1     -23.046 -11.750  -2.514  0.00  0.00     0.037 A 
HETATM   26  C           1     -22.209 -10.650  -2.703  0.00  0.00     0.010 A 
BRANCH  24  27
HETATM   27  O           1     -24.364 -13.101  -1.062  0.00  0.00    -0.361 OA
HETATM   28  H           1     -23.858 -13.904  -1.275  0.00  0.00     0.217 HD
ENDBRANCH  24  27
ENDBRANCH  20  21
ENDBRANCH  19  20
BRANCH  19  29
HETATM   29  C           1     -22.176  -6.492  -1.679  0.00  0.00     0.197 C 
HETATM   30  O           1     -21.904  -5.298  -1.928  0.00  0.00    -0.646 OA
HETATM   31  O           1     -22.830  -6.783  -0.654  0.00  0.00    -0.646 OA
ENDBRANCH  19  29
ENDBRANCH   1  19
TORSDOF 10
ENDMDL
MODEL 8
REMARK VINA RESULT:      -7.2      2.738      4.958
REMARK  10 active torsions:
REMARK  status: ('A' for Active; 'I' for Inactive)
REMARK    1  A    between atoms: C_2  and  C_12 
REMARK    2  A    between atoms: C_4  and  C_10 
REMARK    3  A    between atoms: C_4  and  C_24 
REMARK    4  A    between atoms: C_4  and  N_9 
REMARK       I    between atoms: N_9  and  C_21 
REMARK    5  A    between atoms: C_10  and  C_29 
REMARK    6  A    between atoms: C_12  and  C_13 
REMARK    7  A    between atoms: C_13  and  C_21 
REMARK    8  A    between atoms: C_13  and  N_19 
REMARK    9  A    between atoms: O_14  and  C_15 
REMARK   10  A    between atoms: O_26  and  C_30 
ROOT
HETATM    1  N           1     -20.294  -8.286  -3.847  0.00  0.00    -0.344 N 
HETATM    2  H           1     -20.794  -7.997  -3.016  0.00  0.00     0.163 HD
HETATM    3  O           1     -19.774  -7.879  -5.980  0.00  0.00    -0.271 OA
HETATM    4  C           1     -20.372  -7.534  -4.988  0.00  0.00     0.249 C 
ENDROOT
BRANCH   4   5
HETATM    5  C           1     -21.206  -6.276  -5.009  0.00  0.00     0.278 C 
BRANCH   5   6
HETATM    6  C           1     -20.356  -5.112  -5.498  0.00  0.00     0.081 C 
BRANCH   6   7
HETATM    7  C           1     -20.806  -4.705  -6.867  0.00  0.00    -0.056 A 
HETATM    8  C           1     -19.873  -4.555  -7.893  0.00  0.00     0.010 A 
HETATM    9  C           1     -20.292  -4.176  -9.167  0.00  0.00     0.037 A 
HETATM   10  C           1     -21.646  -3.949  -9.417  0.00  0.00     0.065 A 
HETATM   11  C           1     -22.580  -4.100  -8.392  0.00  0.00     0.037 A 
HETATM   12  C           1     -22.160  -4.478  -7.117  0.00  0.00     0.010 A 
BRANCH  10  13
HETATM   13  O           1     -22.054  -3.581 -10.656  0.00  0.00    -0.361 OA
HETATM   14  H           1     -22.070  -2.609 -10.690  0.00  0.00     0.217 HD
ENDBRANCH  10  13
ENDBRANCH   6   7
ENDBRANCH   5   6
BRANCH   5  15
HETATM   15  N           1     -21.702  -5.985  -3.623  0.00  0.00    -0.066 N 
HETATM   16  H           1     -22.574  -5.412  -3.679  0.00  0.00     0.275 HD
HETATM   17  H           1     -21.908  -6.885  -3.131  0.00  0.00     0.275 HD
HETATM   18  H           1     -20.971  -5.459  -3.094  0.00  0.00     0.275 HD
ENDBRANCH   5  15
ENDBRANCH   4   5
BRANCH   1  19
HETATM   19  C           1     -19.493  -9.494  -3.827  0.00  0.00     0.189 C 
BRANCH  19  20
HETATM   20  C           1     -18.217  -9.245  -3.037  0.00  0.00     0.074 C 
BRANCH  20  21
HETATM   21  C           1     -17.076  -9.961  -3.690  0.00  0.00    -0.056 A 
HETATM   22  C           1     -16.202 -10.729  -2.922  0.00  0.00     0.010 A 
HETATM   23  C           1     -15.139 -11.395  -3.531  0.00  0.00     0.037 A 
HETATM   24  C           1     -14.949 -11.294  -4.910  0.00  0.00     0.065 A 
HETATM   25  C           1     -15.823 -10.524  -5.678  0.00  0.00     0.037 A 
HETATM   26  C           1     -16.886  -9.857  -5.069  0.00  0.00     0.010 A 
BRANCH  24  27
HETATM   27  O           1     -13.917 -11.941  -5.501  0.00  0.00    -0.361 OA
HETATM   28  H           1     -13.130 -11.827  -4.941  0.00  0.00     0.217 HD
ENDBRANCH  24  27
ENDBRANCH  20  21
ENDBRANCH  19  20
BRANCH  19  29
HETATM   29  C           1     -20.279 -10.607  -3.177  0.00  0.00     0.197 C 
HETATM   30  O           1     -19.902 -11.081  -2.084  0.00  0.00    -0.646 OA
HETATM   31  O           1     -21.307 -11.053  -3.731  0.00  0.00    -0.646 OA
ENDBRANCH  19  29
ENDBRANCH   1  19
TORSDOF 10
ENDMDL
MODEL 9
REMARK VINA RESULT:      -7.1     13.786     17.836
REMARK  10 active torsions:
REMARK  status: ('A' for Active; 'I' for Inactive)
REMARK    1  A    between atoms: C_2  and  C_12 
REMARK    2  A    between atoms: C_4  and  C_10 
REMARK    3  A    between atoms: C_4  and  C_24 
REMARK    4  A    between atoms: C_4  and  N_9 
REMARK       I    between atoms: N_9  and  C_21 
REMARK    5  A    between atoms: C_10  and  C_29 
REMARK    6  A    between atoms: C_12  and  C_13 
REMARK    7  A    between atoms: C_13  and  C_21 
REMARK    8  A    between atoms: C_13  and  N_19 
REMARK    9  A    between atoms: O_14  and  C_15 
REMARK   10  A    between atoms: O_26  and  C_30 
ROOT
HETATM    1  N           1     -36.034  -1.633 -11.675  0.00  0.00    -0.344 N 
HETATM    2  H           1     -36.805  -2.206 -11.993  0.00  0.00     0.163 HD
HETATM    3  O           1     -33.842  -1.456 -11.284  0.00  0.00    -0.271 OA
HETATM    4  C           1     -34.763  -2.141 -11.663  0.00  0.00     0.249 C 
ENDROOT
BRANCH   4   5
HETATM    5  C           1     -34.511  -3.557 -12.122  0.00  0.00     0.278 C 
BRANCH   5   6
HETATM    6  C           1     -33.293  -4.116 -11.400  0.00  0.00     0.081 C 
BRANCH   6   7
HETATM    7  C           1     -33.611  -5.476 -10.863  0.00  0.00    -0.056 A 
HETATM    8  C           1     -34.838  -5.713 -10.242  0.00  0.00     0.010 A 
HETATM    9  C           1     -35.134  -6.980  -9.742  0.00  0.00     0.037 A 
HETATM   10  C           1     -34.203  -8.013  -9.863  0.00  0.00     0.065 A 
HETATM   11  C           1     -32.976  -7.776 -10.483  0.00  0.00     0.037 A 
HETATM   12  C           1     -32.681  -6.509 -10.983  0.00  0.00     0.010 A 
BRANCH  10  13
HETATM   13  O           1     -34.491  -9.244  -9.376  0.00  0.00    -0.361 OA
HETATM   14  H           1     -34.729  -9.815 -10.127  0.00  0.00     0.217 HD
ENDBRANCH  10  13
ENDBRANCH   6   7
ENDBRANCH   5   6
BRANCH   5  15
HETATM   15  N           1     -34.262  -3.563 -13.602  0.00  0.00    -0.066 N 
HETATM   16  H           1     -33.636  -4.363 -13.846  0.00  0.00     0.275 HD
HETATM   17  H           1     -35.172  -3.666 -14.107  0.00  0.00     0.275 HD
HETATM   18  H           1     -33.808  -2.665 -13.882  0.00  0.00     0.275 HD
ENDBRANCH   5  15
ENDBRANCH   4   5
BRANCH   1  19
HETATM   19  C           1     -36.276  -0.274 -11.234  0.00  0.00     0.189 C 
BRANCH  19  20
HETATM   20  C           1     -37.345   0.362 -12.111  0.00  0.00     0.074 C 
BRANCH  20  21
HETATM   21  C           1     -37.048   0.075 -13.550  0.00  0.00    -0.056 A 
HETATM   22  C           1     -35.744   0.197 -14.031  0.00  0.00     0.010 A 
HETATM   23  C           1     -35.468  -0.070 -15.371  0.00  0.00     0.037 A 
HETATM   24  C           1     -36.494  -0.459 -16.232  0.00  0.00     0.065 A 
HETATM   25  C           1     -37.797  -0.581 -15.751  0.00  0.00     0.037 A 
HETATM   26  C           1     -38.075  -0.314 -14.410  0.00  0.00     0.010 A 
BRANCH  24  27
HETATM   27  O           1     -36.225  -0.719 -17.534  0.00  0.00    -0.361 OA
HETATM   28  H           1     -36.719  -0.081 -18.076  0.00  0.00     0.217 HD
ENDBRANCH  24  27
ENDBRANCH  20  21
ENDBRANCH  19  20
BRANCH  19  29
HETATM   29  C           1     -36.744  -0.288  -9.799  0.00  0.00     0.197 C 
HETATM   30  O           1     -35.910  -0.297  -8.869  0.00  0.00    -0.646 OA
HETATM   31  O           1     -37.968  -0.290  -9.541  0.00  0.00    -0.646 OA
ENDBRANCH  19  29
ENDBRANCH   1  19
TORSDOF 10
ENDMDL
