MODEL 1
REMARK VINA RESULT:      -5.8      0.000      0.000
REMARK  10 active torsions:
REMARK  status: ('A' for Active; 'I' for Inactive)
REMARK    1  A    between atoms: N_2  and  C_9 
REMARK    2  A    between atoms: C_6  and  C_20 
REMARK    3  A    between atoms: C_9  and  C_10 
REMARK    4  A    between atoms: C_9  and  C_12 
REMARK       I    between atoms: C_10  and  N_13 
REMARK    5  A    between atoms: C_11  and  C_12 
REMARK    6  A    between atoms: N_13  and  C_20 
REMARK    7  A    between atoms: O_15  and  P_17 
REMARK    8  A    between atoms: P_17  and  O_18 
REMARK    9  A    between atoms: O_18  and  C_19 
REMARK   10  A    between atoms: C_19  and  C_20 
ROOT
HETATM    1  O           1     -20.900  -7.239  -6.681  0.00  0.00    -0.271 OA
HETATM    2  H           1     -21.761  -4.272  -6.138  0.00  0.00     0.163 HD
HETATM    3  C           1     -21.161  -6.251  -6.038  0.00  0.00     0.249 C 
HETATM    4  N           1     -21.542  -5.100  -6.676  0.00  0.00    -0.343 N 
ENDROOT
BRANCH   4   5
HETATM    5  C           1     -21.630  -5.069  -8.123  0.00  0.00     0.210 C 
BRANCH   5   6
HETATM    6  C           1     -20.353  -4.501  -8.692  0.00  0.00     0.198 C 
HETATM    7  O           1     -20.008  -4.784  -9.860  0.00  0.00    -0.646 OA
HETATM    8  O           1     -19.640  -3.747  -7.996  0.00  0.00    -0.646 OA
ENDBRANCH   5   6
BRANCH   5   9
HETATM    9  C           1     -22.805  -4.194  -8.540  0.00  0.00     0.217 C 
BRANCH   9  10
HETATM   10  O           1     -23.511  -4.820  -9.577  0.00  0.00    -0.287 OA
BRANCH  10  11
HETATM   11  P           1     -23.675  -3.965 -10.938  0.00  0.00     0.406 P 
HETATM   12  O           1     -24.974  -3.257 -10.923  0.00  0.00    -0.624 OA
HETATM   13  O           1     -22.576  -2.980 -11.038  0.00  0.00    -0.624 OA
BRANCH  11  14
HETATM   14  O           1     -23.618  -4.962 -12.208  0.00  0.00    -0.300 OA
HETATM   15  H           1     -24.499  -4.979 -12.544  0.00  0.00     0.223 HD
ENDBRANCH  11  14
ENDBRANCH  10  11
ENDBRANCH   9  10
ENDBRANCH   5   9
ENDBRANCH   4   5
BRANCH   3  16
HETATM   16  C           1     -21.069  -6.282  -4.533  0.00  0.00     0.284 C 
BRANCH  16  17
HETATM   17  N           1     -22.449  -6.248  -3.946  0.00  0.00    -0.066 N 
HETATM   18  H           1     -23.063  -5.640  -4.534  0.00  0.00     0.275 HD
HETATM   19  H           1     -22.840  -7.217  -3.921  0.00  0.00     0.275 HD
HETATM   20  H           1     -22.405  -5.864  -2.975  0.00  0.00     0.275 HD
ENDBRANCH  16  17
BRANCH  16  21
HETATM   21  C           1     -20.363  -7.559  -4.094  0.00  0.00     0.155 C 
BRANCH  21  22
HETATM   22  C           1     -21.353  -8.476  -3.419  0.00  0.00     0.175 C 
HETATM   23  O           1     -21.549  -8.386  -2.187  0.00  0.00    -0.648 OA
HETATM   24  O           1     -21.978  -9.325  -4.090  0.00  0.00    -0.648 OA
ENDBRANCH  21  22
ENDBRANCH  16  21
ENDBRANCH   3  16
TORSDOF 10
ENDMDL
MODEL 2
REMARK VINA RESULT:      -5.4      2.737      7.078
REMARK  10 active torsions:
REMARK  status: ('A' for Active; 'I' for Inactive)
REMARK    1  A    between atoms: N_2  and  C_9 
REMARK    2  A    between atoms: C_6  and  C_20 
REMARK    3  A    between atoms: C_9  and  C_10 
REMARK    4  A    between atoms: C_9  and  C_12 
REMARK       I    between atoms: C_10  and  N_13 
REMARK    5  A    between atoms: C_11  and  C_12 
REMARK    6  A    between atoms: N_13  and  C_20 
REMARK    7  A    between atoms: O_15  and  P_17 
REMARK    8  A    between atoms: P_17  and  O_18 
REMARK    9  A    between atoms: O_18  and  C_19 
REMARK   10  A    between atoms: C_19  and  C_20 
ROOT
HETATM    1  O           1     -20.170  -4.095  -6.995  0.00  0.00    -0.271 OA
HETATM    2  H           1     -22.920  -5.591  -6.798  0.00  0.00     0.163 HD
HETATM    3  C           1     -21.307  -4.387  -7.280  0.00  0.00     0.249 C 
HETATM    4  N           1     -21.968  -5.346  -6.560  0.00  0.00    -0.343 N 
ENDROOT
BRANCH   4   5
HETATM    5  C           1     -21.302  -6.012  -5.457  0.00  0.00     0.210 C 
BRANCH   5   6
HETATM    6  C           1     -20.667  -7.289  -5.951  0.00  0.00     0.198 C 
HETATM    7  O           1     -21.289  -8.371  -5.864  0.00  0.00    -0.646 OA
HETATM    8  O           1     -19.521  -7.266  -6.448  0.00  0.00    -0.646 OA
ENDBRANCH   5   6
BRANCH   5   9
HETATM    9  C           1     -22.321  -6.338  -4.372  0.00  0.00     0.217 C 
BRANCH   9  10
HETATM   10  O           1     -21.762  -6.079  -3.113  0.00  0.00    -0.287 OA
BRANCH  10  11
HETATM   11  P           1     -21.587  -7.356  -2.140  0.00  0.00     0.406 P 
HETATM   12  O           1     -20.187  -7.426  -1.664  0.00  0.00    -0.624 OA
HETATM   13  O           1     -22.497  -7.223  -0.981  0.00  0.00    -0.624 OA
BRANCH  11  14
HETATM   14  O           1     -21.948  -8.704  -2.954  0.00  0.00    -0.300 OA
HETATM   15  H           1     -21.515  -9.396  -2.483  0.00  0.00     0.223 HD
ENDBRANCH  11  14
ENDBRANCH  10  11
ENDBRANCH   9  10
ENDBRANCH   5   9
ENDBRANCH   4   5
BRANCH   3  16
HETATM   16  C           1     -22.000  -3.694  -8.427  0.00  0.00     0.284 C 
BRANCH  16  17
HETATM   17  N           1     -21.218  -3.911  -9.689  0.00  0.00    -0.066 N 
HETATM   18  H           1     -20.198  -3.950  -9.464  0.00  0.00     0.275 HD
HETATM   19  H           1     -21.511  -4.813 -10.128  0.00  0.00     0.275 HD
HETATM   20  H           1     -21.400  -3.124 -10.350  0.00  0.00     0.275 HD
ENDBRANCH  16  17
BRANCH  16  21
HETATM   21  C           1     -23.401  -4.269  -8.594  0.00  0.00     0.155 C 
BRANCH  21  22
HETATM   22  C           1     -24.124  -3.525  -9.690  0.00  0.00     0.175 C 
HETATM   23  O           1     -23.707  -3.586 -10.867  0.00  0.00    -0.648 OA
HETATM   24  O           1     -25.139  -2.848  -9.420  0.00  0.00    -0.648 OA
ENDBRANCH  21  22
ENDBRANCH  16  21
ENDBRANCH   3  16
TORSDOF 10
ENDMDL
MODEL 3
REMARK VINA RESULT:      -5.4      1.258      1.786
REMARK  10 active torsions:
REMARK  status: ('A' for Active; 'I' for Inactive)
REMARK    1  A    between atoms: N_2  and  C_9 
REMARK    2  A    between atoms: C_6  and  C_20 
REMARK    3  A    between atoms: C_9  and  C_10 
REMARK    4  A    between atoms: C_9  and  C_12 
REMARK       I    between atoms: C_10  and  N_13 
REMARK    5  A    between atoms: C_11  and  C_12 
REMARK    6  A    between atoms: N_13  and  C_20 
REMARK    7  A    between atoms: O_15  and  P_17 
REMARK    8  A    between atoms: P_17  and  O_18 
REMARK    9  A    between atoms: O_18  and  C_19 
REMARK   10  A    between atoms: C_19  and  C_20 
ROOT
HETATM    1  O           1     -21.229  -7.781  -6.030  0.00  0.00    -0.271 OA
HETATM    2  H           1     -21.590  -4.796  -5.135  0.00  0.00     0.163 HD
HETATM    3  C           1     -21.303  -6.842  -5.275  0.00  0.00     0.249 C 
HETATM    4  N           1     -21.528  -5.584  -5.768  0.00  0.00    -0.343 N 
ENDROOT
BRANCH   4   5
HETATM    5  C           1     -21.674  -5.380  -7.196  0.00  0.00     0.210 C 
BRANCH   5   6
HETATM    6  C           1     -20.371  -4.877  -7.768  0.00  0.00     0.198 C 
HETATM    7  O           1     -20.058  -5.151  -8.946  0.00  0.00    -0.646 OA
HETATM    8  O           1     -19.606  -4.185  -7.062  0.00  0.00    -0.646 OA
ENDBRANCH   5   6
BRANCH   5   9
HETATM    9  C           1     -22.771  -4.354  -7.452  0.00  0.00     0.217 C 
BRANCH   9  10
HETATM   10  O           1     -22.503  -3.670  -8.646  0.00  0.00    -0.287 OA
BRANCH  10  11
HETATM   11  P           1     -23.666  -3.717  -9.765  0.00  0.00     0.406 P 
HETATM   12  O           1     -23.179  -3.082 -11.010  0.00  0.00    -0.624 OA
HETATM   13  O           1     -24.031  -5.124 -10.039  0.00  0.00    -0.624 OA
BRANCH  11  14
HETATM   14  O           1     -24.964  -2.922  -9.224  0.00  0.00    -0.300 OA
HETATM   15  H           1     -25.651  -3.135  -9.833  0.00  0.00     0.223 HD
ENDBRANCH  11  14
ENDBRANCH  10  11
ENDBRANCH   9  10
ENDBRANCH   5   9
ENDBRANCH   4   5
BRANCH   3  16
HETATM   16  C           1     -21.151  -7.053  -3.789  0.00  0.00     0.284 C 
BRANCH  16  17
HETATM   17  N           1     -22.127  -6.180  -3.057  0.00  0.00    -0.066 N 
HETATM   18  H           1     -23.079  -6.296  -3.473  0.00  0.00     0.275 HD
HETATM   19  H           1     -22.152  -6.456  -2.050  0.00  0.00     0.275 HD
HETATM   20  H           1     -21.830  -5.181  -3.139  0.00  0.00     0.275 HD
ENDBRANCH  16  17
BRANCH  16  21
HETATM   21  C           1     -21.426  -8.513  -3.453  0.00  0.00     0.155 C 
BRANCH  21  22
HETATM   22  C           1     -20.801  -8.850  -2.122  0.00  0.00     0.175 C 
HETATM   23  O           1     -20.715 -10.043  -1.756  0.00  0.00    -0.648 OA
HETATM   24  O           1     -20.370  -7.938  -1.385  0.00  0.00    -0.648 OA
ENDBRANCH  21  22
ENDBRANCH  16  21
ENDBRANCH   3  16
TORSDOF 10
ENDMDL
MODEL 4
REMARK VINA RESULT:      -5.2      2.842      6.904
REMARK  10 active torsions:
REMARK  status: ('A' for Active; 'I' for Inactive)
REMARK    1  A    between atoms: N_2  and  C_9 
REMARK    2  A    between atoms: C_6  and  C_20 
REMARK    3  A    between atoms: C_9  and  C_10 
REMARK    4  A    between atoms: C_9  and  C_12 
REMARK       I    between atoms: C_10  and  N_13 
REMARK    5  A    between atoms: C_11  and  C_12 
REMARK    6  A    between atoms: N_13  and  C_20 
REMARK    7  A    between atoms: O_15  and  P_17 
REMARK    8  A    between atoms: P_17  and  O_18 
REMARK    9  A    between atoms: O_18  and  C_19 
REMARK   10  A    between atoms: C_19  and  C_20 
ROOT
HETATM    1  O           1     -22.448  -5.854  -5.406  0.00  0.00    -0.271 OA
HETATM    2  H           1     -19.820  -7.017  -4.146  0.00  0.00     0.163 HD
HETATM    3  C           1     -21.262  -6.028  -5.254  0.00  0.00     0.249 C 
HETATM    4  N           1     -20.814  -6.871  -4.273  0.00  0.00    -0.343 N 
ENDROOT
BRANCH   4   5
HETATM    5  C           1     -21.762  -7.554  -3.415  0.00  0.00     0.210 C 
BRANCH   5   6
HETATM    6  C           1     -21.765  -6.904  -2.052  0.00  0.00     0.198 C 
HETATM    7  O           1     -21.286  -7.510  -1.070  0.00  0.00    -0.646 OA
HETATM    8  O           1     -22.246  -5.760  -1.907  0.00  0.00    -0.646 OA
ENDBRANCH   5   6
BRANCH   5   9
HETATM    9  C           1     -21.360  -9.017  -3.279  0.00  0.00     0.217 C 
BRANCH   9  10
HETATM   10  O           1     -21.606  -9.684  -4.487  0.00  0.00    -0.287 OA
BRANCH  10  11
HETATM   11  P           1     -20.305 -10.252  -5.259  0.00  0.00     0.406 P 
HETATM   12  O           1     -20.735 -11.037  -6.438  0.00  0.00    -0.624 OA
HETATM   13  O           1     -19.460  -9.121  -5.701  0.00  0.00    -0.624 OA
BRANCH  11  14
HETATM   14  O           1     -19.459 -11.198  -4.260  0.00  0.00    -0.300 OA
HETATM   15  H           1     -20.019 -11.325  -3.513  0.00  0.00     0.223 HD
ENDBRANCH  11  14
ENDBRANCH  10  11
ENDBRANCH   9  10
ENDBRANCH   5   9
ENDBRANCH   4   5
BRANCH   3  16
HETATM   16  C           1     -20.274  -5.317  -6.147  0.00  0.00     0.284 C 
BRANCH  16  17
HETATM   17  N           1     -19.777  -6.266  -7.197  0.00  0.00    -0.066 N 
HETATM   18  H           1     -18.819  -5.979  -7.500  0.00  0.00     0.275 HD
HETATM   19  H           1     -19.743  -7.233  -6.803  0.00  0.00     0.275 HD
HETATM   20  H           1     -20.423  -6.245  -8.018  0.00  0.00     0.275 HD
ENDBRANCH  16  17
BRANCH  16  21
HETATM   21  C           1     -20.958  -4.132  -6.817  0.00  0.00     0.155 C 
BRANCH  21  22
HETATM   22  C           1     -21.044  -4.374  -8.303  0.00  0.00     0.175 C 
HETATM   23  O           1     -20.124  -3.984  -9.054  0.00  0.00    -0.648 OA
HETATM   24  O           1     -22.035  -4.963  -8.784  0.00  0.00    -0.648 OA
ENDBRANCH  21  22
ENDBRANCH  16  21
ENDBRANCH   3  16
TORSDOF 10
ENDMDL
MODEL 5
REMARK VINA RESULT:      -5.0      2.551      6.703
REMARK  10 active torsions:
REMARK  status: ('A' for Active; 'I' for Inactive)
REMARK    1  A    between atoms: N_2  and  C_9 
REMARK    2  A    between atoms: C_6  and  C_20 
REMARK    3  A    between atoms: C_9  and  C_10 
REMARK    4  A    between atoms: C_9  and  C_12 
REMARK       I    between atoms: C_10  and  N_13 
REMARK    5  A    between atoms: C_11  and  C_12 
REMARK    6  A    between atoms: N_13  and  C_20 
REMARK    7  A    between atoms: O_15  and  P_17 
REMARK    8  A    between atoms: P_17  and  O_18 
REMARK    9  A    between atoms: O_18  and  C_19 
REMARK   10  A    between atoms: C_19  and  C_20 
ROOT
HETATM    1  O           1     -21.137  -3.476  -8.191  0.00  0.00    -0.271 OA
HETATM    2  H           1     -22.627  -5.812  -6.721  0.00  0.00     0.163 HD
HETATM    3  C           1     -21.993  -4.303  -7.988  0.00  0.00     0.249 C 
HETATM    4  N           1     -21.909  -5.119  -6.892  0.00  0.00    -0.343 N 
ENDROOT
BRANCH   4   5
HETATM    5  C           1     -20.792  -4.993  -5.977  0.00  0.00     0.210 C 
BRANCH   5   6
HETATM    6  C           1     -19.528  -5.455  -6.661  0.00  0.00     0.198 C 
HETATM    7  O           1     -18.549  -4.683  -6.754  0.00  0.00    -0.646 OA
HETATM    8  O           1     -19.460  -6.609  -7.134  0.00  0.00    -0.646 OA
ENDBRANCH   5   6
BRANCH   5   9
HETATM    9  C           1     -21.045  -5.852  -4.745  0.00  0.00     0.217 C 
BRANCH   9  10
HETATM   10  O           1     -21.660  -7.052  -5.130  0.00  0.00    -0.287 OA
BRANCH  10  11
HETATM   11  P           1     -21.005  -8.404  -4.535  0.00  0.00     0.406 P 
HETATM   12  O           1     -20.265  -8.089  -3.293  0.00  0.00    -0.624 OA
HETATM   13  O           1     -22.076  -9.381  -4.237  0.00  0.00    -0.624 OA
BRANCH  11  14
HETATM   14  O           1     -19.992  -9.034  -5.623  0.00  0.00    -0.300 OA
HETATM   15  H           1     -19.710  -8.301  -6.145  0.00  0.00     0.223 HD
ENDBRANCH  11  14
ENDBRANCH  10  11
ENDBRANCH   9  10
ENDBRANCH   5   9
ENDBRANCH   4   5
BRANCH   3  16
HETATM   16  C           1     -23.156  -4.436  -8.940  0.00  0.00     0.284 C 
BRANCH  16  17
HETATM   17  N           1     -24.355  -3.739  -8.366  0.00  0.00    -0.066 N 
HETATM   18  H           1     -24.444  -3.978  -7.352  0.00  0.00     0.275 HD
HETATM   19  H           1     -24.238  -2.706  -8.471  0.00  0.00     0.275 HD
HETATM   20  H           1     -25.213  -4.048  -8.875  0.00  0.00     0.275 HD
ENDBRANCH  16  17
BRANCH  16  21
HETATM   21  C           1     -22.793  -3.802 -10.276  0.00  0.00     0.155 C 
BRANCH  21  22
HETATM   22  C           1     -23.950  -3.946 -11.234  0.00  0.00     0.175 C 
HETATM   23  O           1     -23.863  -4.725 -12.207  0.00  0.00    -0.648 OA
HETATM   24  O           1     -24.996  -3.286 -11.054  0.00  0.00    -0.648 OA
ENDBRANCH  21  22
ENDBRANCH  16  21
ENDBRANCH   3  16
TORSDOF 10
ENDMDL
MODEL 6
REMARK VINA RESULT:      -5.0      3.134      7.672
REMARK  10 active torsions:
REMARK  status: ('A' for Active; 'I' for Inactive)
REMARK    1  A    between atoms: N_2  and  C_9 
REMARK    2  A    between atoms: C_6  and  C_20 
REMARK    3  A    between atoms: C_9  and  C_10 
REMARK    4  A    between atoms: C_9  and  C_12 
REMARK       I    between atoms: C_10  and  N_13 
REMARK    5  A    between atoms: C_11  and  C_12 
REMARK    6  A    between atoms: N_13  and  C_20 
REMARK    7  A    between atoms: O_15  and  P_17 
REMARK    8  A    between atoms: P_17  and  O_18 
REMARK    9  A    between atoms: O_18  and  C_19 
REMARK   10  A    between atoms: C_19  and  C_20 
ROOT
HETATM    1  O           1     -22.584  -5.794  -5.583  0.00  0.00    -0.271 OA
HETATM    2  H           1     -19.778  -6.842  -4.652  0.00  0.00     0.163 HD
HETATM    3  C           1     -21.381  -5.899  -5.560  0.00  0.00     0.249 C 
HETATM    4  N           1     -20.786  -6.754  -4.672  0.00  0.00    -0.343 N 
ENDROOT
BRANCH   4   5
HETATM    5  C           1     -21.599  -7.532  -3.758  0.00  0.00     0.210 C 
BRANCH   5   6
HETATM    6  C           1     -21.579  -6.888  -2.393  0.00  0.00     0.198 C 
HETATM    7  O           1     -22.249  -5.855  -2.180  0.00  0.00    -0.646 OA
HETATM    8  O           1     -20.892  -7.388  -1.477  0.00  0.00    -0.646 OA
ENDBRANCH   5   6
BRANCH   5   9
HETATM    9  C           1     -21.040  -8.946  -3.660  0.00  0.00     0.217 C 
BRANCH   9  10
HETATM   10  O           1     -22.096  -9.861  -3.545  0.00  0.00    -0.287 OA
BRANCH  10  11
HETATM   11  P           1     -22.020 -10.875  -2.290  0.00  0.00     0.406 P 
HETATM   12  O           1     -23.202 -11.766  -2.303  0.00  0.00    -0.624 OA
HETATM   13  O           1     -20.788 -11.689  -2.388  0.00  0.00    -0.624 OA
BRANCH  11  14
HETATM   14  O           1     -21.998 -10.028  -0.916  0.00  0.00    -0.300 OA
HETATM   15  H           1     -22.898  -9.989  -0.639  0.00  0.00     0.223 HD
ENDBRANCH  11  14
ENDBRANCH  10  11
ENDBRANCH   9  10
ENDBRANCH   5   9
ENDBRANCH   4   5
BRANCH   3  16
HETATM   16  C           1     -20.533  -5.089  -6.510  0.00  0.00     0.284 C 
BRANCH  16  17
HETATM   17  N           1     -19.957  -5.991  -7.560  0.00  0.00    -0.066 N 
HETATM   18  H           1     -19.339  -6.702  -7.108  0.00  0.00     0.275 HD
HETATM   19  H           1     -20.733  -6.476  -8.065  0.00  0.00     0.275 HD
HETATM   20  H           1     -19.400  -5.425  -8.238  0.00  0.00     0.275 HD
ENDBRANCH  16  17
BRANCH  16  21
HETATM   21  C           1     -21.395  -4.023  -7.175  0.00  0.00     0.155 C 
BRANCH  21  22
HETATM   22  C           1     -21.457  -4.279  -8.660  0.00  0.00     0.175 C 
HETATM   23  O           1     -20.540  -3.869  -9.404  0.00  0.00    -0.648 OA
HETATM   24  O           1     -22.426  -4.901  -9.146  0.00  0.00    -0.648 OA
ENDBRANCH  21  22
ENDBRANCH  16  21
ENDBRANCH   3  16
TORSDOF 10
ENDMDL
MODEL 7
REMARK VINA RESULT:      -5.0      4.553      6.371
REMARK  10 active torsions:
REMARK  status: ('A' for Active; 'I' for Inactive)
REMARK    1  A    between atoms: N_2  and  C_9 
REMARK    2  A    between atoms: C_6  and  C_20 
REMARK    3  A    between atoms: C_9  and  C_10 
REMARK    4  A    between atoms: C_9  and  C_12 
REMARK       I    between atoms: C_10  and  N_13 
REMARK    5  A    between atoms: C_11  and  C_12 
REMARK    6  A    between atoms: N_13  and  C_20 
REMARK    7  A    between atoms: O_15  and  P_17 
REMARK    8  A    between atoms: P_17  and  O_18 
REMARK    9  A    between atoms: O_18  and  C_19 
REMARK   10  A    between atoms: C_19  and  C_20 
ROOT
HETATM    1  O           1     -19.038  -8.978  -2.410  0.00  0.00    -0.271 OA
HETATM    2  H           1     -22.133  -9.071  -2.908  0.00  0.00     0.163 HD
HETATM    3  C           1     -20.093  -9.404  -2.815  0.00  0.00     0.249 C 
HETATM    4  N           1     -21.249  -8.714  -2.569  0.00  0.00    -0.343 N 
ENDROOT
BRANCH   4   5
HETATM    5  C           1     -21.207  -7.471  -1.822  0.00  0.00     0.210 C 
BRANCH   5   6
HETATM    6  C           1     -21.899  -7.660  -0.494  0.00  0.00     0.198 C 
HETATM    7  O           1     -23.053  -7.211  -0.322  0.00  0.00    -0.646 OA
HETATM    8  O           1     -21.318  -8.264   0.433  0.00  0.00    -0.646 OA
ENDBRANCH   5   6
BRANCH   5   9
HETATM    9  C           1     -21.916  -6.380  -2.614  0.00  0.00     0.217 C 
BRANCH   9  10
HETATM   10  O           1     -21.114  -5.990  -3.696  0.00  0.00    -0.287 OA
BRANCH  10  11
HETATM   11  P           1     -21.725  -6.267  -5.166  0.00  0.00     0.406 P 
HETATM   12  O           1     -23.192  -6.080  -5.133  0.00  0.00    -0.624 OA
HETATM   13  O           1     -21.128  -5.321  -6.134  0.00  0.00    -0.624 OA
BRANCH  11  14
HETATM   14  O           1     -21.383  -7.781  -5.612  0.00  0.00    -0.300 OA
HETATM   15  H           1     -21.915  -8.325  -5.057  0.00  0.00     0.223 HD
ENDBRANCH  11  14
ENDBRANCH  10  11
ENDBRANCH   9  10
ENDBRANCH   5   9
ENDBRANCH   4   5
BRANCH   3  16
HETATM   16  C           1     -20.138 -10.697  -3.591  0.00  0.00     0.284 C 
BRANCH  16  17
HETATM   17  N           1     -21.238 -10.632  -4.609  0.00  0.00    -0.066 N 
HETATM   18  H           1     -21.905  -9.869  -4.352  0.00  0.00     0.275 HD
HETATM   19  H           1     -20.829 -10.434  -5.550  0.00  0.00     0.275 HD
HETATM   20  H           1     -21.745 -11.545  -4.632  0.00  0.00     0.275 HD
ENDBRANCH  16  17
BRANCH  16  21
HETATM   21  C           1     -18.806 -10.910  -4.299  0.00  0.00     0.155 C 
BRANCH  21  22
HETATM   22  C           1     -18.895 -10.386  -5.711  0.00  0.00     0.175 C 
HETATM   23  O           1     -18.764  -9.162  -5.932  0.00  0.00    -0.648 OA
HETATM   24  O           1     -19.099 -11.174  -6.659  0.00  0.00    -0.648 OA
ENDBRANCH  21  22
ENDBRANCH  16  21
ENDBRANCH   3  16
TORSDOF 10
ENDMDL
MODEL 8
REMARK VINA RESULT:      -4.9      3.685      7.994
REMARK  10 active torsions:
REMARK  status: ('A' for Active; 'I' for Inactive)
REMARK    1  A    between atoms: N_2  and  C_9 
REMARK    2  A    between atoms: C_6  and  C_20 
REMARK    3  A    between atoms: C_9  and  C_10 
REMARK    4  A    between atoms: C_9  and  C_12 
REMARK       I    between atoms: C_10  and  N_13 
REMARK    5  A    between atoms: C_11  and  C_12 
REMARK    6  A    between atoms: N_13  and  C_20 
REMARK    7  A    between atoms: O_15  and  P_17 
REMARK    8  A    between atoms: P_17  and  O_18 
REMARK    9  A    between atoms: O_18  and  C_19 
REMARK   10  A    between atoms: C_19  and  C_20 
ROOT
HETATM    1  O           1     -21.203  -6.137  -3.128  0.00  0.00    -0.271 OA
HETATM    2  H           1     -20.417  -8.734  -4.701  0.00  0.00     0.163 HD
HETATM    3  C           1     -21.081  -6.876  -4.075  0.00  0.00     0.249 C 
HETATM    4  N           1     -20.520  -8.114  -3.908  0.00  0.00    -0.343 N 
ENDROOT
BRANCH   4   5
HETATM    5  C           1     -20.072  -8.537  -2.595  0.00  0.00     0.210 C 
BRANCH   5   6
HETATM    6  C           1     -18.883  -9.454  -2.741  0.00  0.00     0.198 C 
HETATM    7  O           1     -18.775 -10.459  -2.005  0.00  0.00    -0.646 OA
HETATM    8  O           1     -18.006  -9.209  -3.597  0.00  0.00    -0.646 OA
ENDBRANCH   5   6
BRANCH   5   9
HETATM    9  C           1     -21.201  -9.277  -1.889  0.00  0.00     0.217 C 
BRANCH   9  10
HETATM   10  O           1     -21.143  -9.017  -0.512  0.00  0.00    -0.287 OA
BRANCH  10  11
HETATM   11  P           1     -22.407  -8.230   0.114  0.00  0.00     0.406 P 
HETATM   12  O           1     -23.584  -9.127   0.136  0.00  0.00    -0.624 OA
HETATM   13  O           1     -22.087  -7.801   1.493  0.00  0.00    -0.624 OA
BRANCH  11  14
HETATM   14  O           1     -22.733  -6.933  -0.791  0.00  0.00    -0.300 OA
HETATM   15  H           1     -21.892  -6.619  -1.079  0.00  0.00     0.223 HD
ENDBRANCH  11  14
ENDBRANCH  10  11
ENDBRANCH   9  10
ENDBRANCH   5   9
ENDBRANCH   4   5
BRANCH   3  16
HETATM   16  C           1     -21.545  -6.437  -5.441  0.00  0.00     0.284 C 
BRANCH  16  17
HETATM   17  N           1     -22.933  -5.876  -5.341  0.00  0.00    -0.066 N 
HETATM   18  H           1     -23.017  -5.307  -4.468  0.00  0.00     0.275 HD
HETATM   19  H           1     -23.123  -5.269  -6.171  0.00  0.00     0.275 HD
HETATM   20  H           1     -23.624  -6.659  -5.315  0.00  0.00     0.275 HD
ENDBRANCH  16  17
BRANCH  16  21
HETATM   21  C           1     -20.603  -5.367  -5.978  0.00  0.00     0.155 C 
BRANCH  21  22
HETATM   22  C           1     -21.266  -4.639  -7.122  0.00  0.00     0.175 C 
HETATM   23  O           1     -21.597  -5.264  -8.152  0.00  0.00    -0.648 OA
HETATM   24  O           1     -21.484  -3.412  -7.038  0.00  0.00    -0.648 OA
ENDBRANCH  21  22
ENDBRANCH  16  21
ENDBRANCH   3  16
TORSDOF 10
ENDMDL
MODEL 9
REMARK VINA RESULT:      -4.9      3.652      5.440
REMARK  10 active torsions:
REMARK  status: ('A' for Active; 'I' for Inactive)
REMARK    1  A    between atoms: N_2  and  C_9 
REMARK    2  A    between atoms: C_6  and  C_20 
REMARK    3  A    between atoms: C_9  and  C_10 
REMARK    4  A    between atoms: C_9  and  C_12 
REMARK       I    between atoms: C_10  and  N_13 
REMARK    5  A    between atoms: C_11  and  C_12 
REMARK    6  A    between atoms: N_13  and  C_20 
REMARK    7  A    between atoms: O_15  and  P_17 
REMARK    8  A    between atoms: P_17  and  O_18 
REMARK    9  A    between atoms: O_18  and  C_19 
REMARK   10  A    between atoms: C_19  and  C_20 
ROOT
HETATM    1  O           1     -22.360 -10.544  -3.037  0.00  0.00    -0.271 OA
HETATM    2  H           1     -20.836  -8.059  -1.876  0.00  0.00     0.163 HD
HETATM    3  C           1     -21.884  -9.815  -2.199  0.00  0.00     0.249 C 
HETATM    4  N           1     -21.236  -8.670  -2.578  0.00  0.00    -0.343 N 
ENDROOT
BRANCH   4   5
HETATM    5  C           1     -21.119  -8.333  -3.983  0.00  0.00     0.210 C 
BRANCH   5   6
HETATM    6  C           1     -19.743  -8.707  -4.478  0.00  0.00     0.198 C 
HETATM    7  O           1     -18.830  -8.950  -3.660  0.00  0.00    -0.646 OA
HETATM    8  O           1     -19.518  -8.774  -5.705  0.00  0.00    -0.646 OA
ENDBRANCH   5   6
BRANCH   5   9
HETATM    9  C           1     -21.335  -6.836  -4.165  0.00  0.00     0.217 C 
BRANCH   9  10
HETATM   10  O           1     -21.996  -6.602  -5.379  0.00  0.00    -0.287 OA
BRANCH  10  11
HETATM   11  P           1     -21.313  -5.513  -6.358  0.00  0.00     0.406 P 
HETATM   12  O           1     -20.339  -4.704  -5.593  0.00  0.00    -0.624 OA
HETATM   13  O           1     -20.618  -6.210  -7.462  0.00  0.00    -0.624 OA
BRANCH  11  14
HETATM   14  O           1     -22.457  -4.549  -6.968  0.00  0.00    -0.300 OA
HETATM   15  H           1     -23.272  -4.935  -6.695  0.00  0.00     0.223 HD
ENDBRANCH  11  14
ENDBRANCH  10  11
ENDBRANCH   9  10
ENDBRANCH   5   9
ENDBRANCH   4   5
BRANCH   3  16
HETATM   16  C           1     -22.004 -10.165  -0.737  0.00  0.00     0.284 C 
BRANCH  16  17
HETATM   17  N           1     -20.792  -9.671  -0.003  0.00  0.00    -0.066 N 
HETATM   18  H           1     -20.434 -10.424   0.627  0.00  0.00     0.275 HD
HETATM   19  H           1     -20.051  -9.412  -0.692  0.00  0.00     0.275 HD
HETATM   20  H           1     -21.049  -8.833   0.566  0.00  0.00     0.275 HD
ENDBRANCH  16  17
BRANCH  16  21
HETATM   21  C           1     -23.250  -9.507  -0.158  0.00  0.00     0.155 C 
BRANCH  21  22
HETATM   22  C           1     -22.910  -8.119   0.324  0.00  0.00     0.175 C 
HETATM   23  O           1     -22.632  -7.925   1.527  0.00  0.00    -0.648 OA
HETATM   24  O           1     -22.905  -7.162  -0.480  0.00  0.00    -0.648 OA
ENDBRANCH  21  22
ENDBRANCH  16  21
ENDBRANCH   3  16
TORSDOF 10
ENDMDL
