MODEL 1
REMARK VINA RESULT:      -5.9      0.000      0.000
REMARK  9 active torsions:
REMARK  status: ('A' for Active; 'I' for Inactive)
REMARK       I    between atoms: C_2  and  N_3 
REMARK    1  A    between atoms: C_2  and  C_14 
REMARK    2  A    between atoms: N_3  and  C_7 
REMARK    3  A    between atoms: C_6  and  C_7 
REMARK    4  A    between atoms: C_7  and  C_8 
REMARK    5  A    between atoms: C_8  and  S_19 
REMARK    6  A    between atoms: C_9  and  C_14 
REMARK    7  A    between atoms: C_9  and  C_21 
REMARK    8  A    between atoms: C_14  and  N_18 
REMARK       I    between atoms: N_16  and  C_22 
REMARK    9  A    between atoms: C_21  and  C_22 
ROOT
HETATM    1  C           1     -25.398  -7.639 -20.294  0.00  0.00     0.275 C 
ENDROOT
BRANCH   1   2
HETATM    2  C           1     -25.308  -6.912 -18.975  0.00  0.00     0.249 C 
HETATM    3  N           1     -26.444  -6.657 -18.254  0.00  0.00    -0.344 N 
HETATM    4  H           1     -27.344  -6.957 -18.606  0.00  0.00     0.163 HD
HETATM    5  O           1     -24.233  -6.555 -18.554  0.00  0.00    -0.271 OA
BRANCH   3   6
HETATM    6  C           1     -26.356  -5.957 -16.987  0.00  0.00     0.194 C 
BRANCH   6   7
HETATM    7  C           1     -26.320  -6.961 -15.861  0.00  0.00     0.197 C 
HETATM    8  O           1     -25.222  -7.359 -15.413  0.00  0.00    -0.646 OA
HETATM    9  O           1     -27.388  -7.395 -15.376  0.00  0.00    -0.646 OA
ENDBRANCH   6   7
BRANCH   6  10
HETATM   10  C           1     -27.571  -5.053 -16.823  0.00  0.00     0.106 C 
BRANCH  10  11
HETATM   11  S           1     -28.724  -5.333 -18.197  0.00  0.00    -0.180 SA
HETATM   12  H           1     -29.153  -6.537 -17.777  0.00  0.00     0.101 HD
ENDBRANCH  10  11
ENDBRANCH   6  10
ENDBRANCH   3   6
ENDBRANCH   1   2
BRANCH   1  13
HETATM   13  C           1     -24.577  -6.899 -21.341  0.00  0.00     0.052 C 
BRANCH  13  14
HETATM   14  C           1     -24.062  -7.889 -22.377  0.00  0.00     0.105 C 
BRANCH  14  15
HETATM   15  C           1     -22.726  -8.433 -21.932  0.00  0.00     0.215 C 
HETATM   16  N           1     -22.396  -8.436 -20.603  0.00  0.00    -0.370 N 
HETATM   17  H           1     -23.048  -8.072 -19.920  0.00  0.00     0.159 HD
HETATM   18  H           1     -21.502  -8.801 -20.305  0.00  0.00     0.159 HD
HETATM   19  O           1     -21.949  -8.869 -22.748  0.00  0.00    -0.274 OA
ENDBRANCH  14  15
ENDBRANCH  13  14
ENDBRANCH   1  13
BRANCH   1  20
HETATM   20  N           1     -26.831  -7.700 -20.733  0.00  0.00    -0.066 N 
HETATM   21  H           1     -26.883  -7.572 -21.768  0.00  0.00     0.275 HD
HETATM   22  H           1     -27.235  -8.629 -20.477  0.00  0.00     0.275 HD
HETATM   23  H           1     -27.372  -6.941 -20.261  0.00  0.00     0.275 HD
ENDBRANCH   1  20
TORSDOF 9
ENDMDL
MODEL 2
REMARK VINA RESULT:      -5.9     10.874     13.605
REMARK  9 active torsions:
REMARK  status: ('A' for Active; 'I' for Inactive)
REMARK       I    between atoms: C_2  and  N_3 
REMARK    1  A    between atoms: C_2  and  C_14 
REMARK    2  A    between atoms: N_3  and  C_7 
REMARK    3  A    between atoms: C_6  and  C_7 
REMARK    4  A    between atoms: C_7  and  C_8 
REMARK    5  A    between atoms: C_8  and  S_19 
REMARK    6  A    between atoms: C_9  and  C_14 
REMARK    7  A    between atoms: C_9  and  C_21 
REMARK    8  A    between atoms: C_14  and  N_18 
REMARK       I    between atoms: N_16  and  C_22 
REMARK    9  A    between atoms: C_21  and  C_22 
ROOT
HETATM    1  C           1     -21.153  -5.904  -6.821  0.00  0.00     0.275 C 
ENDROOT
BRANCH   1   2
HETATM    2  C           1     -21.691  -4.678  -7.517  0.00  0.00     0.249 C 
HETATM    3  N           1     -22.255  -4.787  -8.760  0.00  0.00    -0.344 N 
HETATM    4  H           1     -22.310  -5.692  -9.212  0.00  0.00     0.163 HD
HETATM    5  O           1     -21.626  -3.599  -6.977  0.00  0.00    -0.271 OA
BRANCH   3   6
HETATM    6  C           1     -22.772  -3.609  -9.428  0.00  0.00     0.194 C 
BRANCH   6   7
HETATM    7  C           1     -24.254  -3.774  -9.662  0.00  0.00     0.197 C 
HETATM    8  O           1     -25.015  -2.787  -9.565  0.00  0.00    -0.646 OA
HETATM    9  O           1     -24.719  -4.898  -9.952  0.00  0.00    -0.646 OA
ENDBRANCH   6   7
BRANCH   6  10
HETATM   10  C           1     -22.063  -3.432 -10.764  0.00  0.00     0.106 C 
BRANCH  10  11
HETATM   11  S           1     -20.481  -4.321 -10.732  0.00  0.00    -0.180 SA
HETATM   12  H           1     -20.110  -3.904  -9.507  0.00  0.00     0.101 HD
ENDBRANCH  10  11
ENDBRANCH   6  10
ENDBRANCH   3   6
ENDBRANCH   1   2
BRANCH   1  13
HETATM   13  C           1     -21.076  -5.646  -5.322  0.00  0.00     0.052 C 
BRANCH  13  14
HETATM   14  C           1     -22.056  -6.559  -4.599  0.00  0.00     0.105 C 
BRANCH  14  15
HETATM   15  C           1     -21.691  -6.631  -3.136  0.00  0.00     0.215 C 
HETATM   16  N           1     -22.338  -5.835  -2.229  0.00  0.00    -0.370 N 
HETATM   17  H           1     -23.060  -5.198  -2.540  0.00  0.00     0.159 HD
HETATM   18  H           1     -22.094  -5.884  -1.249  0.00  0.00     0.159 HD
HETATM   19  O           1     -20.830  -7.393  -2.765  0.00  0.00    -0.274 OA
ENDBRANCH  14  15
ENDBRANCH  13  14
ENDBRANCH   1  13
BRANCH   1  20
HETATM   20  N           1     -19.782  -6.213  -7.346  0.00  0.00    -0.066 N 
HETATM   21  H           1     -19.836  -7.022  -8.006  0.00  0.00     0.275 HD
HETATM   22  H           1     -19.404  -5.378  -7.849  0.00  0.00     0.275 HD
HETATM   23  H           1     -19.150  -6.456  -6.549  0.00  0.00     0.275 HD
ENDBRANCH   1  20
TORSDOF 9
ENDMDL
MODEL 3
REMARK VINA RESULT:      -5.8      2.259      3.251
REMARK  9 active torsions:
REMARK  status: ('A' for Active; 'I' for Inactive)
REMARK       I    between atoms: C_2  and  N_3 
REMARK    1  A    between atoms: C_2  and  C_14 
REMARK    2  A    between atoms: N_3  and  C_7 
REMARK    3  A    between atoms: C_6  and  C_7 
REMARK    4  A    between atoms: C_7  and  C_8 
REMARK    5  A    between atoms: C_8  and  S_19 
REMARK    6  A    between atoms: C_9  and  C_14 
REMARK    7  A    between atoms: C_9  and  C_21 
REMARK    8  A    between atoms: C_14  and  N_18 
REMARK       I    between atoms: N_16  and  C_22 
REMARK    9  A    between atoms: C_21  and  C_22 
ROOT
HETATM    1  C           1     -24.992  -6.768 -17.204  0.00  0.00     0.275 C 
ENDROOT
BRANCH   1   2
HETATM    2  C           1     -26.295  -6.920 -16.458  0.00  0.00     0.249 C 
HETATM    3  N           1     -27.475  -6.581 -17.064  0.00  0.00    -0.344 N 
HETATM    4  H           1     -27.472  -6.228 -18.013  0.00  0.00     0.163 HD
HETATM    5  O           1     -26.297  -7.342 -15.326  0.00  0.00    -0.271 OA
BRANCH   3   6
HETATM    6  C           1     -28.726  -6.728 -16.347  0.00  0.00     0.194 C 
BRANCH   6   7
HETATM    7  C           1     -29.780  -7.268 -17.282  0.00  0.00     0.197 C 
HETATM    8  O           1     -29.496  -8.188 -18.079  0.00  0.00    -0.646 OA
HETATM    9  O           1     -30.938  -6.795 -17.260  0.00  0.00    -0.646 OA
ENDBRANCH   6   7
BRANCH   6  10
HETATM   10  C           1     -29.167  -5.371 -15.814  0.00  0.00     0.106 C 
BRANCH  10  11
HETATM   11  S           1     -28.591  -4.064 -16.935  0.00  0.00    -0.180 SA
HETATM   12  H           1     -27.278  -4.299 -16.763  0.00  0.00     0.101 HD
ENDBRANCH  10  11
ENDBRANCH   6  10
ENDBRANCH   3   6
ENDBRANCH   1   2
BRANCH   1  13
HETATM   13  C           1     -25.255  -6.813 -18.703  0.00  0.00     0.052 C 
BRANCH  13  14
HETATM   14  C           1     -24.030  -7.370 -19.417  0.00  0.00     0.105 C 
BRANCH  14  15
HETATM   15  C           1     -24.452  -8.003 -20.720  0.00  0.00     0.215 C 
HETATM   16  N           1     -23.508  -8.509 -21.573  0.00  0.00    -0.370 N 
HETATM   17  H           1     -22.527  -8.459 -21.329  0.00  0.00     0.159 HD
HETATM   18  H           1     -23.791  -8.934 -22.446  0.00  0.00     0.159 HD
HETATM   19  O           1     -25.623  -8.063 -21.011  0.00  0.00    -0.274 OA
ENDBRANCH  14  15
ENDBRANCH  13  14
ENDBRANCH   1  13
BRANCH   1  20
HETATM   20  N           1     -24.066  -7.886 -16.824  0.00  0.00    -0.066 N 
HETATM   21  H           1     -23.290  -7.510 -16.234  0.00  0.00     0.275 HD
HETATM   22  H           1     -24.595  -8.609 -16.286  0.00  0.00     0.275 HD
HETATM   23  H           1     -23.668  -8.316 -17.689  0.00  0.00     0.275 HD
ENDBRANCH   1  20
TORSDOF 9
ENDMDL
MODEL 4
REMARK VINA RESULT:      -5.7      3.818      7.093
REMARK  9 active torsions:
REMARK  status: ('A' for Active; 'I' for Inactive)
REMARK       I    between atoms: C_2  and  N_3 
REMARK    1  A    between atoms: C_2  and  C_14 
REMARK    2  A    between atoms: N_3  and  C_7 
REMARK    3  A    between atoms: C_6  and  C_7 
REMARK    4  A    between atoms: C_7  and  C_8 
REMARK    5  A    between atoms: C_8  and  S_19 
REMARK    6  A    between atoms: C_9  and  C_14 
REMARK    7  A    between atoms: C_9  and  C_21 
REMARK    8  A    between atoms: C_14  and  N_18 
REMARK       I    between atoms: N_16  and  C_22 
REMARK    9  A    between atoms: C_21  and  C_22 
ROOT
HETATM    1  C           1     -28.517  -6.073 -16.998  0.00  0.00     0.275 C 
ENDROOT
BRANCH   1   2
HETATM    2  C           1     -28.131  -5.997 -18.454  0.00  0.00     0.249 C 
HETATM    3  N           1     -27.251  -6.905 -18.978  0.00  0.00    -0.344 N 
HETATM    4  H           1     -26.860  -7.629 -18.388  0.00  0.00     0.163 HD
HETATM    5  O           1     -28.599  -5.134 -19.158  0.00  0.00    -0.271 OA
BRANCH   3   6
HETATM    6  C           1     -26.880  -6.831 -20.378  0.00  0.00     0.194 C 
BRANCH   6   7
HETATM    7  C           1     -27.052  -8.187 -21.016  0.00  0.00     0.197 C 
HETATM    8  O           1     -28.143  -8.791 -20.916  0.00  0.00    -0.646 OA
HETATM    9  O           1     -26.105  -8.707 -21.644  0.00  0.00    -0.646 OA
ENDBRANCH   6   7
BRANCH   6  10
HETATM   10  C           1     -25.425  -6.396 -20.493  0.00  0.00     0.106 C 
BRANCH  10  11
HETATM   11  S           1     -24.496  -7.001 -19.056  0.00  0.00    -0.180 SA
HETATM   12  H           1     -24.057  -5.795 -18.654  0.00  0.00     0.101 HD
ENDBRANCH  10  11
ENDBRANCH   6  10
ENDBRANCH   3   6
ENDBRANCH   1   2
BRANCH   1  13
HETATM   13  C           1     -29.513  -4.967 -16.676  0.00  0.00     0.052 C 
BRANCH  13  14
HETATM   14  C           1     -30.932  -5.490 -16.865  0.00  0.00     0.105 C 
BRANCH  14  15
HETATM   15  C           1     -31.893  -4.327 -16.924  0.00  0.00     0.215 C 
HETATM   16  N           1     -33.112  -4.415 -16.308  0.00  0.00    -0.370 N 
HETATM   17  H           1     -33.369  -5.260 -15.814  0.00  0.00     0.159 HD
HETATM   18  H           1     -33.756  -3.637 -16.347  0.00  0.00     0.159 HD
HETATM   19  O           1     -31.585  -3.318 -17.513  0.00  0.00    -0.274 OA
ENDBRANCH  14  15
ENDBRANCH  13  14
ENDBRANCH   1  13
BRANCH   1  20
HETATM   20  N           1     -27.293  -5.906 -16.147  0.00  0.00    -0.066 N 
HETATM   21  H           1     -26.440  -6.043 -16.735  0.00  0.00     0.275 HD
HETATM   22  H           1     -27.282  -4.945 -15.737  0.00  0.00     0.275 HD
HETATM   23  H           1     -27.303  -6.614 -15.379  0.00  0.00     0.275 HD
ENDBRANCH   1  20
TORSDOF 9
ENDMDL
MODEL 5
REMARK VINA RESULT:      -5.7     12.144     14.379
REMARK  9 active torsions:
REMARK  status: ('A' for Active; 'I' for Inactive)
REMARK       I    between atoms: C_2  and  N_3 
REMARK    1  A    between atoms: C_2  and  C_14 
REMARK    2  A    between atoms: N_3  and  C_7 
REMARK    3  A    between atoms: C_6  and  C_7 
REMARK    4  A    between atoms: C_7  and  C_8 
REMARK    5  A    between atoms: C_8  and  S_19 
REMARK    6  A    between atoms: C_9  and  C_14 
REMARK    7  A    between atoms: C_9  and  C_21 
REMARK    8  A    between atoms: C_14  and  N_18 
REMARK       I    between atoms: N_16  and  C_22 
REMARK    9  A    between atoms: C_21  and  C_22 
ROOT
HETATM    1  C           1     -20.468  -4.978  -6.589  0.00  0.00     0.275 C 
ENDROOT
BRANCH   1   2
HETATM    2  C           1     -21.367  -5.776  -5.676  0.00  0.00     0.249 C 
HETATM    3  N           1     -20.828  -6.696  -4.817  0.00  0.00    -0.344 N 
HETATM    4  H           1     -19.826  -6.840  -4.795  0.00  0.00     0.163 HD
HETATM    5  O           1     -22.562  -5.602  -5.703  0.00  0.00    -0.271 OA
BRANCH   3   6
HETATM    6  C           1     -21.692  -7.462  -3.941  0.00  0.00     0.194 C 
BRANCH   6   7
HETATM    7  C           1     -21.635  -6.883  -2.548  0.00  0.00     0.197 C 
HETATM    8  O           1     -20.881  -7.392  -1.691  0.00  0.00    -0.646 OA
HETATM    9  O           1     -22.343  -5.896  -2.253  0.00  0.00    -0.646 OA
ENDBRANCH   6   7
BRANCH   6  10
HETATM   10  C           1     -21.224  -8.911  -3.909  0.00  0.00     0.106 C 
BRANCH  10  11
HETATM   11  S           1     -19.600  -9.041  -4.709  0.00  0.00    -0.180 SA
HETATM   12  H           1     -19.992  -9.878  -5.687  0.00  0.00     0.101 HD
ENDBRANCH  10  11
ENDBRANCH   6  10
ENDBRANCH   3   6
ENDBRANCH   1   2
BRANCH   1  13
HETATM   13  C           1     -21.239  -3.792  -7.154  0.00  0.00     0.052 C 
BRANCH  13  14
HETATM   14  C           1     -21.462  -3.996  -8.647  0.00  0.00     0.105 C 
BRANCH  14  15
HETATM   15  C           1     -22.929  -3.842  -8.962  0.00  0.00     0.215 C 
HETATM   16  N           1     -23.866  -4.081  -7.994  0.00  0.00    -0.370 N 
HETATM   17  H           1     -23.575  -4.362  -7.067  0.00  0.00     0.159 HD
HETATM   18  H           1     -24.850  -3.978  -8.205  0.00  0.00     0.159 HD
HETATM   19  O           1     -23.277  -3.505 -10.070  0.00  0.00    -0.274 OA
ENDBRANCH  14  15
ENDBRANCH  13  14
ENDBRANCH   1  13
BRANCH   1  20
HETATM   20  N           1     -19.999  -5.851  -7.715  0.00  0.00    -0.066 N 
HETATM   21  H           1     -20.824  -6.195  -8.256  0.00  0.00     0.275 HD
HETATM   22  H           1     -19.374  -5.301  -8.346  0.00  0.00     0.275 HD
HETATM   23  H           1     -19.473  -6.667  -7.327  0.00  0.00     0.275 HD
ENDBRANCH   1  20
TORSDOF 9
ENDMDL
MODEL 6
REMARK VINA RESULT:      -5.3      2.236      2.573
REMARK  9 active torsions:
REMARK  status: ('A' for Active; 'I' for Inactive)
REMARK       I    between atoms: C_2  and  N_3 
REMARK    1  A    between atoms: C_2  and  C_14 
REMARK    2  A    between atoms: N_3  and  C_7 
REMARK    3  A    between atoms: C_6  and  C_7 
REMARK    4  A    between atoms: C_7  and  C_8 
REMARK    5  A    between atoms: C_8  and  S_19 
REMARK    6  A    between atoms: C_9  and  C_14 
REMARK    7  A    between atoms: C_9  and  C_21 
REMARK    8  A    between atoms: C_14  and  N_18 
REMARK       I    between atoms: N_16  and  C_22 
REMARK    9  A    between atoms: C_21  and  C_22 
ROOT
HETATM    1  C           1     -25.682  -6.958 -20.928  0.00  0.00     0.275 C 
ENDROOT
BRANCH   1   2
HETATM    2  C           1     -26.437  -6.726 -19.643  0.00  0.00     0.249 C 
HETATM    3  N           1     -27.801  -6.843 -19.618  0.00  0.00    -0.344 N 
HETATM    4  H           1     -28.303  -7.087 -20.463  0.00  0.00     0.163 HD
HETATM    5  O           1     -25.837  -6.437 -18.634  0.00  0.00    -0.271 OA
BRANCH   3   6
HETATM    6  C           1     -28.525  -6.620 -18.382  0.00  0.00     0.194 C 
BRANCH   6   7
HETATM    7  C           1     -29.714  -7.547 -18.322  0.00  0.00     0.197 C 
HETATM    8  O           1     -30.610  -7.361 -17.470  0.00  0.00    -0.646 OA
HETATM    9  O           1     -29.803  -8.502 -19.124  0.00  0.00    -0.646 OA
ENDBRANCH   6   7
BRANCH   6  10
HETATM   10  C           1     -29.005  -5.175 -18.330  0.00  0.00     0.106 C 
BRANCH  10  11
HETATM   11  S           1     -28.342  -4.370 -16.845  0.00  0.00    -0.180 SA
HETATM   12  H           1     -27.046  -4.479 -17.192  0.00  0.00     0.101 HD
ENDBRANCH  10  11
ENDBRANCH   6  10
ENDBRANCH   3   6
ENDBRANCH   1   2
BRANCH   1  13
HETATM   13  C           1     -24.527  -7.917 -20.674  0.00  0.00     0.052 C 
BRANCH  13  14
HETATM   14  C           1     -23.743  -8.121 -21.964  0.00  0.00     0.105 C 
BRANCH  14  15
HETATM   15  C           1     -22.379  -8.681 -21.641  0.00  0.00     0.215 C 
HETATM   16  N           1     -21.817  -8.448 -20.415  0.00  0.00    -0.370 N 
HETATM   17  H           1     -22.316  -7.900 -19.726  0.00  0.00     0.159 HD
HETATM   18  H           1     -20.904  -8.823 -20.197  0.00  0.00     0.159 HD
HETATM   19  O           1     -21.784  -9.335 -22.464  0.00  0.00    -0.274 OA
ENDBRANCH  14  15
ENDBRANCH  13  14
ENDBRANCH   1  13
BRANCH   1  20
HETATM   20  N           1     -25.145  -5.652 -21.435  0.00  0.00    -0.066 N 
HETATM   21  H           1     -25.874  -4.910 -21.325  0.00  0.00     0.275 HD
HETATM   22  H           1     -24.296  -5.388 -20.887  0.00  0.00     0.275 HD
HETATM   23  H           1     -24.895  -5.746 -22.445  0.00  0.00     0.275 HD
ENDBRANCH   1  20
TORSDOF 9
ENDMDL
MODEL 7
REMARK VINA RESULT:      -5.3      1.923      2.158
REMARK  9 active torsions:
REMARK  status: ('A' for Active; 'I' for Inactive)
REMARK       I    between atoms: C_2  and  N_3 
REMARK    1  A    between atoms: C_2  and  C_14 
REMARK    2  A    between atoms: N_3  and  C_7 
REMARK    3  A    between atoms: C_6  and  C_7 
REMARK    4  A    between atoms: C_7  and  C_8 
REMARK    5  A    between atoms: C_8  and  S_19 
REMARK    6  A    between atoms: C_9  and  C_14 
REMARK    7  A    between atoms: C_9  and  C_21 
REMARK    8  A    between atoms: C_14  and  N_18 
REMARK       I    between atoms: N_16  and  C_22 
REMARK    9  A    between atoms: C_21  and  C_22 
ROOT
HETATM    1  C           1     -26.058  -7.575 -20.304  0.00  0.00     0.275 C 
ENDROOT
BRANCH   1   2
HETATM    2  C           1     -26.964  -6.445 -19.879  0.00  0.00     0.249 C 
HETATM    3  N           1     -27.503  -6.436 -18.621  0.00  0.00    -0.344 N 
HETATM    4  H           1     -27.295  -7.188 -17.976  0.00  0.00     0.163 HD
HETATM    5  O           1     -27.211  -5.548 -20.650  0.00  0.00    -0.271 OA
BRANCH   3   6
HETATM    6  C           1     -28.373  -5.350 -18.214  0.00  0.00     0.194 C 
BRANCH   6   7
HETATM    7  C           1     -27.864  -4.756 -16.923  0.00  0.00     0.197 C 
HETATM    8  O           1     -27.242  -5.472 -16.109  0.00  0.00    -0.646 OA
HETATM    9  O           1     -28.066  -3.549 -16.669  0.00  0.00    -0.646 OA
ENDBRANCH   6   7
BRANCH   6  10
HETATM   10  C           1     -29.785  -5.882 -18.007  0.00  0.00     0.106 C 
BRANCH  10  11
HETATM   11  S           1     -29.716  -7.664 -17.669  0.00  0.00    -0.180 SA
HETATM   12  H           1     -28.793  -7.950 -18.605  0.00  0.00     0.101 HD
ENDBRANCH  10  11
ENDBRANCH   6  10
ENDBRANCH   3   6
ENDBRANCH   1   2
BRANCH   1  13
HETATM   13  C           1     -24.872  -7.014 -21.077  0.00  0.00     0.052 C 
BRANCH  13  14
HETATM   14  C           1     -24.460  -8.001 -22.162  0.00  0.00     0.105 C 
BRANCH  14  15
HETATM   15  C           1     -23.023  -8.410 -21.950  0.00  0.00     0.215 C 
HETATM   16  N           1     -22.553  -8.628 -20.682  0.00  0.00    -0.370 N 
HETATM   17  H           1     -23.169  -8.513 -19.888  0.00  0.00     0.159 HD
HETATM   18  H           1     -21.590  -8.903 -20.540  0.00  0.00     0.159 HD
HETATM   19  O           1     -22.287  -8.548 -22.898  0.00  0.00    -0.274 OA
ENDBRANCH  14  15
ENDBRANCH  13  14
ENDBRANCH   1  13
BRANCH   1  20
HETATM   20  N           1     -26.822  -8.524 -21.181  0.00  0.00    -0.066 N 
HETATM   21  H           1     -26.158  -9.026 -21.812  0.00  0.00     0.275 HD
HETATM   22  H           1     -27.330  -9.217 -20.586  0.00  0.00     0.275 HD
HETATM   23  H           1     -27.510  -7.987 -21.757  0.00  0.00     0.275 HD
ENDBRANCH   1  20
TORSDOF 9
ENDMDL
MODEL 8
REMARK VINA RESULT:      -5.2     11.243     13.503
REMARK  9 active torsions:
REMARK  status: ('A' for Active; 'I' for Inactive)
REMARK       I    between atoms: C_2  and  N_3 
REMARK    1  A    between atoms: C_2  and  C_14 
REMARK    2  A    between atoms: N_3  and  C_7 
REMARK    3  A    between atoms: C_6  and  C_7 
REMARK    4  A    between atoms: C_7  and  C_8 
REMARK    5  A    between atoms: C_8  and  S_19 
REMARK    6  A    between atoms: C_9  and  C_14 
REMARK    7  A    between atoms: C_9  and  C_21 
REMARK    8  A    between atoms: C_14  and  N_18 
REMARK       I    between atoms: N_16  and  C_22 
REMARK    9  A    between atoms: C_21  and  C_22 
ROOT
HETATM    1  C           1     -20.851  -4.062  -7.599  0.00  0.00     0.275 C 
ENDROOT
BRANCH   1   2
HETATM    2  C           1     -20.573  -4.840  -6.336  0.00  0.00     0.249 C 
HETATM    3  N           1     -21.259  -5.996  -6.079  0.00  0.00    -0.344 N 
HETATM    4  H           1     -21.953  -6.330  -6.737  0.00  0.00     0.163 HD
HETATM    5  O           1     -19.744  -4.442  -5.553  0.00  0.00    -0.271 OA
BRANCH   3   6
HETATM    6  C           1     -20.991  -6.743  -4.865  0.00  0.00     0.194 C 
BRANCH   6   7
HETATM    7  C           1     -20.563  -8.145  -5.222  0.00  0.00     0.197 C 
HETATM    8  O           1     -19.461  -8.339  -5.779  0.00  0.00    -0.646 OA
HETATM    9  O           1     -21.310  -9.112  -4.960  0.00  0.00    -0.646 OA
ENDBRANCH   6   7
BRANCH   6  10
HETATM   10  C           1     -22.254  -6.798  -4.016  0.00  0.00     0.106 C 
BRANCH  10  11
HETATM   11  S           1     -21.856  -6.332  -2.307  0.00  0.00    -0.180 SA
HETATM   12  H           1     -22.709  -7.193  -1.724  0.00  0.00     0.101 HD
ENDBRANCH  10  11
ENDBRANCH   6  10
ENDBRANCH   3   6
ENDBRANCH   1   2
BRANCH   1  13
HETATM   13  C           1     -22.344  -4.093  -7.898  0.00  0.00     0.052 C 
BRANCH  13  14
HETATM   14  C           1     -22.567  -4.570  -9.328  0.00  0.00     0.105 C 
BRANCH  14  15
HETATM   15  C           1     -23.790  -3.895  -9.898  0.00  0.00     0.215 C 
HETATM   16  N           1     -24.650  -3.224  -9.071  0.00  0.00    -0.370 N 
HETATM   17  H           1     -24.466  -3.182  -8.077  0.00  0.00     0.159 HD
HETATM   18  H           1     -25.469  -2.771  -9.453  0.00  0.00     0.159 HD
HETATM   19  O           1     -24.009  -3.944 -11.085  0.00  0.00    -0.274 OA
ENDBRANCH  14  15
ENDBRANCH  13  14
ENDBRANCH   1  13
BRANCH   1  20
HETATM   20  N           1     -20.100  -4.681  -8.741  0.00  0.00    -0.066 N 
HETATM   21  H           1     -19.544  -5.494  -8.393  0.00  0.00     0.275 HD
HETATM   22  H           1     -20.777  -5.007  -9.468  0.00  0.00     0.275 HD
HETATM   23  H           1     -19.455  -3.972  -9.158  0.00  0.00     0.275 HD
ENDBRANCH   1  20
TORSDOF 9
ENDMDL
MODEL 9
REMARK VINA RESULT:      -4.9     10.703     12.799
REMARK  9 active torsions:
REMARK  status: ('A' for Active; 'I' for Inactive)
REMARK       I    between atoms: C_2  and  N_3 
REMARK    1  A    between atoms: C_2  and  C_14 
REMARK    2  A    between atoms: N_3  and  C_7 
REMARK    3  A    between atoms: C_6  and  C_7 
REMARK    4  A    between atoms: C_7  and  C_8 
REMARK    5  A    between atoms: C_8  and  S_19 
REMARK    6  A    between atoms: C_9  and  C_14 
REMARK    7  A    between atoms: C_9  and  C_21 
REMARK    8  A    between atoms: C_14  and  N_18 
REMARK       I    between atoms: N_16  and  C_22 
REMARK    9  A    between atoms: C_21  and  C_22 
ROOT
HETATM    1  C           1     -22.760  -4.474  -8.497  0.00  0.00     0.275 C 
ENDROOT
BRANCH   1   2
HETATM    2  C           1     -22.716  -5.094  -7.122  0.00  0.00     0.249 C 
HETATM    3  N           1     -21.687  -5.931  -6.781  0.00  0.00    -0.344 N 
HETATM    4  H           1     -20.956  -6.134  -7.452  0.00  0.00     0.163 HD
HETATM    5  O           1     -23.587  -4.850  -6.321  0.00  0.00    -0.271 OA
BRANCH   3   6
HETATM    6  C           1     -21.645  -6.526  -5.459  0.00  0.00     0.194 C 
BRANCH   6   7
HETATM    7  C           1     -20.974  -5.573  -4.501  0.00  0.00     0.197 C 
HETATM    8  O           1     -21.257  -5.608  -3.284  0.00  0.00    -0.646 OA
HETATM    9  O           1     -20.134  -4.749  -4.924  0.00  0.00    -0.646 OA
ENDBRANCH   6   7
BRANCH   6  10
HETATM   10  C           1     -20.859  -7.829  -5.515  0.00  0.00     0.106 C 
BRANCH  10  11
HETATM   11  S           1     -21.524  -8.991  -4.291  0.00  0.00    -0.180 SA
HETATM   12  H           1     -21.462  -8.146  -3.246  0.00  0.00     0.101 HD
ENDBRANCH  10  11
ENDBRANCH   6  10
ENDBRANCH   3   6
ENDBRANCH   1   2
BRANCH   1  13
HETATM   13  C           1     -21.447  -3.755  -8.774  0.00  0.00     0.052 C 
BRANCH  13  14
HETATM   14  C           1     -20.858  -4.259 -10.086  0.00  0.00     0.105 C 
BRANCH  14  15
HETATM   15  C           1     -21.726  -3.804 -11.234  0.00  0.00     0.215 C 
HETATM   16  N           1     -22.119  -4.700 -12.192  0.00  0.00    -0.370 N 
HETATM   17  H           1     -21.828  -5.667 -12.129  0.00  0.00     0.159 HD
HETATM   18  H           1     -22.701  -4.396 -12.961  0.00  0.00     0.159 HD
HETATM   19  O           1     -22.074  -2.650 -11.307  0.00  0.00    -0.274 OA
ENDBRANCH  14  15
ENDBRANCH  13  14
ENDBRANCH   1  13
BRANCH   1  20
HETATM   20  N           1     -23.892  -3.492  -8.565  0.00  0.00    -0.066 N 
HETATM   21  H           1     -24.634  -3.768  -7.883  0.00  0.00     0.275 HD
HETATM   22  H           1     -23.540  -2.537  -8.327  0.00  0.00     0.275 HD
HETATM   23  H           1     -24.291  -3.487  -9.530  0.00  0.00     0.275 HD
ENDBRANCH   1  20
TORSDOF 9
ENDMDL
