MODEL 1
REMARK VINA RESULT:      -5.6      0.000      0.000
REMARK  8 active torsions:
REMARK  status: ('A' for Active; 'I' for Inactive)
REMARK    1  A    between atoms: C_1  and  C_14 
REMARK    2  A    between atoms: C_1  and  C_12 
REMARK    3  A    between atoms: C_1  and  N_5 
REMARK       I    between atoms: N_5  and  C_15 
REMARK    4  A    between atoms: N_6  and  C_19 
REMARK    5  A    between atoms: C_14  and  C_18 
REMARK    6  A    between atoms: C_15  and  C_19 
REMARK    7  A    between atoms: C_19  and  C_20 
REMARK    8  A    between atoms: C_20  and  O_21 
ROOT
HETATM    1  O           1     -20.913  -3.593  -7.310  0.00  0.00    -0.271 OA
HETATM    2  N           1     -22.777  -4.691  -7.862  0.00  0.00    -0.345 N 
HETATM    3  C           1     -21.719  -4.448  -7.029  0.00  0.00     0.251 C 
HETATM    4  H           1     -23.451  -5.408  -7.627  0.00  0.00     0.163 HD
ENDROOT
BRANCH   3   5
HETATM    5  C           1     -21.557  -5.250  -5.761  0.00  0.00     0.302 C 
BRANCH   5   6
HETATM    6  N           1     -22.864  -5.897  -5.410  0.00  0.00    -0.064 N 
HETATM    7  H           1     -22.772  -6.935  -5.491  0.00  0.00     0.275 HD
HETATM    8  H           1     -23.123  -5.648  -4.428  0.00  0.00     0.275 HD
HETATM    9  H           1     -23.606  -5.562  -6.064  0.00  0.00     0.275 HD
ENDBRANCH   5   6
BRANCH   5  10
HETATM   10  C           1     -20.499  -6.325  -5.971  0.00  0.00     0.153 C 
HETATM   11  C           1     -21.063  -7.678  -5.557  0.00  0.00     0.042 C 
BRANCH  10  12
HETATM   12  O           1     -20.135  -6.366  -7.324  0.00  0.00    -0.393 OA
HETATM   13  H           1     -19.837  -5.503  -7.554  0.00  0.00     0.210 HD
ENDBRANCH  10  12
ENDBRANCH   5  10
ENDBRANCH   3   5
BRANCH   2  14
HETATM   14  C           1     -22.933  -3.921  -9.080  0.00  0.00     0.185 C 
BRANCH  14  15
HETATM   15  C           1     -22.208  -4.625 -10.221  0.00  0.00     0.040 C 
BRANCH  15  16
HETATM   16  C           1     -20.979  -3.819 -10.618  0.00  0.00    -0.020 C 
HETATM   17  C           1     -21.143  -3.315 -12.046  0.00  0.00     0.009 C 
HETATM   18  C           1     -19.743  -4.704 -10.530  0.00  0.00     0.009 C 
ENDBRANCH  15  16
ENDBRANCH  14  15
BRANCH  14  19
HETATM   19  C           1     -24.400  -3.801  -9.415  0.00  0.00     0.196 C 
HETATM   20  O           1     -25.046  -4.811  -9.766  0.00  0.00    -0.646 OA
HETATM   21  O           1     -24.968  -2.690  -9.341  0.00  0.00    -0.646 OA
ENDBRANCH  14  19
ENDBRANCH   2  14
TORSDOF 8
ENDMDL
MODEL 2
REMARK VINA RESULT:      -5.4      2.682      6.520
REMARK  8 active torsions:
REMARK  status: ('A' for Active; 'I' for Inactive)
REMARK    1  A    between atoms: C_1  and  C_14 
REMARK    2  A    between atoms: C_1  and  C_12 
REMARK    3  A    between atoms: C_1  and  N_5 
REMARK       I    between atoms: N_5  and  C_15 
REMARK    4  A    between atoms: N_6  and  C_19 
REMARK    5  A    between atoms: C_14  and  C_18 
REMARK    6  A    between atoms: C_15  and  C_19 
REMARK    7  A    between atoms: C_19  and  C_20 
REMARK    8  A    between atoms: C_20  and  O_21 
ROOT
HETATM    1  O           1     -20.462  -4.833  -5.646  0.00  0.00    -0.271 OA
HETATM    2  N           1     -20.967  -6.942  -6.179  0.00  0.00    -0.345 N 
HETATM    3  C           1     -20.931  -5.601  -6.452  0.00  0.00     0.251 C 
HETATM    4  H           1     -21.360  -7.585  -6.853  0.00  0.00     0.163 HD
ENDROOT
BRANCH   3   5
HETATM    5  C           1     -21.478  -5.083  -7.760  0.00  0.00     0.302 C 
BRANCH   5   6
HETATM    6  N           1     -22.246  -3.819  -7.513  0.00  0.00    -0.064 N 
HETATM    7  H           1     -23.135  -3.838  -8.064  0.00  0.00     0.275 HD
HETATM    8  H           1     -22.470  -3.741  -6.496  0.00  0.00     0.275 HD
HETATM    9  H           1     -21.672  -2.998  -7.809  0.00  0.00     0.275 HD
ENDBRANCH   5   6
BRANCH   5  10
HETATM   10  C           1     -20.325  -4.798  -8.714  0.00  0.00     0.153 C 
HETATM   11  C           1     -20.868  -4.164  -9.988  0.00  0.00     0.042 C 
BRANCH  10  12
HETATM   12  O           1     -19.419  -3.920  -8.105  0.00  0.00    -0.393 OA
HETATM   13  H           1     -19.849  -3.084  -8.038  0.00  0.00     0.210 HD
ENDBRANCH  10  12
ENDBRANCH   5  10
ENDBRANCH   3   5
BRANCH   2  14
HETATM   14  C           1     -20.442  -7.440  -4.923  0.00  0.00     0.185 C 
BRANCH  14  15
HETATM   15  C           1     -21.571  -7.542  -3.905  0.00  0.00     0.040 C 
BRANCH  15  16
HETATM   16  C           1     -21.099  -6.996  -2.564  0.00  0.00    -0.020 C 
HETATM   17  C           1     -20.737  -8.155  -1.645  0.00  0.00     0.009 C 
HETATM   18  C           1     -22.214  -6.175  -1.931  0.00  0.00     0.009 C 
ENDBRANCH  15  16
ENDBRANCH  14  15
BRANCH  14  19
HETATM   19  C           1     -19.835  -8.805  -5.138  0.00  0.00     0.196 C 
HETATM   20  O           1     -20.487  -9.694  -5.726  0.00  0.00    -0.646 OA
HETATM   21  O           1     -18.679  -9.047  -4.728  0.00  0.00    -0.646 OA
ENDBRANCH  14  19
ENDBRANCH   2  14
TORSDOF 8
ENDMDL
MODEL 3
REMARK VINA RESULT:      -5.1      2.718      6.184
REMARK  8 active torsions:
REMARK  status: ('A' for Active; 'I' for Inactive)
REMARK    1  A    between atoms: C_1  and  C_14 
REMARK    2  A    between atoms: C_1  and  C_12 
REMARK    3  A    between atoms: C_1  and  N_5 
REMARK       I    between atoms: N_5  and  C_15 
REMARK    4  A    between atoms: N_6  and  C_19 
REMARK    5  A    between atoms: C_14  and  C_18 
REMARK    6  A    between atoms: C_15  and  C_19 
REMARK    7  A    between atoms: C_19  and  C_20 
REMARK    8  A    between atoms: C_20  and  O_21 
ROOT
HETATM    1  O           1     -20.585  -6.315  -7.143  0.00  0.00    -0.271 OA
HETATM    2  N           1     -20.873  -5.142  -5.265  0.00  0.00    -0.345 N 
HETATM    3  C           1     -20.668  -5.232  -6.616  0.00  0.00     0.251 C 
HETATM    4  H           1     -20.942  -4.234  -4.824  0.00  0.00     0.163 HD
ENDROOT
BRANCH   3   5
HETATM    5  C           1     -20.545  -3.977  -7.445  0.00  0.00     0.302 C 
BRANCH   5   6
HETATM    6  N           1     -19.607  -4.225  -8.589  0.00  0.00    -0.064 N 
HETATM    7  H           1     -20.152  -4.301  -9.477  0.00  0.00     0.275 HD
HETATM    8  H           1     -18.931  -3.431  -8.663  0.00  0.00     0.275 HD
HETATM    9  H           1     -19.084  -5.115  -8.425  0.00  0.00     0.275 HD
ENDBRANCH   5   6
BRANCH   5  10
HETATM   10  C           1     -21.915  -3.592  -7.989  0.00  0.00     0.153 C 
HETATM   11  C           1     -22.016  -4.012  -9.450  0.00  0.00     0.042 C 
BRANCH  10  12
HETATM   12  O           1     -22.913  -4.239  -7.247  0.00  0.00    -0.393 OA
HETATM   13  H           1     -23.612  -4.442  -7.845  0.00  0.00     0.210 HD
ENDBRANCH  10  12
ENDBRANCH   5  10
ENDBRANCH   3   5
BRANCH   2  14
HETATM   14  C           1     -20.991  -6.346  -4.468  0.00  0.00     0.185 C 
BRANCH  14  15
HETATM   15  C           1     -21.085  -5.973  -2.994  0.00  0.00     0.040 C 
BRANCH  15  16
HETATM   16  C           1     -21.531  -7.186  -2.189  0.00  0.00    -0.020 C 
HETATM   17  C           1     -22.320  -6.723  -0.971  0.00  0.00     0.009 C 
HETATM   18  C           1     -20.307  -7.969  -1.733  0.00  0.00     0.009 C 
ENDBRANCH  15  16
ENDBRANCH  14  15
BRANCH  14  19
HETATM   19  C           1     -22.234  -7.099  -4.876  0.00  0.00     0.196 C 
HETATM   20  O           1     -22.185  -8.334  -5.061  0.00  0.00    -0.646 OA
HETATM   21  O           1     -23.313  -6.487  -5.030  0.00  0.00    -0.646 OA
ENDBRANCH  14  19
ENDBRANCH   2  14
TORSDOF 8
ENDMDL
MODEL 4
REMARK VINA RESULT:      -5.0     17.505     19.395
REMARK  8 active torsions:
REMARK  status: ('A' for Active; 'I' for Inactive)
REMARK    1  A    between atoms: C_1  and  C_14 
REMARK    2  A    between atoms: C_1  and  C_12 
REMARK    3  A    between atoms: C_1  and  N_5 
REMARK       I    between atoms: N_5  and  C_15 
REMARK    4  A    between atoms: N_6  and  C_19 
REMARK    5  A    between atoms: C_14  and  C_18 
REMARK    6  A    between atoms: C_15  and  C_19 
REMARK    7  A    between atoms: C_19  and  C_20 
REMARK    8  A    between atoms: C_20  and  O_21 
ROOT
HETATM    1  O           1     -12.505   7.585 -21.992  0.00  0.00    -0.271 OA
HETATM    2  N           1     -12.756   6.512 -20.050  0.00  0.00    -0.345 N 
HETATM    3  C           1     -12.385   7.602 -20.790  0.00  0.00     0.251 C 
HETATM    4  H           1     -12.655   6.526 -19.044  0.00  0.00     0.163 HD
ENDROOT
BRANCH   3   5
HETATM    5  C           1     -11.826   8.824 -20.105  0.00  0.00     0.302 C 
BRANCH   5   6
HETATM    6  N           1     -12.695   9.183 -18.936  0.00  0.00    -0.064 N 
HETATM    7  H           1     -12.694   8.397 -18.246  0.00  0.00     0.275 HD
HETATM    8  H           1     -12.324  10.046 -18.479  0.00  0.00     0.275 HD
HETATM    9  H           1     -13.671   9.354 -19.266  0.00  0.00     0.275 HD
ENDBRANCH   5   6
BRANCH   5  10
HETATM   10  C           1     -10.414   8.529 -19.614  0.00  0.00     0.153 C 
HETATM   11  C           1      -9.412   9.307 -20.457  0.00  0.00     0.042 C 
BRANCH  10  12
HETATM   12  O           1     -10.294   8.914 -18.272  0.00  0.00    -0.393 OA
HETATM   13  H           1     -10.086   9.833 -18.267  0.00  0.00     0.210 HD
ENDBRANCH  10  12
ENDBRANCH   5  10
ENDBRANCH   3   5
BRANCH   2  14
HETATM   14  C           1     -13.293   5.337 -20.708  0.00  0.00     0.185 C 
BRANCH  14  15
HETATM   15  C           1     -12.673   4.086 -20.100  0.00  0.00     0.040 C 
BRANCH  15  16
HETATM   16  C           1     -12.193   3.164 -21.212  0.00  0.00    -0.020 C 
HETATM   17  C           1     -11.005   2.348 -20.717  0.00  0.00     0.009 C 
HETATM   18  C           1     -11.770   3.997 -22.415  0.00  0.00     0.009 C 
ENDBRANCH  15  16
ENDBRANCH  14  15
BRANCH  14  19
HETATM   19  C           1     -14.791   5.298 -20.522  0.00  0.00     0.196 C 
HETATM   20  O           1     -15.546   5.304 -21.518  0.00  0.00    -0.646 OA
HETATM   21  O           1     -15.276   5.260 -19.370  0.00  0.00    -0.646 OA
ENDBRANCH  14  19
ENDBRANCH   2  14
TORSDOF 8
ENDMDL
MODEL 5
REMARK VINA RESULT:      -4.9     18.706     20.145
REMARK  8 active torsions:
REMARK  status: ('A' for Active; 'I' for Inactive)
REMARK    1  A    between atoms: C_1  and  C_14 
REMARK    2  A    between atoms: C_1  and  C_12 
REMARK    3  A    between atoms: C_1  and  N_5 
REMARK       I    between atoms: N_5  and  C_15 
REMARK    4  A    between atoms: N_6  and  C_19 
REMARK    5  A    between atoms: C_14  and  C_18 
REMARK    6  A    between atoms: C_15  and  C_19 
REMARK    7  A    between atoms: C_19  and  C_20 
REMARK    8  A    between atoms: C_20  and  O_21 
ROOT
HETATM    1  O           1     -11.099   3.601 -22.024  0.00  0.00    -0.271 OA
HETATM    2  N           1     -11.307   5.756 -21.480  0.00  0.00    -0.345 N 
HETATM    3  C           1     -11.743   4.620 -22.106  0.00  0.00     0.251 C 
HETATM    4  H           1     -11.846   6.610 -21.549  0.00  0.00     0.163 HD
ENDROOT
BRANCH   3   5
HETATM    5  C           1     -13.027   4.640 -22.898  0.00  0.00     0.302 C 
BRANCH   5   6
HETATM    6  N           1     -13.635   3.269 -22.898  0.00  0.00    -0.064 N 
HETATM    7  H           1     -13.633   2.887 -21.925  0.00  0.00     0.275 HD
HETATM    8  H           1     -14.618   3.325 -23.247  0.00  0.00     0.275 HD
HETATM    9  H           1     -13.079   2.640 -23.520  0.00  0.00     0.275 HD
ENDBRANCH   5   6
BRANCH   5  10
HETATM   10  C           1     -13.999   5.626 -22.264  0.00  0.00     0.153 C 
HETATM   11  C           1     -15.392   5.403 -22.837  0.00  0.00     0.042 C 
BRANCH  10  12
HETATM   12  O           1     -14.028   5.429 -20.876  0.00  0.00    -0.393 OA
HETATM   13  H           1     -13.592   4.611 -20.706  0.00  0.00     0.210 HD
ENDBRANCH  10  12
ENDBRANCH   5  10
ENDBRANCH   3   5
BRANCH   2  14
HETATM   14  C           1     -10.073   5.738 -20.719  0.00  0.00     0.185 C 
BRANCH  14  15
HETATM   15  C           1      -9.370   7.082 -20.858  0.00  0.00     0.040 C 
BRANCH  15  16
HETATM   16  C           1     -10.404   8.200 -20.858  0.00  0.00    -0.020 C 
HETATM   17  C           1     -10.185   9.094 -22.071  0.00  0.00     0.009 C 
HETATM   18  C           1     -10.259   9.024 -19.586  0.00  0.00     0.009 C 
ENDBRANCH  15  16
ENDBRANCH  14  15
BRANCH  14  19
HETATM   19  C           1     -10.385   5.482 -19.264  0.00  0.00     0.196 C 
HETATM   20  O           1     -11.570   5.350 -18.892  0.00  0.00    -0.646 OA
HETATM   21  O           1      -9.456   5.403 -18.431  0.00  0.00    -0.646 OA
ENDBRANCH  14  19
ENDBRANCH   2  14
TORSDOF 8
ENDMDL
MODEL 6
REMARK VINA RESULT:      -4.9      6.108      8.063
REMARK  8 active torsions:
REMARK  status: ('A' for Active; 'I' for Inactive)
REMARK    1  A    between atoms: C_1  and  C_14 
REMARK    2  A    between atoms: C_1  and  C_12 
REMARK    3  A    between atoms: C_1  and  N_5 
REMARK       I    between atoms: N_5  and  C_15 
REMARK    4  A    between atoms: N_6  and  C_19 
REMARK    5  A    between atoms: C_14  and  C_18 
REMARK    6  A    between atoms: C_15  and  C_19 
REMARK    7  A    between atoms: C_19  and  C_20 
REMARK    8  A    between atoms: C_20  and  O_21 
ROOT
HETATM    1  O           1     -21.970 -10.119  -3.986  0.00  0.00    -0.271 OA
HETATM    2  N           1     -20.541  -8.555  -3.280  0.00  0.00    -0.345 N 
HETATM    3  C           1     -20.854  -9.658  -4.027  0.00  0.00     0.251 C 
HETATM    4  H           1     -19.606  -8.169  -3.314  0.00  0.00     0.163 HD
ENDROOT
BRANCH   3   5
HETATM    5  C           1     -19.804 -10.298  -4.902  0.00  0.00     0.302 C 
BRANCH   5   6
HETATM    6  N           1     -20.443 -10.796  -6.165  0.00  0.00    -0.064 N 
HETATM    7  H           1     -19.766 -10.709  -6.956  0.00  0.00     0.275 HD
HETATM    8  H           1     -20.711 -11.800  -6.046  0.00  0.00     0.275 HD
HETATM    9  H           1     -21.295 -10.229  -6.372  0.00  0.00     0.275 HD
ENDBRANCH   5   6
BRANCH   5  10
HETATM   10  C           1     -18.735  -9.270  -5.248  0.00  0.00     0.153 C 
HETATM   11  C           1     -17.663  -9.924  -6.110  0.00  0.00     0.042 C 
BRANCH  10  12
HETATM   12  O           1     -19.317  -8.207  -5.952  0.00  0.00    -0.393 OA
HETATM   13  H           1     -18.631  -7.585  -6.126  0.00  0.00     0.210 HD
ENDBRANCH  10  12
ENDBRANCH   5  10
ENDBRANCH   3   5
BRANCH   2  14
HETATM   14  C           1     -21.548  -7.940  -2.438  0.00  0.00     0.185 C 
BRANCH  14  15
HETATM   15  C           1     -21.106  -8.009  -0.982  0.00  0.00     0.040 C 
BRANCH  15  16
HETATM   16  C           1     -22.038  -8.933  -0.211  0.00  0.00    -0.020 C 
HETATM   17  C           1     -23.056  -8.101   0.557  0.00  0.00     0.009 C 
HETATM   18  C           1     -21.225  -9.771   0.768  0.00  0.00     0.009 C 
ENDBRANCH  15  16
ENDBRANCH  14  15
BRANCH  14  19
HETATM   19  C           1     -21.726  -6.496  -2.842  0.00  0.00     0.196 C 
HETATM   20  O           1     -21.368  -6.115  -3.977  0.00  0.00    -0.646 OA
HETATM   21  O           1     -22.229  -5.680  -2.039  0.00  0.00    -0.646 OA
ENDBRANCH  14  19
ENDBRANCH   2  14
TORSDOF 8
ENDMDL
MODEL 7
REMARK VINA RESULT:      -4.9      5.336      8.942
REMARK  8 active torsions:
REMARK  status: ('A' for Active; 'I' for Inactive)
REMARK    1  A    between atoms: C_1  and  C_14 
REMARK    2  A    between atoms: C_1  and  C_12 
REMARK    3  A    between atoms: C_1  and  N_5 
REMARK       I    between atoms: N_5  and  C_15 
REMARK    4  A    between atoms: N_6  and  C_19 
REMARK    5  A    between atoms: C_14  and  C_18 
REMARK    6  A    between atoms: C_15  and  C_19 
REMARK    7  A    between atoms: C_19  and  C_20 
REMARK    8  A    between atoms: C_20  and  O_21 
ROOT
HETATM    1  O           1     -22.111  -9.439  -3.343  0.00  0.00    -0.271 OA
HETATM    2  N           1     -20.978  -8.293  -1.797  0.00  0.00    -0.345 N 
HETATM    3  C           1     -21.217  -8.667  -3.092  0.00  0.00     0.251 C 
HETATM    4  H           1     -20.229  -7.647  -1.587  0.00  0.00     0.163 HD
ENDROOT
BRANCH   3   5
HETATM    5  C           1     -20.362  -8.114  -4.206  0.00  0.00     0.302 C 
BRANCH   5   6
HETATM    6  N           1     -20.463  -9.010  -5.404  0.00  0.00    -0.064 N 
HETATM    7  H           1     -20.496 -10.007  -5.092  0.00  0.00     0.275 HD
HETATM    8  H           1     -21.335  -8.784  -5.934  0.00  0.00     0.275 HD
HETATM    9  H           1     -19.632  -8.865  -6.020  0.00  0.00     0.275 HD
ENDBRANCH   5   6
BRANCH   5  10
HETATM   10  C           1     -20.849  -6.718  -4.574  0.00  0.00     0.153 C 
HETATM   11  C           1     -21.229  -6.688  -6.049  0.00  0.00     0.042 C 
BRANCH  10  12
HETATM   12  O           1     -21.967  -6.391  -3.796  0.00  0.00    -0.393 OA
HETATM   13  H           1     -22.016  -5.451  -3.767  0.00  0.00     0.210 HD
ENDBRANCH  10  12
ENDBRANCH   5  10
ENDBRANCH   3   5
BRANCH   2  14
HETATM   14  C           1     -21.799  -8.824  -0.726  0.00  0.00     0.185 C 
BRANCH  14  15
HETATM   15  C           1     -20.905  -9.296   0.413  0.00  0.00     0.040 C 
BRANCH  15  16
HETATM   16  C           1     -21.025 -10.806   0.563  0.00  0.00    -0.020 C 
HETATM   17  C           1     -19.905 -11.484  -0.215  0.00  0.00     0.009 C 
HETATM   18  C           1     -22.372 -11.264   0.018  0.00  0.00     0.009 C 
ENDBRANCH  15  16
ENDBRANCH  14  15
BRANCH  14  19
HETATM   19  C           1     -22.727  -7.745  -0.223  0.00  0.00     0.196 C 
HETATM   20  O           1     -23.456  -7.960   0.769  0.00  0.00    -0.646 OA
HETATM   21  O           1     -22.767  -6.637  -0.800  0.00  0.00    -0.646 OA
ENDBRANCH  14  19
ENDBRANCH   2  14
TORSDOF 8
ENDMDL
MODEL 8
REMARK VINA RESULT:      -4.8      2.755      4.081
REMARK  8 active torsions:
REMARK  status: ('A' for Active; 'I' for Inactive)
REMARK    1  A    between atoms: C_1  and  C_14 
REMARK    2  A    between atoms: C_1  and  C_12 
REMARK    3  A    between atoms: C_1  and  N_5 
REMARK       I    between atoms: N_5  and  C_15 
REMARK    4  A    between atoms: N_6  and  C_19 
REMARK    5  A    between atoms: C_14  and  C_18 
REMARK    6  A    between atoms: C_15  and  C_19 
REMARK    7  A    between atoms: C_19  and  C_20 
REMARK    8  A    between atoms: C_20  and  O_21 
ROOT
HETATM    1  O           1     -20.214  -7.722  -5.912  0.00  0.00    -0.271 OA
HETATM    2  N           1     -21.782  -6.133  -5.925  0.00  0.00    -0.345 N 
HETATM    3  C           1     -21.237  -7.291  -5.438  0.00  0.00     0.251 C 
HETATM    4  H           1     -22.640  -5.772  -5.528  0.00  0.00     0.163 HD
ENDROOT
BRANCH   3   5
HETATM    5  C           1     -21.916  -8.027  -4.309  0.00  0.00     0.302 C 
BRANCH   5   6
HETATM    6  N           1     -21.471  -9.460  -4.310  0.00  0.00    -0.064 N 
HETATM    7  H           1     -20.564  -9.544  -3.797  0.00  0.00     0.275 HD
HETATM    8  H           1     -22.194 -10.048  -3.835  0.00  0.00     0.275 HD
HETATM    9  H           1     -21.346  -9.786  -5.294  0.00  0.00     0.275 HD
ENDBRANCH   5   6
BRANCH   5  10
HETATM   10  C           1     -21.539  -7.381  -2.982  0.00  0.00     0.153 C 
HETATM   11  C           1     -20.424  -8.184  -2.326  0.00  0.00     0.042 C 
BRANCH  10  12
HETATM   12  O           1     -21.100  -6.069  -3.208  0.00  0.00    -0.393 OA
HETATM   13  H           1     -20.159  -6.096  -3.240  0.00  0.00     0.210 HD
ENDBRANCH  10  12
ENDBRANCH   5  10
ENDBRANCH   3   5
BRANCH   2  14
HETATM   14  C           1     -21.131  -5.426  -7.009  0.00  0.00     0.185 C 
BRANCH  14  15
HETATM   15  C           1     -22.084  -4.383  -7.580  0.00  0.00     0.040 C 
BRANCH  15  16
HETATM   16  C           1     -22.345  -4.681  -9.050  0.00  0.00    -0.020 C 
HETATM   17  C           1     -21.235  -4.070  -9.895  0.00  0.00     0.009 C 
HETATM   18  C           1     -23.683  -4.082  -9.460  0.00  0.00     0.009 C 
ENDBRANCH  15  16
ENDBRANCH  14  15
BRANCH  14  19
HETATM   19  C           1     -19.891  -4.741  -6.489  0.00  0.00     0.196 C 
HETATM   20  O           1     -18.911  -4.562  -7.244  0.00  0.00    -0.646 OA
HETATM   21  O           1     -19.842  -4.354  -5.301  0.00  0.00    -0.646 OA
ENDBRANCH  14  19
ENDBRANCH   2  14
TORSDOF 8
ENDMDL
MODEL 9
REMARK VINA RESULT:      -4.8      6.901      9.436
REMARK  8 active torsions:
REMARK  status: ('A' for Active; 'I' for Inactive)
REMARK    1  A    between atoms: C_1  and  C_14 
REMARK    2  A    between atoms: C_1  and  C_12 
REMARK    3  A    between atoms: C_1  and  N_5 
REMARK       I    between atoms: N_5  and  C_15 
REMARK    4  A    between atoms: N_6  and  C_19 
REMARK    5  A    between atoms: C_14  and  C_18 
REMARK    6  A    between atoms: C_15  and  C_19 
REMARK    7  A    between atoms: C_19  and  C_20 
REMARK    8  A    between atoms: C_20  and  O_21 
ROOT
HETATM    1  O           1     -20.841 -10.451   0.999  0.00  0.00    -0.271 OA
HETATM    2  N           1     -21.554  -9.769  -1.003  0.00  0.00    -0.345 N 
HETATM    3  C           1     -21.334 -10.740  -0.064  0.00  0.00     0.251 C 
HETATM    4  H           1     -21.967 -10.011  -1.894  0.00  0.00     0.163 HD
ENDROOT
BRANCH   3   5
HETATM    5  C           1     -21.709 -12.172  -0.358  0.00  0.00     0.302 C 
BRANCH   5   6
HETATM    6  N           1     -20.857 -13.090   0.467  0.00  0.00    -0.064 N 
HETATM    7  H           1     -19.924 -13.206   0.010  0.00  0.00     0.275 HD
HETATM    8  H           1     -20.728 -12.681   1.420  0.00  0.00     0.275 HD
HETATM    9  H           1     -21.323 -14.022   0.547  0.00  0.00     0.275 HD
ENDBRANCH   5   6
BRANCH   5  10
HETATM   10  C           1     -23.176 -12.395  -0.013  0.00  0.00     0.153 C 
HETATM   11  C           1     -23.275 -13.217   1.266  0.00  0.00     0.042 C 
BRANCH  10  12
HETATM   12  O           1     -23.805 -11.157   0.177  0.00  0.00    -0.393 OA
HETATM   13  H           1     -24.729 -11.328   0.256  0.00  0.00     0.210 HD
ENDBRANCH  10  12
ENDBRANCH   5  10
ENDBRANCH   3   5
BRANCH   2  14
HETATM   14  C           1     -21.194  -8.393  -0.721  0.00  0.00     0.185 C 
BRANCH  14  15
HETATM   15  C           1     -20.480  -7.798  -1.928  0.00  0.00     0.040 C 
BRANCH  15  16
HETATM   16  C           1     -20.679  -8.703  -3.136  0.00  0.00    -0.020 C 
HETATM   17  C           1     -19.324  -9.060  -3.731  0.00  0.00     0.009 C 
HETATM   18  C           1     -21.518  -7.978  -4.180  0.00  0.00     0.009 C 
ENDBRANCH  15  16
ENDBRANCH  14  15
BRANCH  14  19
HETATM   19  C           1     -22.444  -7.597  -0.434  0.00  0.00     0.196 C 
HETATM   20  O           1     -22.651  -6.520  -1.033  0.00  0.00    -0.646 OA
HETATM   21  O           1     -23.272  -8.014   0.405  0.00  0.00    -0.646 OA
ENDBRANCH  14  19
ENDBRANCH   2  14
TORSDOF 8
ENDMDL
