MODEL 1
REMARK VINA RESULT:      -7.6      0.000      0.000
REMARK  9 active torsions:
REMARK  status: ('A' for Active; 'I' for Inactive)
REMARK    1  A    between atoms: N_2  and  C_19 
REMARK       I    between atoms: N_2  and  C_3 
REMARK    2  A    between atoms: C_3  and  C_24 
REMARK    3  A    between atoms: C_8  and  C_10 
REMARK    4  A    between atoms: C_10  and  C_11 
REMARK    5  A    between atoms: C_11  and  C_19 
REMARK    6  A    between atoms: N_14  and  C_24 
REMARK    7  A    between atoms: C_16  and  C_23 
REMARK    8  A    between atoms: C_19  and  C_20 
REMARK    9  A    between atoms: C_23  and  C_24 
ROOT
HETATM    1  N           1     -27.555  -6.637 -18.885  0.00  0.00    -0.345 N 
HETATM    2  C           1     -26.298  -6.417 -18.387  0.00  0.00     0.249 C 
HETATM    3  O           1     -26.159  -5.938 -17.287  0.00  0.00    -0.271 OA
HETATM    4  H           1     -27.671  -7.039 -19.806  0.00  0.00     0.163 HD
ENDROOT
BRANCH   2   5
HETATM    5  C           1     -25.087  -6.774 -19.213  0.00  0.00     0.280 C 
BRANCH   5   6
HETATM    6  N           1     -24.133  -7.578 -18.380  0.00  0.00    -0.066 N 
HETATM    7  H           1     -23.349  -6.967 -18.061  0.00  0.00     0.275 HD
HETATM    8  H           1     -24.637  -7.961 -17.548  0.00  0.00     0.275 HD
HETATM    9  H           1     -23.751  -8.366 -18.950  0.00  0.00     0.275 HD
ENDBRANCH   5   6
BRANCH   5  10
HETATM   10  C           1     -25.520  -7.594 -20.421  0.00  0.00     0.101 C 
BRANCH  10  11
HETATM   11  C           1     -24.317  -7.952 -21.239  0.00  0.00     0.028 A 
HETATM   12  C           1     -24.140  -7.610 -22.558  0.00  0.00     0.114 A 
HETATM   13  N           1     -22.923  -8.132 -22.899  0.00  0.00    -0.360 N 
HETATM   14  C           1     -22.419  -8.756 -21.793  0.00  0.00     0.180 A 
HETATM   15  H           1     -22.459  -8.064 -23.838  0.00  0.00     0.166 HD
HETATM   16  N           1     -23.241  -8.663 -20.773  0.00  0.00    -0.355 N 
ATOM     17  HN          1     -23.108  -9.040 -19.835  1.00  0.00     0.166 HD
ENDBRANCH  10  11
ENDBRANCH   5  10
ENDBRANCH   2   5
BRANCH   1  18
HETATM   18  C           1     -28.719  -6.295 -18.091  0.00  0.00     0.186 C 
BRANCH  18  19
HETATM   19  C           1     -29.315  -4.989 -18.599  0.00  0.00     0.046 C 
BRANCH  19  20
HETATM   20  C           1     -29.556  -4.048 -17.426  0.00  0.00     0.116 C 
BRANCH  20  21
HETATM   21  C           1     -31.036  -3.806 -17.269  0.00  0.00     0.172 C 
HETATM   22  O           1     -31.677  -4.407 -16.380  0.00  0.00    -0.648 OA
HETATM   23  O           1     -31.623  -3.004 -18.029  0.00  0.00    -0.648 OA
ENDBRANCH  20  21
ENDBRANCH  19  20
ENDBRANCH  18  19
BRANCH  18  24
HETATM   24  C           1     -29.747  -7.394 -18.205  0.00  0.00     0.196 C 
HETATM   25  O           1     -29.567  -8.337 -19.007  0.00  0.00    -0.646 OA
HETATM   26  O           1     -30.777  -7.363 -17.498  0.00  0.00    -0.646 OA
ENDBRANCH  18  24
ENDBRANCH   1  18
TORSDOF 9
ENDMDL
MODEL 2
REMARK VINA RESULT:      -7.5     10.336     11.932
REMARK  9 active torsions:
REMARK  status: ('A' for Active; 'I' for Inactive)
REMARK    1  A    between atoms: N_2  and  C_19 
REMARK       I    between atoms: N_2  and  C_3 
REMARK    2  A    between atoms: C_3  and  C_24 
REMARK    3  A    between atoms: C_8  and  C_10 
REMARK    4  A    between atoms: C_10  and  C_11 
REMARK    5  A    between atoms: C_11  and  C_19 
REMARK    6  A    between atoms: N_14  and  C_24 
REMARK    7  A    between atoms: C_16  and  C_23 
REMARK    8  A    between atoms: C_19  and  C_20 
REMARK    9  A    between atoms: C_23  and  C_24 
ROOT
HETATM    1  N           1     -35.328  -1.802 -12.734  0.00  0.00    -0.345 N 
HETATM    2  C           1     -34.398  -2.573 -12.090  0.00  0.00     0.249 C 
HETATM    3  O           1     -33.714  -2.093 -11.217  0.00  0.00    -0.271 OA
HETATM    4  H           1     -35.901  -2.204 -13.465  0.00  0.00     0.163 HD
ENDROOT
BRANCH   2   5
HETATM    5  C           1     -34.228  -4.024 -12.469  0.00  0.00     0.280 C 
BRANCH   5   6
HETATM    6  N           1     -33.774  -4.116 -13.896  0.00  0.00    -0.066 N 
HETATM    7  H           1     -32.743  -3.953 -13.945  0.00  0.00     0.275 HD
HETATM    8  H           1     -33.994  -5.067 -14.270  0.00  0.00     0.275 HD
HETATM    9  H           1     -34.268  -3.394 -14.467  0.00  0.00     0.275 HD
ENDBRANCH   5   6
BRANCH   5  10
HETATM   10  C           1     -33.186  -4.667 -11.564  0.00  0.00     0.101 C 
BRANCH  10  11
HETATM   11  C           1     -33.786  -5.856 -10.879  0.00  0.00     0.028 A 
HETATM   12  C           1     -34.951  -5.832 -10.150  0.00  0.00     0.114 A 
HETATM   13  N           1     -35.121  -7.116  -9.712  0.00  0.00    -0.360 N 
HETATM   14  C           1     -34.074  -7.854 -10.185  0.00  0.00     0.180 A 
HETATM   15  H           1     -35.913  -7.471  -9.121  0.00  0.00     0.166 HD
HETATM   16  N           1     -33.249  -7.118 -10.895  0.00  0.00    -0.355 N 
ATOM     17  HN          1     -32.393  -7.421 -11.359  1.00  0.00     0.166 HD
ENDBRANCH  10  11
ENDBRANCH   5  10
ENDBRANCH   2   5
BRANCH   1  18
HETATM   18  C           1     -35.492  -0.408 -12.369  0.00  0.00     0.186 C 
BRANCH  18  19
HETATM   19  C           1     -35.994   0.378 -13.573  0.00  0.00     0.046 C 
BRANCH  19  20
HETATM   20  C           1     -34.988   0.262 -14.711  0.00  0.00     0.116 C 
BRANCH  20  21
HETATM   21  C           1     -35.530  -0.666 -15.770  0.00  0.00     0.172 C 
HETATM   22  O           1     -35.186  -1.868 -15.783  0.00  0.00    -0.648 OA
HETATM   23  O           1     -36.323  -0.234 -16.634  0.00  0.00    -0.648 OA
ENDBRANCH  20  21
ENDBRANCH  19  20
ENDBRANCH  18  19
BRANCH  18  24
HETATM   24  C           1     -36.493  -0.298 -11.245  0.00  0.00     0.196 C 
HETATM   25  O           1     -36.329   0.552 -10.343  0.00  0.00    -0.646 OA
HETATM   26  O           1     -37.487  -1.056 -11.216  0.00  0.00    -0.646 OA
ENDBRANCH  18  24
ENDBRANCH   1  18
TORSDOF 9
ENDMDL
MODEL 3
REMARK VINA RESULT:      -7.2      1.845      3.194
REMARK  9 active torsions:
REMARK  status: ('A' for Active; 'I' for Inactive)
REMARK    1  A    between atoms: N_2  and  C_19 
REMARK       I    between atoms: N_2  and  C_3 
REMARK    2  A    between atoms: C_3  and  C_24 
REMARK    3  A    between atoms: C_8  and  C_10 
REMARK    4  A    between atoms: C_10  and  C_11 
REMARK    5  A    between atoms: C_11  and  C_19 
REMARK    6  A    between atoms: N_14  and  C_24 
REMARK    7  A    between atoms: C_16  and  C_23 
REMARK    8  A    between atoms: C_19  and  C_20 
REMARK    9  A    between atoms: C_23  and  C_24 
ROOT
HETATM    1  N           1     -27.166  -6.562 -18.665  0.00  0.00    -0.345 N 
HETATM    2  C           1     -26.779  -6.501 -19.977  0.00  0.00     0.249 C 
HETATM    3  O           1     -27.090  -5.551 -20.655  0.00  0.00    -0.271 OA
HETATM    4  H           1     -26.906  -7.357 -18.097  0.00  0.00     0.163 HD
ENDROOT
BRANCH   2   5
HETATM    5  C           1     -25.964  -7.621 -20.575  0.00  0.00     0.280 C 
BRANCH   5   6
HETATM    6  N           1     -26.882  -8.619 -21.216  0.00  0.00    -0.066 N 
HETATM    7  H           1     -27.337  -8.188 -22.052  0.00  0.00     0.275 HD
HETATM    8  H           1     -26.331  -9.456 -21.513  0.00  0.00     0.275 HD
HETATM    9  H           1     -27.615  -8.909 -20.531  0.00  0.00     0.275 HD
ENDBRANCH   5   6
BRANCH   5  10
HETATM   10  C           1     -25.017  -7.055 -21.625  0.00  0.00     0.101 C 
BRANCH  10  11
HETATM   11  C           1     -23.814  -7.939 -21.741  0.00  0.00     0.028 A 
HETATM   12  C           1     -23.407  -8.557 -22.899  0.00  0.00     0.114 A 
HETATM   13  N           1     -22.283  -9.254 -22.553  0.00  0.00    -0.360 N 
HETATM   14  C           1     -22.056  -9.034 -21.224  0.00  0.00     0.180 A 
HETATM   15  H           1     -21.699  -9.848 -23.192  0.00  0.00     0.166 HD
HETATM   16  N           1     -22.967  -8.243 -20.706  0.00  0.00    -0.355 N 
ATOM     17  HN          1     -23.030  -7.922 -19.740  1.00  0.00     0.166 HD
ENDBRANCH  10  11
ENDBRANCH   5  10
ENDBRANCH   2   5
BRANCH   1  18
HETATM   18  C           1     -27.949  -5.485 -18.090  0.00  0.00     0.186 C 
BRANCH  18  19
HETATM   19  C           1     -29.400  -5.928 -17.954  0.00  0.00     0.046 C 
BRANCH  19  20
HETATM   20  C           1     -29.449  -7.413 -17.617  0.00  0.00     0.116 C 
BRANCH  20  21
HETATM   21  C           1     -30.111  -8.164 -18.746  0.00  0.00     0.172 C 
HETATM   22  O           1     -31.340  -8.048 -18.937  0.00  0.00    -0.648 OA
HETATM   23  O           1     -29.429  -8.903 -19.490  0.00  0.00    -0.648 OA
ENDBRANCH  20  21
ENDBRANCH  19  20
ENDBRANCH  18  19
BRANCH  18  24
HETATM   24  C           1     -27.401  -5.137 -16.728  0.00  0.00     0.196 C 
HETATM   25  O           1     -28.078  -4.438 -15.942  0.00  0.00    -0.646 OA
HETATM   26  O           1     -26.271  -5.547 -16.385  0.00  0.00    -0.646 OA
ENDBRANCH  18  24
ENDBRANCH   1  18
TORSDOF 9
ENDMDL
MODEL 4
REMARK VINA RESULT:      -6.9      1.115      1.366
REMARK  9 active torsions:
REMARK  status: ('A' for Active; 'I' for Inactive)
REMARK    1  A    between atoms: N_2  and  C_19 
REMARK       I    between atoms: N_2  and  C_3 
REMARK    2  A    between atoms: C_3  and  C_24 
REMARK    3  A    between atoms: C_8  and  C_10 
REMARK    4  A    between atoms: C_10  and  C_11 
REMARK    5  A    between atoms: C_11  and  C_19 
REMARK    6  A    between atoms: N_14  and  C_24 
REMARK    7  A    between atoms: C_16  and  C_23 
REMARK    8  A    between atoms: C_19  and  C_20 
REMARK    9  A    between atoms: C_23  and  C_24 
ROOT
HETATM    1  N           1     -27.425  -6.544 -18.897  0.00  0.00    -0.345 N 
HETATM    2  C           1     -26.144  -6.505 -18.417  0.00  0.00     0.249 C 
HETATM    3  O           1     -25.944  -6.289 -17.246  0.00  0.00    -0.271 OA
HETATM    4  H           1     -27.593  -6.725 -19.879  0.00  0.00     0.163 HD
ENDROOT
BRANCH   2   5
HETATM    5  C           1     -24.981  -6.731 -19.352  0.00  0.00     0.280 C 
BRANCH   5   6
HETATM    6  N           1     -23.771  -7.125 -18.557  0.00  0.00    -0.066 N 
HETATM    7  H           1     -22.928  -7.111 -19.175  0.00  0.00     0.275 HD
HETATM    8  H           1     -23.637  -6.451 -17.770  0.00  0.00     0.275 HD
HETATM    9  H           1     -23.904  -8.088 -18.174  0.00  0.00     0.275 HD
ENDBRANCH   5   6
BRANCH   5  10
HETATM   10  C           1     -25.327  -7.844 -20.333  0.00  0.00     0.101 C 
BRANCH  10  11
HETATM   11  C           1     -24.148  -8.116 -21.214  0.00  0.00     0.028 A 
HETATM   12  C           1     -23.958  -7.562 -22.458  0.00  0.00     0.114 A 
HETATM   13  N           1     -22.771  -8.079 -22.899  0.00  0.00    -0.360 N 
HETATM   14  C           1     -22.297  -8.909 -21.923  0.00  0.00     0.180 A 
HETATM   15  H           1     -22.308  -7.874 -23.818  0.00  0.00     0.166 HD
HETATM   16  N           1     -23.109  -8.952 -20.892  0.00  0.00    -0.355 N 
ATOM     17  HN          1     -22.992  -9.491 -20.034  1.00  0.00     0.166 HD
ENDBRANCH  10  11
ENDBRANCH   5  10
ENDBRANCH   2   5
BRANCH   1  18
HETATM   18  C           1     -28.542  -6.327 -17.999  0.00  0.00     0.186 C 
BRANCH  18  19
HETATM   19  C           1     -29.403  -5.186 -18.524  0.00  0.00     0.046 C 
BRANCH  19  20
HETATM   20  C           1     -29.932  -4.367 -17.353  0.00  0.00     0.116 C 
BRANCH  20  21
HETATM   21  C           1     -28.959  -3.258 -17.035  0.00  0.00     0.172 C 
HETATM   22  O           1     -27.898  -3.513 -16.428  0.00  0.00    -0.648 OA
HETATM   23  O           1     -29.216  -2.083 -17.380  0.00  0.00    -0.648 OA
ENDBRANCH  20  21
ENDBRANCH  19  20
ENDBRANCH  18  19
BRANCH  18  24
HETATM   24  C           1     -29.372  -7.585 -17.916  0.00  0.00     0.196 C 
HETATM   25  O           1     -29.698  -8.046 -16.800  0.00  0.00    -0.646 OA
HETATM   26  O           1     -29.735  -8.165 -18.962  0.00  0.00    -0.646 OA
ENDBRANCH  18  24
ENDBRANCH   1  18
TORSDOF 9
ENDMDL
MODEL 5
REMARK VINA RESULT:      -6.8      2.901      6.830
REMARK  9 active torsions:
REMARK  status: ('A' for Active; 'I' for Inactive)
REMARK    1  A    between atoms: N_2  and  C_19 
REMARK       I    between atoms: N_2  and  C_3 
REMARK    2  A    between atoms: C_3  and  C_24 
REMARK    3  A    between atoms: C_8  and  C_10 
REMARK    4  A    between atoms: C_10  and  C_11 
REMARK    5  A    between atoms: C_11  and  C_19 
REMARK    6  A    between atoms: N_14  and  C_24 
REMARK    7  A    between atoms: C_16  and  C_23 
REMARK    8  A    between atoms: C_19  and  C_20 
REMARK    9  A    between atoms: C_23  and  C_24 
ROOT
HETATM    1  N           1     -26.793  -6.918 -18.459  0.00  0.00    -0.345 N 
HETATM    2  C           1     -27.963  -6.215 -18.571  0.00  0.00     0.249 C 
HETATM    3  O           1     -28.047  -5.305 -19.361  0.00  0.00    -0.271 OA
HETATM    4  H           1     -26.723  -7.681 -17.797  0.00  0.00     0.163 HD
ENDROOT
BRANCH   2   5
HETATM    5  C           1     -29.147  -6.578 -17.709  0.00  0.00     0.280 C 
BRANCH   5   6
HETATM    6  N           1     -28.911  -7.918 -17.076  0.00  0.00    -0.066 N 
HETATM    7  H           1     -28.095  -7.858 -16.426  0.00  0.00     0.275 HD
HETATM    8  H           1     -29.762  -8.204 -16.541  0.00  0.00     0.275 HD
HETATM    9  H           1     -28.712  -8.624 -17.820  0.00  0.00     0.275 HD
ENDBRANCH   5   6
BRANCH   5  10
HETATM   10  C           1     -29.323  -5.528 -16.620  0.00  0.00     0.101 C 
BRANCH  10  11
HETATM   11  C           1     -30.588  -4.765 -16.863  0.00  0.00     0.028 A 
HETATM   12  C           1     -30.671  -3.601 -17.590  0.00  0.00     0.114 A 
HETATM   13  N           1     -31.993  -3.255 -17.556  0.00  0.00    -0.360 N 
HETATM   14  C           1     -32.648  -4.205 -16.826  0.00  0.00     0.180 A 
HETATM   15  H           1     -32.426  -2.414 -18.011  0.00  0.00     0.166 HD
HETATM   16  N           1     -31.823  -5.131 -16.393  0.00  0.00    -0.355 N 
ATOM     17  HN          1     -32.053  -5.948 -15.828  1.00  0.00     0.166 HD
ENDBRANCH  10  11
ENDBRANCH   5  10
ENDBRANCH   2   5
BRANCH   1  18
HETATM   18  C           1     -25.656  -6.570 -19.288  0.00  0.00     0.186 C 
BRANCH  18  19
HETATM   19  C           1     -24.392  -6.558 -18.439  0.00  0.00     0.046 C 
BRANCH  19  20
HETATM   20  C           1     -24.560  -7.510 -17.262  0.00  0.00     0.116 C 
BRANCH  20  21
HETATM   21  C           1     -25.306  -6.811 -16.152  0.00  0.00     0.172 C 
HETATM   22  O           1     -25.078  -5.607 -15.906  0.00  0.00    -0.648 OA
HETATM   23  O           1     -26.153  -7.437 -15.477  0.00  0.00    -0.648 OA
ENDBRANCH  20  21
ENDBRANCH  19  20
ENDBRANCH  18  19
BRANCH  18  24
HETATM   24  C           1     -25.509  -7.588 -20.393  0.00  0.00     0.196 C 
HETATM   25  O           1     -24.373  -8.000 -20.715  0.00  0.00    -0.646 OA
HETATM   26  O           1     -26.522  -8.019 -20.984  0.00  0.00    -0.646 OA
ENDBRANCH  18  24
ENDBRANCH   1  18
TORSDOF 9
ENDMDL
MODEL 6
REMARK VINA RESULT:      -6.8     13.425     15.152
REMARK  9 active torsions:
REMARK  status: ('A' for Active; 'I' for Inactive)
REMARK    1  A    between atoms: N_2  and  C_19 
REMARK       I    between atoms: N_2  and  C_3 
REMARK    2  A    between atoms: C_3  and  C_24 
REMARK    3  A    between atoms: C_8  and  C_10 
REMARK    4  A    between atoms: C_10  and  C_11 
REMARK    5  A    between atoms: C_11  and  C_19 
REMARK    6  A    between atoms: N_14  and  C_24 
REMARK    7  A    between atoms: C_16  and  C_23 
REMARK    8  A    between atoms: C_19  and  C_20 
REMARK    9  A    between atoms: C_23  and  C_24 
ROOT
HETATM    1  N           1     -21.513  -5.833  -5.790  0.00  0.00    -0.345 N 
HETATM    2  C           1     -20.716  -4.854  -6.320  0.00  0.00     0.249 C 
HETATM    3  O           1     -19.681  -4.556  -5.776  0.00  0.00    -0.271 OA
HETATM    4  H           1     -22.381  -6.083  -6.246  0.00  0.00     0.163 HD
ENDROOT
BRANCH   2   5
HETATM    5  C           1     -21.133  -4.148  -7.588  0.00  0.00     0.280 C 
BRANCH   5   6
HETATM    6  N           1     -19.920  -3.577  -8.263  0.00  0.00    -0.066 N 
HETATM    7  H           1     -19.274  -3.183  -7.542  0.00  0.00     0.275 HD
HETATM    8  H           1     -19.431  -4.332  -8.794  0.00  0.00     0.275 HD
HETATM    9  H           1     -20.212  -2.820  -8.920  0.00  0.00     0.275 HD
ENDBRANCH   5   6
BRANCH   5  10
HETATM   10  C           1     -21.813  -5.140  -8.522  0.00  0.00     0.101 C 
BRANCH  10  11
HETATM   11  C           1     -22.989  -4.484  -9.176  0.00  0.00     0.028 A 
HETATM   12  C           1     -23.321  -4.618 -10.503  0.00  0.00     0.114 A 
HETATM   13  N           1     -24.447  -3.860 -10.665  0.00  0.00    -0.360 N 
HETATM   14  C           1     -24.749  -3.308  -9.453  0.00  0.00     0.180 A 
HETATM   15  H           1     -24.984  -3.729 -11.558  0.00  0.00     0.166 HD
HETATM   16  N           1     -23.884  -3.667  -8.532  0.00  0.00    -0.355 N 
ATOM     17  HN          1     -23.879  -3.397  -7.549  1.00  0.00     0.166 HD
ENDBRANCH  10  11
ENDBRANCH   5  10
ENDBRANCH   2   5
BRANCH   1  18
HETATM   18  C           1     -21.113  -6.512  -4.572  0.00  0.00     0.186 C 
BRANCH  18  19
HETATM   19  C           1     -22.272  -6.512  -3.585  0.00  0.00     0.046 C 
BRANCH  19  20
HETATM   20  C           1     -21.784  -6.025  -2.227  0.00  0.00     0.116 C 
BRANCH  20  21
HETATM   21  C           1     -21.965  -7.120  -1.204  0.00  0.00     0.172 C 
HETATM   22  O           1     -21.117  -8.033  -1.109  0.00  0.00    -0.648 OA
HETATM   23  O           1     -22.964  -7.114  -0.452  0.00  0.00    -0.648 OA
ENDBRANCH  20  21
ENDBRANCH  19  20
ENDBRANCH  18  19
BRANCH  18  24
HETATM   24  C           1     -20.728  -7.935  -4.894  0.00  0.00     0.196 C 
HETATM   25  O           1     -21.414  -8.883  -4.454  0.00  0.00    -0.646 OA
HETATM   26  O           1     -19.723  -8.166  -5.601  0.00  0.00    -0.646 OA
ENDBRANCH  18  24
ENDBRANCH   1  18
TORSDOF 9
ENDMDL
MODEL 7
REMARK VINA RESULT:      -6.6      3.147      7.433
REMARK  9 active torsions:
REMARK  status: ('A' for Active; 'I' for Inactive)
REMARK    1  A    between atoms: N_2  and  C_19 
REMARK       I    between atoms: N_2  and  C_3 
REMARK    2  A    between atoms: C_3  and  C_24 
REMARK    3  A    between atoms: C_8  and  C_10 
REMARK    4  A    between atoms: C_10  and  C_11 
REMARK    5  A    between atoms: C_11  and  C_19 
REMARK    6  A    between atoms: N_14  and  C_24 
REMARK    7  A    between atoms: C_16  and  C_23 
REMARK    8  A    between atoms: C_19  and  C_20 
REMARK    9  A    between atoms: C_23  and  C_24 
ROOT
HETATM    1  N           1     -26.967  -5.553 -17.631  0.00  0.00    -0.345 N 
HETATM    2  C           1     -28.209  -5.665 -17.066  0.00  0.00     0.249 C 
HETATM    3  O           1     -28.631  -6.749 -16.744  0.00  0.00    -0.271 OA
HETATM    4  H           1     -26.613  -4.645 -17.901  0.00  0.00     0.163 HD
ENDROOT
BRANCH   2   5
HETATM    5  C           1     -29.051  -4.432 -16.846  0.00  0.00     0.280 C 
BRANCH   5   6
HETATM    6  N           1     -28.160  -3.227 -16.771  0.00  0.00    -0.066 N 
HETATM    7  H           1     -28.504  -2.497 -17.435  0.00  0.00     0.275 HD
HETATM    8  H           1     -28.173  -2.845 -15.798  0.00  0.00     0.275 HD
HETATM    9  H           1     -27.184  -3.499 -17.026  0.00  0.00     0.275 HD
ENDBRANCH   5   6
BRANCH   5  10
HETATM   10  C           1     -30.026  -4.269 -18.004  0.00  0.00     0.101 C 
BRANCH  10  11
HETATM   11  C           1     -31.424  -4.194 -17.472  0.00  0.00     0.028 A 
HETATM   12  C           1     -32.055  -5.206 -16.790  0.00  0.00     0.114 A 
HETATM   13  N           1     -33.297  -4.715 -16.497  0.00  0.00    -0.360 N 
HETATM   14  C           1     -33.368  -3.448 -17.003  0.00  0.00     0.180 A 
HETATM   15  H           1     -34.057  -5.219 -15.977  0.00  0.00     0.166 HD
HETATM   16  N           1     -32.249  -3.106 -17.599  0.00  0.00    -0.355 N 
ATOM     17  HN          1     -32.039  -2.219 -18.058  1.00  0.00     0.166 HD
ENDBRANCH  10  11
ENDBRANCH   5  10
ENDBRANCH   2   5
BRANCH   1  18
HETATM   18  C           1     -26.158  -6.739 -17.841  0.00  0.00     0.186 C 
BRANCH  18  19
HETATM   19  C           1     -25.558  -6.703 -19.241  0.00  0.00     0.046 C 
BRANCH  19  20
HETATM   20  C           1     -26.668  -6.848 -20.274  0.00  0.00     0.116 C 
BRANCH  20  21
HETATM   21  C           1     -26.397  -8.055 -21.138  0.00  0.00     0.172 C 
HETATM   22  O           1     -27.338  -8.802 -21.480  0.00  0.00    -0.648 OA
HETATM   23  O           1     -25.230  -8.307 -21.512  0.00  0.00    -0.648 OA
ENDBRANCH  20  21
ENDBRANCH  19  20
ENDBRANCH  18  19
BRANCH  18  24
HETATM   24  C           1     -25.048  -6.777 -16.820  0.00  0.00     0.196 C 
HETATM   25  O           1     -25.061  -5.985 -15.853  0.00  0.00    -0.646 OA
HETATM   26  O           1     -24.116  -7.602 -16.940  0.00  0.00    -0.646 OA
ENDBRANCH  18  24
ENDBRANCH   1  18
TORSDOF 9
ENDMDL
MODEL 8
REMARK VINA RESULT:      -6.5     12.840     14.547
REMARK  9 active torsions:
REMARK  status: ('A' for Active; 'I' for Inactive)
REMARK    1  A    between atoms: N_2  and  C_19 
REMARK       I    between atoms: N_2  and  C_3 
REMARK    2  A    between atoms: C_3  and  C_24 
REMARK    3  A    between atoms: C_8  and  C_10 
REMARK    4  A    between atoms: C_10  and  C_11 
REMARK    5  A    between atoms: C_11  and  C_19 
REMARK    6  A    between atoms: N_14  and  C_24 
REMARK    7  A    between atoms: C_16  and  C_23 
REMARK    8  A    between atoms: C_19  and  C_20 
REMARK    9  A    between atoms: C_23  and  C_24 
ROOT
HETATM    1  N           1     -21.283  -5.195  -6.531  0.00  0.00    -0.345 N 
HETATM    2  C           1     -21.241  -6.477  -6.052  0.00  0.00     0.249 C 
HETATM    3  O           1     -21.381  -7.409  -6.806  0.00  0.00    -0.271 OA
HETATM    4  H           1     -21.166  -4.414  -5.899  0.00  0.00     0.163 HD
ENDROOT
BRANCH   2   5
HETATM    5  C           1     -21.020  -6.724  -4.579  0.00  0.00     0.280 C 
BRANCH   5   6
HETATM    6  N           1     -22.076  -6.009  -3.789  0.00  0.00    -0.066 N 
HETATM    7  H           1     -22.460  -5.219  -4.355  0.00  0.00     0.275 HD
HETATM    8  H           1     -22.846  -6.675  -3.555  0.00  0.00     0.275 HD
HETATM    9  H           1     -21.658  -5.634  -2.908  0.00  0.00     0.275 HD
ENDBRANCH   5   6
BRANCH   5  10
HETATM   10  C           1     -21.101  -8.218  -4.297  0.00  0.00     0.101 C 
BRANCH  10  11
HETATM   11  C           1     -19.732  -8.818  -4.389  0.00  0.00     0.028 A 
HETATM   12  C           1     -18.921  -9.081  -3.311  0.00  0.00     0.114 A 
HETATM   13  N           1     -17.783  -9.617  -3.846  0.00  0.00    -0.360 N 
HETATM   14  C           1     -17.946  -9.658  -5.201  0.00  0.00     0.180 A 
HETATM   15  H           1     -16.938  -9.940  -3.313  0.00  0.00     0.166 HD
HETATM   16  N           1     -19.116  -9.181  -5.559  0.00  0.00    -0.355 N 
ATOM     17  HN          1     -19.487  -9.097  -6.505  1.00  0.00     0.166 HD
ENDBRANCH  10  11
ENDBRANCH   5  10
ENDBRANCH   2   5
BRANCH   1  18
HETATM   18  C           1     -21.495  -4.958  -7.946  0.00  0.00     0.186 C 
BRANCH  18  19
HETATM   19  C           1     -22.486  -3.815  -8.128  0.00  0.00     0.046 C 
BRANCH  19  20
HETATM   20  C           1     -23.692  -4.309  -8.916  0.00  0.00     0.116 C 
BRANCH  20  21
HETATM   21  C           1     -23.822  -3.512 -10.190  0.00  0.00     0.172 C 
HETATM   22  O           1     -24.952  -3.181 -10.608  0.00  0.00    -0.648 OA
HETATM   23  O           1     -22.798  -3.182 -10.828  0.00  0.00    -0.648 OA
ENDBRANCH  20  21
ENDBRANCH  19  20
ENDBRANCH  18  19
BRANCH  18  24
HETATM   24  C           1     -20.183  -4.592  -8.596  0.00  0.00     0.196 C 
HETATM   25  O           1     -19.250  -4.129  -7.904  0.00  0.00    -0.646 OA
HETATM   26  O           1     -20.028  -4.754  -9.826  0.00  0.00    -0.646 OA
ENDBRANCH  18  24
ENDBRANCH   1  18
TORSDOF 9
ENDMDL
MODEL 9
REMARK VINA RESULT:      -6.3     13.697     15.243
REMARK  9 active torsions:
REMARK  status: ('A' for Active; 'I' for Inactive)
REMARK    1  A    between atoms: N_2  and  C_19 
REMARK       I    between atoms: N_2  and  C_3 
REMARK    2  A    between atoms: C_3  and  C_24 
REMARK    3  A    between atoms: C_8  and  C_10 
REMARK    4  A    between atoms: C_10  and  C_11 
REMARK    5  A    between atoms: C_11  and  C_19 
REMARK    6  A    between atoms: N_14  and  C_24 
REMARK    7  A    between atoms: C_16  and  C_23 
REMARK    8  A    between atoms: C_19  and  C_20 
REMARK    9  A    between atoms: C_23  and  C_24 
ROOT
HETATM    1  N           1     -21.622  -7.867  -5.012  0.00  0.00    -0.345 N 
HETATM    2  C           1     -20.952  -7.078  -5.909  0.00  0.00     0.249 C 
HETATM    3  O           1     -19.769  -7.239  -6.089  0.00  0.00    -0.271 OA
HETATM    4  H           1     -22.613  -7.733  -4.861  0.00  0.00     0.163 HD
ENDROOT
BRANCH   2   5
HETATM    5  C           1     -21.694  -6.009  -6.673  0.00  0.00     0.280 C 
BRANCH   5   6
HETATM    6  N           1     -22.692  -5.350  -5.767  0.00  0.00    -0.066 N 
HETATM    7  H           1     -23.620  -5.817  -5.873  0.00  0.00     0.275 HD
HETATM    8  H           1     -22.371  -5.434  -4.776  0.00  0.00     0.275 HD
HETATM    9  H           1     -22.780  -4.340  -6.022  0.00  0.00     0.275 HD
ENDBRANCH   5   6
BRANCH   5  10
HETATM   10  C           1     -20.705  -4.968  -7.179  0.00  0.00     0.101 C 
BRANCH  10  11
HETATM   11  C           1     -20.996  -4.659  -8.614  0.00  0.00     0.028 A 
HETATM   12  C           1     -20.046  -4.574  -9.604  0.00  0.00     0.114 A 
HETATM   13  N           1     -20.744  -4.277 -10.741  0.00  0.00    -0.360 N 
HETATM   14  C           1     -22.065  -4.197 -10.404  0.00  0.00     0.180 A 
HETATM   15  H           1     -20.339  -4.138 -11.700  0.00  0.00     0.166 HD
HETATM   16  N           1     -22.248  -4.423  -9.123  0.00  0.00    -0.355 N 
ATOM     17  HN          1     -23.132  -4.423  -8.615  1.00  0.00     0.166 HD
ENDBRANCH  10  11
ENDBRANCH   5  10
ENDBRANCH   2   5
BRANCH   1  18
HETATM   18  C           1     -20.910  -8.895  -4.278  0.00  0.00     0.186 C 
BRANCH  18  19
HETATM   19  C           1     -21.360  -8.887  -2.824  0.00  0.00     0.046 C 
BRANCH  19  20
HETATM   20  C           1     -20.887  -7.605  -2.151  0.00  0.00     0.116 C 
BRANCH  20  21
HETATM   21  C           1     -22.073  -6.717  -1.868  0.00  0.00     0.172 C 
HETATM   22  O           1     -22.473  -5.912  -2.736  0.00  0.00    -0.648 OA
HETATM   23  O           1     -22.657  -6.787  -0.764  0.00  0.00    -0.648 OA
ENDBRANCH  20  21
ENDBRANCH  19  20
ENDBRANCH  18  19
BRANCH  18  24
HETATM   24  C           1     -21.205 -10.244  -4.888  0.00  0.00     0.196 C 
HETATM   25  O           1     -20.924 -10.463  -6.087  0.00  0.00    -0.646 OA
HETATM   26  O           1     -21.730 -11.142  -4.195  0.00  0.00    -0.646 OA
ENDBRANCH  18  24
ENDBRANCH   1  18
TORSDOF 9
ENDMDL
