MODEL 1
REMARK VINA RESULT:      -5.8      0.000      0.000
REMARK  11 active torsions:
REMARK  status: ('A' for Active; 'I' for Inactive)
REMARK    1  A    between atoms: N_6  and  C_9 
REMARK    2  A    between atoms: Se_7  and  C_8 
REMARK    3  A    between atoms: C_8  and  C_9 
REMARK    4  A    between atoms: C_9  and  C_10 
REMARK       I    between atoms: C_10  and  N_11 
REMARK    5  A    between atoms: N_11  and  C_15 
REMARK    6  A    between atoms: C_14  and  C_15 
REMARK    7  A    between atoms: C_15  and  C_16 
REMARK    8  A    between atoms: C_16  and  C_17 
REMARK    9  A    between atoms: C_17  and  C_18 
REMARK   10  A    between atoms: C_18  and  C_19 
REMARK   11  A    between atoms: C_19  and  N_20 
ROOT
HETATM    1  H           1     -27.392  -7.011 -18.609  0.00  0.00     0.163 HD
HETATM    2  O           1     -24.305  -6.454 -18.574  0.00  0.00    -0.271 OA
HETATM    3  C           1     -25.363  -6.864 -18.989  0.00  0.00     0.249 C 
HETATM    4  N           1     -26.506  -6.667 -18.262  0.00  0.00    -0.345 N 
ENDROOT
BRANCH   4   5
HETATM    5  C           1     -26.448  -5.966 -16.994  0.00  0.00     0.185 C 
BRANCH   5   6
HETATM    6  C           1     -26.400  -6.970 -15.867  0.00  0.00     0.196 C 
HETATM    7  O           1     -25.298  -7.358 -15.423  0.00  0.00    -0.646 OA
HETATM    8  O           1     -27.462  -7.413 -15.380  0.00  0.00    -0.646 OA
ENDBRANCH   5   6
BRANCH   5   9
HETATM    9  C           1     -27.684  -5.090 -16.841  0.00  0.00     0.036 C 
BRANCH   9  10
HETATM   10  C           1     -28.661  -5.388 -17.970  0.00  0.00     0.004 C 
BRANCH  10  11
HETATM   11  C           1     -29.990  -5.847 -17.385  0.00  0.00     0.027 C 
BRANCH  11  12
HETATM   12  C           1     -30.366  -7.199 -17.975  0.00  0.00     0.229 C 
BRANCH  12  13
HETATM   13  N           1     -29.435  -8.252 -17.449  0.00  0.00    -0.079 N 
HETATM   14  H           1     -28.569  -8.273 -18.032  0.00  0.00     0.274 HD
HETATM   15  H           1     -29.907  -9.183 -17.490  0.00  0.00     0.274 HD
HETATM   16  H           1     -29.184  -8.031 -16.460  0.00  0.00     0.274 HD
ENDBRANCH  12  13
ENDBRANCH  11  12
ENDBRANCH  10  11
ENDBRANCH   9  10
ENDBRANCH   5   9
ENDBRANCH   4   5
BRANCH   3  17
HETATM   17  C           1     -25.424  -7.593 -20.309  0.00  0.00     0.274 C 
BRANCH  17  18
HETATM   18  N           1     -26.852  -7.907 -20.640  0.00  0.00    -0.067 N 
HETATM   19  H           1     -27.207  -8.645 -19.990  0.00  0.00     0.275 HD
HETATM   20  H           1     -27.432  -7.044 -20.537  0.00  0.00     0.275 HD
HETATM   21  H           1     -26.913  -8.253 -21.625  0.00  0.00     0.275 HD
ENDBRANCH  17  18
BRANCH  17  22
HETATM   22  C           1     -24.830  -6.716 -21.402  0.00  0.00     0.045 C 
BRANCH  22  23
HETATM   23 Se           1     -23.779  -7.817 -22.620  0.00  0.00     0.000 Se
HETATM   24  H           1     -23.042  -8.504 -21.547  0.00  0.00     0.000 HD
ENDBRANCH  22  23
ENDBRANCH  17  22
ENDBRANCH   3  17
TORSDOF 11
ENDMDL
MODEL 2
REMARK VINA RESULT:      -5.6      1.519      1.677
REMARK  11 active torsions:
REMARK  status: ('A' for Active; 'I' for Inactive)
REMARK    1  A    between atoms: N_6  and  C_9 
REMARK    2  A    between atoms: Se_7  and  C_8 
REMARK    3  A    between atoms: C_8  and  C_9 
REMARK    4  A    between atoms: C_9  and  C_10 
REMARK       I    between atoms: C_10  and  N_11 
REMARK    5  A    between atoms: N_11  and  C_15 
REMARK    6  A    between atoms: C_14  and  C_15 
REMARK    7  A    between atoms: C_15  and  C_16 
REMARK    8  A    between atoms: C_16  and  C_17 
REMARK    9  A    between atoms: C_17  and  C_18 
REMARK   10  A    between atoms: C_18  and  C_19 
REMARK   11  A    between atoms: C_19  and  N_20 
ROOT
HETATM    1  H           1     -27.426  -6.966 -18.606  0.00  0.00     0.163 HD
HETATM    2  O           1     -24.330  -6.462 -18.529  0.00  0.00    -0.271 OA
HETATM    3  C           1     -25.390  -6.851 -18.960  0.00  0.00     0.249 C 
HETATM    4  N           1     -26.539  -6.639 -18.245  0.00  0.00    -0.345 N 
ENDROOT
BRANCH   4   5
HETATM    5  C           1     -26.483  -5.947 -16.972  0.00  0.00     0.185 C 
BRANCH   5   6
HETATM    6  C           1     -26.439  -6.959 -15.853  0.00  0.00     0.196 C 
HETATM    7  O           1     -25.339  -7.360 -15.417  0.00  0.00    -0.646 OA
HETATM    8  O           1     -27.503  -7.395 -15.363  0.00  0.00    -0.646 OA
ENDBRANCH   5   6
BRANCH   5   9
HETATM    9  C           1     -27.720  -5.072 -16.817  0.00  0.00     0.036 C 
BRANCH   9  10
HETATM   10  C           1     -28.603  -5.216 -18.049  0.00  0.00     0.004 C 
BRANCH  10  11
HETATM   11  C           1     -30.059  -4.996 -17.660  0.00  0.00     0.027 C 
BRANCH  11  12
HETATM   12  C           1     -30.360  -3.504 -17.639  0.00  0.00     0.229 C 
BRANCH  12  13
HETATM   13  N           1     -31.835  -3.292 -17.467  0.00  0.00    -0.079 N 
HETATM   14  H           1     -32.286  -4.192 -17.190  0.00  0.00     0.274 HD
HETATM   15  H           1     -32.245  -2.958 -18.369  0.00  0.00     0.274 HD
HETATM   16  H           1     -32.000  -2.577 -16.724  0.00  0.00     0.274 HD
ENDBRANCH  12  13
ENDBRANCH  11  12
ENDBRANCH  10  11
ENDBRANCH   9  10
ENDBRANCH   5   9
ENDBRANCH   4   5
BRANCH   3  17
HETATM   17  C           1     -25.447  -7.571 -20.285  0.00  0.00     0.274 C 
BRANCH  17  18
HETATM   18  N           1     -26.877  -7.860 -20.634  0.00  0.00    -0.067 N 
HETATM   19  H           1     -27.329  -8.382 -19.850  0.00  0.00     0.275 HD
HETATM   20  H           1     -27.385  -6.961 -20.794  0.00  0.00     0.275 HD
HETATM   21  H           1     -26.912  -8.440 -21.504  0.00  0.00     0.275 HD
ENDBRANCH  17  18
BRANCH  17  22
HETATM   22  C           1     -24.826  -6.697 -21.366  0.00  0.00     0.045 C 
BRANCH  22  23
HETATM   23 Se           1     -23.799  -7.811 -22.592  0.00  0.00     0.000 Se
HETATM   24  H           1     -23.616  -8.907 -21.627  0.00  0.00     0.000 HD
ENDBRANCH  22  23
ENDBRANCH  17  22
ENDBRANCH   3  17
TORSDOF 11
ENDMDL
MODEL 3
REMARK VINA RESULT:      -5.2      2.150      2.501
REMARK  11 active torsions:
REMARK  status: ('A' for Active; 'I' for Inactive)
REMARK    1  A    between atoms: N_6  and  C_9 
REMARK    2  A    between atoms: Se_7  and  C_8 
REMARK    3  A    between atoms: C_8  and  C_9 
REMARK    4  A    between atoms: C_9  and  C_10 
REMARK       I    between atoms: C_10  and  N_11 
REMARK    5  A    between atoms: N_11  and  C_15 
REMARK    6  A    between atoms: C_14  and  C_15 
REMARK    7  A    between atoms: C_15  and  C_16 
REMARK    8  A    between atoms: C_16  and  C_17 
REMARK    9  A    between atoms: C_17  and  C_18 
REMARK   10  A    between atoms: C_18  and  C_19 
REMARK   11  A    between atoms: C_19  and  N_20 
ROOT
HETATM    1  H           1     -25.900  -6.802 -17.680  0.00  0.00     0.163 HD
HETATM    2  O           1     -26.957  -5.985 -20.518  0.00  0.00    -0.271 OA
HETATM    3  C           1     -26.197  -6.438 -19.696  0.00  0.00     0.249 C 
HETATM    4  N           1     -26.537  -6.423 -18.369  0.00  0.00    -0.345 N 
ENDROOT
BRANCH   4   5
HETATM    5  C           1     -27.808  -5.865 -17.952  0.00  0.00     0.185 C 
BRANCH   5   6
HETATM    6  C           1     -27.612  -5.056 -16.693  0.00  0.00     0.196 C 
HETATM    7  O           1     -27.138  -5.595 -15.670  0.00  0.00    -0.646 OA
HETATM    8  O           1     -27.926  -3.846 -16.673  0.00  0.00    -0.646 OA
ENDBRANCH   5   6
BRANCH   5   9
HETATM    9  C           1     -28.794  -6.994 -17.681  0.00  0.00     0.036 C 
BRANCH   9  10
HETATM   10  C           1     -30.183  -6.579 -18.148  0.00  0.00     0.004 C 
BRANCH  10  11
HETATM   11  C           1     -31.033  -6.204 -16.941  0.00  0.00     0.027 C 
BRANCH  11  12
HETATM   12  C           1     -31.304  -4.706 -16.957  0.00  0.00     0.229 C 
BRANCH  12  13
HETATM   13  N           1     -32.575  -4.419 -16.214  0.00  0.00    -0.079 N 
HETATM   14  H           1     -33.024  -3.563 -16.610  0.00  0.00     0.274 HD
HETATM   15  H           1     -32.359  -4.265 -15.203  0.00  0.00     0.274 HD
HETATM   16  H           1     -33.226  -5.230 -16.311  0.00  0.00     0.274 HD
ENDBRANCH  12  13
ENDBRANCH  11  12
ENDBRANCH  10  11
ENDBRANCH   9  10
ENDBRANCH   5   9
ENDBRANCH   4   5
BRANCH   3  17
HETATM   17  C           1     -24.874  -7.019 -20.130  0.00  0.00     0.274 C 
BRANCH  17  18
HETATM   18  N           1     -24.179  -7.618 -18.943  0.00  0.00    -0.067 N 
HETATM   19  H           1     -23.183  -7.821 -19.189  0.00  0.00     0.275 HD
HETATM   20  H           1     -24.211  -6.945 -18.145  0.00  0.00     0.275 HD
HETATM   21  H           1     -24.658  -8.506 -18.671  0.00  0.00     0.275 HD
ENDBRANCH  17  18
BRANCH  17  22
HETATM   22  C           1     -25.112  -8.097 -21.177  0.00  0.00     0.045 C 
BRANCH  22  23
HETATM   23 Se           1     -23.708  -8.014 -22.526  0.00  0.00     0.000 Se
HETATM   24  H           1     -22.739  -7.343 -21.643  0.00  0.00     0.000 HD
ENDBRANCH  22  23
ENDBRANCH  17  22
ENDBRANCH   3  17
TORSDOF 11
ENDMDL
MODEL 4
REMARK VINA RESULT:      -4.9     12.303     14.138
REMARK  11 active torsions:
REMARK  status: ('A' for Active; 'I' for Inactive)
REMARK    1  A    between atoms: N_6  and  C_9 
REMARK    2  A    between atoms: Se_7  and  C_8 
REMARK    3  A    between atoms: C_8  and  C_9 
REMARK    4  A    between atoms: C_9  and  C_10 
REMARK       I    between atoms: C_10  and  N_11 
REMARK    5  A    between atoms: N_11  and  C_15 
REMARK    6  A    between atoms: C_14  and  C_15 
REMARK    7  A    between atoms: C_15  and  C_16 
REMARK    8  A    between atoms: C_16  and  C_17 
REMARK    9  A    between atoms: C_17  and  C_18 
REMARK   10  A    between atoms: C_18  and  C_19 
REMARK   11  A    between atoms: C_19  and  N_20 
ROOT
HETATM    1  H           1     -20.697  -4.554  -4.867  0.00  0.00     0.163 HD
HETATM    2  O           1     -22.117  -7.349  -4.985  0.00  0.00    -0.271 OA
HETATM    3  C           1     -21.560  -6.398  -4.492  0.00  0.00     0.249 C 
HETATM    4  N           1     -21.164  -5.351  -5.281  0.00  0.00    -0.345 N 
ENDROOT
BRANCH   4   5
HETATM    5  C           1     -21.415  -5.383  -6.708  0.00  0.00     0.185 C 
BRANCH   5   6
HETATM    6  C           1     -20.124  -5.660  -7.439  0.00  0.00     0.196 C 
HETATM    7  O           1     -19.503  -6.724  -7.231  0.00  0.00    -0.646 OA
HETATM    8  O           1     -19.674  -4.823  -8.251  0.00  0.00    -0.646 OA
ENDBRANCH   5   6
BRANCH   5   9
HETATM    9  C           1     -21.974  -4.039  -7.156  0.00  0.00     0.036 C 
BRANCH   9  10
HETATM   10  C           1     -23.160  -4.265  -8.085  0.00  0.00     0.004 C 
BRANCH  10  11
HETATM   11  C           1     -22.791  -3.826  -9.496  0.00  0.00     0.027 C 
BRANCH  11  12
HETATM   12  C           1     -24.044  -3.790 -10.360  0.00  0.00     0.229 C 
BRANCH  12  13
HETATM   13  N           1     -25.260  -3.805  -9.482  0.00  0.00    -0.079 N 
HETATM   14  H           1     -24.972  -3.971  -8.492  0.00  0.00     0.274 HD
HETATM   15  H           1     -25.903  -4.568  -9.792  0.00  0.00     0.274 HD
HETATM   16  H           1     -25.751  -2.886  -9.552  0.00  0.00     0.274 HD
ENDBRANCH  12  13
ENDBRANCH  11  12
ENDBRANCH  10  11
ENDBRANCH   9  10
ENDBRANCH   5   9
ENDBRANCH   4   5
BRANCH   3  17
HETATM   17  C           1     -21.299  -6.364  -3.006  0.00  0.00     0.274 C 
BRANCH  17  18
HETATM   18  N           1     -22.520  -5.859  -2.296  0.00  0.00    -0.067 N 
HETATM   19  H           1     -22.282  -4.987  -1.771  0.00  0.00     0.275 HD
HETATM   20  H           1     -23.268  -5.652  -2.995  0.00  0.00     0.275 HD
HETATM   21  H           1     -22.859  -6.587  -1.627  0.00  0.00     0.275 HD
ENDBRANCH  17  18
BRANCH  17  22
HETATM   22  C           1     -20.969  -7.767  -2.515  0.00  0.00     0.045 C 
BRANCH  22  23
HETATM   23 Se           1     -21.584  -7.974  -0.678  0.00  0.00     0.000 Se
HETATM   24  H           1     -21.285  -9.414  -0.617  0.00  0.00     0.000 HD
ENDBRANCH  22  23
ENDBRANCH  17  22
ENDBRANCH   3  17
TORSDOF 11
ENDMDL
MODEL 5
REMARK VINA RESULT:      -4.8      3.221      5.269
REMARK  11 active torsions:
REMARK  status: ('A' for Active; 'I' for Inactive)
REMARK    1  A    between atoms: N_6  and  C_9 
REMARK    2  A    between atoms: Se_7  and  C_8 
REMARK    3  A    between atoms: C_8  and  C_9 
REMARK    4  A    between atoms: C_9  and  C_10 
REMARK       I    between atoms: C_10  and  N_11 
REMARK    5  A    between atoms: N_11  and  C_15 
REMARK    6  A    between atoms: C_14  and  C_15 
REMARK    7  A    between atoms: C_15  and  C_16 
REMARK    8  A    between atoms: C_16  and  C_17 
REMARK    9  A    between atoms: C_17  and  C_18 
REMARK   10  A    between atoms: C_18  and  C_19 
REMARK   11  A    between atoms: C_19  and  N_20 
ROOT
HETATM    1  H           1     -26.935  -4.905 -18.055  0.00  0.00     0.163 HD
HETATM    2  O           1     -28.613  -7.215 -16.755  0.00  0.00    -0.271 OA
HETATM    3  C           1     -28.375  -6.112 -17.186  0.00  0.00     0.249 C 
HETATM    4  N           1     -27.135  -5.829 -17.694  0.00  0.00    -0.345 N 
ENDROOT
BRANCH   4   5
HETATM    5  C           1     -26.108  -6.853 -17.714  0.00  0.00     0.185 C 
BRANCH   5   6
HETATM    6  C           1     -25.270  -6.748 -16.464  0.00  0.00     0.196 C 
HETATM    7  O           1     -25.089  -5.636 -15.924  0.00  0.00    -0.646 OA
HETATM    8  O           1     -24.756  -7.775 -15.969  0.00  0.00    -0.646 OA
ENDBRANCH   5   6
BRANCH   5   9
HETATM    9  C           1     -25.222  -6.658 -18.938  0.00  0.00     0.036 C 
BRANCH   9  10
HETATM   10  C           1     -26.067  -6.766 -20.200  0.00  0.00     0.004 C 
BRANCH  10  11
HETATM   11  C           1     -25.652  -8.003 -20.985  0.00  0.00     0.027 C 
BRANCH  11  12
HETATM   12  C           1     -24.291  -7.767 -21.625  0.00  0.00     0.229 C 
BRANCH  12  13
HETATM   13  N           1     -23.308  -8.770 -21.099  0.00  0.00    -0.079 N 
HETATM   14  H           1     -23.536  -9.715 -21.483  0.00  0.00     0.274 HD
HETATM   15  H           1     -23.361  -8.794 -20.056  0.00  0.00     0.274 HD
HETATM   16  H           1     -22.343  -8.499 -21.392  0.00  0.00     0.274 HD
ENDBRANCH  12  13
ENDBRANCH  11  12
ENDBRANCH  10  11
ENDBRANCH   9  10
ENDBRANCH   5   9
ENDBRANCH   4   5
BRANCH   3  17
HETATM   17  C           1     -29.443  -5.047 -17.165  0.00  0.00     0.274 C 
BRANCH  17  18
HETATM   18  N           1     -29.399  -4.270 -18.447  0.00  0.00    -0.067 N 
HETATM   19  H           1     -28.727  -3.475 -18.349  0.00  0.00     0.275 HD
HETATM   20  H           1     -29.087  -4.896 -19.223  0.00  0.00     0.275 HD
HETATM   21  H           1     -30.352  -3.896 -18.661  0.00  0.00     0.275 HD
ENDBRANCH  17  18
BRANCH  17  22
HETATM   22  C           1     -30.810  -5.700 -17.014  0.00  0.00     0.045 C 
BRANCH  22  23
HETATM   23 Se           1     -32.180  -4.320 -16.890  0.00  0.00     0.000 Se
HETATM   24  H           1     -32.266  -4.112 -18.345  0.00  0.00     0.000 HD
ENDBRANCH  22  23
ENDBRANCH  17  22
ENDBRANCH   3  17
TORSDOF 11
ENDMDL
MODEL 6
REMARK VINA RESULT:      -4.7     12.775     14.485
REMARK  11 active torsions:
REMARK  status: ('A' for Active; 'I' for Inactive)
REMARK    1  A    between atoms: N_6  and  C_9 
REMARK    2  A    between atoms: Se_7  and  C_8 
REMARK    3  A    between atoms: C_8  and  C_9 
REMARK    4  A    between atoms: C_9  and  C_10 
REMARK       I    between atoms: C_10  and  N_11 
REMARK    5  A    between atoms: N_11  and  C_15 
REMARK    6  A    between atoms: C_14  and  C_15 
REMARK    7  A    between atoms: C_15  and  C_16 
REMARK    8  A    between atoms: C_16  and  C_17 
REMARK    9  A    between atoms: C_17  and  C_18 
REMARK   10  A    between atoms: C_18  and  C_19 
REMARK   11  A    between atoms: C_19  and  N_20 
ROOT
HETATM    1  H           1     -21.842  -7.031  -6.818  0.00  0.00     0.163 HD
HETATM    2  O           1     -20.286  -4.407  -6.087  0.00  0.00    -0.271 OA
HETATM    3  C           1     -20.950  -5.165  -6.754  0.00  0.00     0.249 C 
HETATM    4  N           1     -21.287  -6.397  -6.259  0.00  0.00    -0.345 N 
ENDROOT
BRANCH   4   5
HETATM    5  C           1     -20.849  -6.791  -4.935  0.00  0.00     0.185 C 
BRANCH   5   6
HETATM    6  C           1     -20.365  -8.220  -4.970  0.00  0.00     0.196 C 
HETATM    7  O           1     -19.451  -8.590  -4.203  0.00  0.00    -0.646 OA
HETATM    8  O           1     -20.879  -9.033  -5.769  0.00  0.00    -0.646 OA
ENDBRANCH   5   6
BRANCH   5   9
HETATM    9  C           1     -22.012  -6.672  -3.959  0.00  0.00     0.036 C 
BRANCH   9  10
HETATM   10  C           1     -21.534  -6.010  -2.674  0.00  0.00     0.004 C 
BRANCH  10  11
HETATM   11  C           1     -22.201  -6.677  -1.479  0.00  0.00     0.027 C 
BRANCH  11  12
HETATM   12  C           1     -21.852  -8.159  -1.463  0.00  0.00     0.229 C 
BRANCH  12  13
HETATM   13  N           1     -20.371  -8.323  -1.286  0.00  0.00    -0.079 N 
HETATM   14  H           1     -20.185  -9.110  -0.626  0.00  0.00     0.274 HD
HETATM   15  H           1     -19.968  -7.439  -0.899  0.00  0.00     0.274 HD
HETATM   16  H           1     -19.931  -8.531  -2.210  0.00  0.00     0.274 HD
ENDBRANCH  12  13
ENDBRANCH  11  12
ENDBRANCH  10  11
ENDBRANCH   9  10
ENDBRANCH   5   9
ENDBRANCH   4   5
BRANCH   3  17
HETATM   17  C           1     -21.406  -4.755  -8.133  0.00  0.00     0.274 C 
BRANCH  17  18
HETATM   18  N           1     -22.337  -3.584  -8.023  0.00  0.00    -0.067 N 
HETATM   19  H           1     -21.782  -2.709  -7.889  0.00  0.00     0.275 HD
HETATM   20  H           1     -22.905  -3.507  -8.897  0.00  0.00     0.275 HD
HETATM   21  H           1     -22.973  -3.722  -7.204  0.00  0.00     0.275 HD
ENDBRANCH  17  18
BRANCH  17  22
HETATM   22  C           1     -20.198  -4.366  -8.973  0.00  0.00     0.045 C 
BRANCH  22  23
HETATM   23 Se           1     -20.742  -4.150 -10.832  0.00  0.00     0.000 Se
HETATM   24  H           1     -21.860  -3.245 -10.522  0.00  0.00     0.000 HD
ENDBRANCH  22  23
ENDBRANCH  17  22
ENDBRANCH   3  17
TORSDOF 11
ENDMDL
MODEL 7
REMARK VINA RESULT:      -4.7     12.429     14.175
REMARK  11 active torsions:
REMARK  status: ('A' for Active; 'I' for Inactive)
REMARK    1  A    between atoms: N_6  and  C_9 
REMARK    2  A    between atoms: Se_7  and  C_8 
REMARK    3  A    between atoms: C_8  and  C_9 
REMARK    4  A    between atoms: C_9  and  C_10 
REMARK       I    between atoms: C_10  and  N_11 
REMARK    5  A    between atoms: N_11  and  C_15 
REMARK    6  A    between atoms: C_14  and  C_15 
REMARK    7  A    between atoms: C_15  and  C_16 
REMARK    8  A    between atoms: C_16  and  C_17 
REMARK    9  A    between atoms: C_17  and  C_18 
REMARK   10  A    between atoms: C_18  and  C_19 
REMARK   11  A    between atoms: C_19  and  N_20 
ROOT
HETATM    1  H           1     -21.277  -8.466  -6.499  0.00  0.00     0.163 HD
HETATM    2  O           1     -19.279  -8.599  -4.085  0.00  0.00    -0.271 OA
HETATM    3  C           1     -19.976  -9.007  -4.983  0.00  0.00     0.249 C 
HETATM    4  N           1     -20.693  -8.124  -5.747  0.00  0.00    -0.345 N 
ENDROOT
BRANCH   4   5
HETATM    5  C           1     -20.615  -6.702  -5.478  0.00  0.00     0.185 C 
BRANCH   5   6
HETATM    6  C           1     -21.801  -6.283  -4.643  0.00  0.00     0.196 C 
HETATM    7  O           1     -21.641  -5.965  -3.445  0.00  0.00    -0.646 OA
HETATM    8  O           1     -22.943  -6.257  -5.150  0.00  0.00    -0.646 OA
ENDBRANCH   5   6
BRANCH   5   9
HETATM    9  C           1     -20.625  -5.935  -6.793  0.00  0.00     0.036 C 
BRANCH   9  10
HETATM   10  C           1     -20.227  -4.487  -6.542  0.00  0.00     0.004 C 
BRANCH  10  11
HETATM   11  C           1     -21.260  -3.559  -7.167  0.00  0.00     0.027 C 
BRANCH  11  12
HETATM   12  C           1     -22.230  -4.375  -8.011  0.00  0.00     0.229 C 
BRANCH  12  13
HETATM   13  N           1     -23.617  -4.235  -7.456  0.00  0.00    -0.079 N 
HETATM   14  H           1     -24.302  -4.653  -8.124  0.00  0.00     0.274 HD
HETATM   15  H           1     -23.835  -3.223  -7.318  0.00  0.00     0.274 HD
HETATM   16  H           1     -23.677  -4.732  -6.539  0.00  0.00     0.274 HD
ENDBRANCH  12  13
ENDBRANCH  11  12
ENDBRANCH  10  11
ENDBRANCH   9  10
ENDBRANCH   5   9
ENDBRANCH   4   5
BRANCH   3  17
HETATM   17  C           1     -20.057 -10.487  -5.264  0.00  0.00     0.274 C 
BRANCH  17  18
HETATM   18  N           1     -21.105 -10.741  -6.306  0.00  0.00    -0.067 N 
HETATM   19  H           1     -22.045 -10.784  -5.852  0.00  0.00     0.275 HD
HETATM   20  H           1     -21.092  -9.967  -7.009  0.00  0.00     0.275 HD
HETATM   21  H           1     -20.908 -11.650  -6.784  0.00  0.00     0.275 HD
ENDBRANCH  17  18
BRANCH  17  22
HETATM   22  C           1     -18.709 -10.983  -5.767  0.00  0.00     0.045 C 
BRANCH  22  23
HETATM   23 Se           1     -18.985 -12.235  -7.236  0.00  0.00     0.000 Se
HETATM   24  H           1     -20.279 -11.659  -7.637  0.00  0.00     0.000 HD
ENDBRANCH  22  23
ENDBRANCH  17  22
ENDBRANCH   3  17
TORSDOF 11
ENDMDL
MODEL 8
REMARK VINA RESULT:      -4.6      3.326      5.468
REMARK  11 active torsions:
REMARK  status: ('A' for Active; 'I' for Inactive)
REMARK    1  A    between atoms: N_6  and  C_9 
REMARK    2  A    between atoms: Se_7  and  C_8 
REMARK    3  A    between atoms: C_8  and  C_9 
REMARK    4  A    between atoms: C_9  and  C_10 
REMARK       I    between atoms: C_10  and  N_11 
REMARK    5  A    between atoms: N_11  and  C_15 
REMARK    6  A    between atoms: C_14  and  C_15 
REMARK    7  A    between atoms: C_15  and  C_16 
REMARK    8  A    between atoms: C_16  and  C_17 
REMARK    9  A    between atoms: C_17  and  C_18 
REMARK   10  A    between atoms: C_18  and  C_19 
REMARK   11  A    between atoms: C_19  and  N_20 
ROOT
HETATM    1  H           1     -27.201  -7.554 -18.034  0.00  0.00     0.163 HD
HETATM    2  O           1     -28.940  -5.020 -18.661  0.00  0.00    -0.271 OA
HETATM    3  C           1     -28.316  -5.811 -17.995  0.00  0.00     0.249 C 
HETATM    4  N           1     -27.723  -6.892 -18.592  0.00  0.00    -0.345 N 
ENDROOT
BRANCH   4   5
HETATM    5  C           1     -27.844  -7.086 -20.024  0.00  0.00     0.185 C 
BRANCH   5   6
HETATM    6  C           1     -28.527  -8.404 -20.296  0.00  0.00     0.196 C 
HETATM    7  O           1     -28.136  -9.128 -21.236  0.00  0.00    -0.646 OA
HETATM    8  O           1     -29.485  -8.770 -19.581  0.00  0.00    -0.646 OA
ENDBRANCH   5   6
BRANCH   5   9
HETATM    9  C           1     -26.458  -7.093 -20.654  0.00  0.00     0.036 C 
BRANCH   9  10
HETATM   10  C           1     -25.432  -6.620 -19.631  0.00  0.00     0.004 C 
BRANCH  10  11
HETATM   11  C           1     -24.184  -7.488 -19.724  0.00  0.00     0.027 C 
BRANCH  11  12
HETATM   12  C           1     -24.108  -8.123 -21.106  0.00  0.00     0.229 C 
BRANCH  12  13
HETATM   13  N           1     -22.892  -8.997 -21.190  0.00  0.00    -0.079 N 
HETATM   14  H           1     -23.114  -9.849 -21.751  0.00  0.00     0.274 HD
HETATM   15  H           1     -22.599  -9.278 -20.228  0.00  0.00     0.274 HD
HETATM   16  H           1     -22.116  -8.469 -21.650  0.00  0.00     0.274 HD
ENDBRANCH  12  13
ENDBRANCH  11  12
ENDBRANCH  10  11
ENDBRANCH   9  10
ENDBRANCH   5   9
ENDBRANCH   4   5
BRANCH   3  17
HETATM   17  C           1     -28.190  -5.609 -16.505  0.00  0.00     0.274 C 
BRANCH  17  18
HETATM   18  N           1     -29.548  -5.366 -15.918  0.00  0.00    -0.067 N 
HETATM   19  H           1     -30.262  -5.905 -16.457  0.00  0.00     0.275 HD
HETATM   20  H           1     -29.557  -5.676 -14.920  0.00  0.00     0.275 HD
HETATM   21  H           1     -29.771  -4.345 -15.968  0.00  0.00     0.275 HD
ENDBRANCH  17  18
BRANCH  17  22
HETATM   22  C           1     -27.578  -6.852 -15.874  0.00  0.00     0.045 C 
BRANCH  22  23
HETATM   23 Se           1     -25.639  -6.662 -15.811  0.00  0.00     0.000 Se
HETATM   24  H           1     -25.374  -8.067 -16.160  0.00  0.00     0.000 HD
ENDBRANCH  22  23
ENDBRANCH  17  22
ENDBRANCH   3  17
TORSDOF 11
ENDMDL
MODEL 9
REMARK VINA RESULT:      -4.3     13.718     14.957
REMARK  11 active torsions:
REMARK  status: ('A' for Active; 'I' for Inactive)
REMARK    1  A    between atoms: N_6  and  C_9 
REMARK    2  A    between atoms: Se_7  and  C_8 
REMARK    3  A    between atoms: C_8  and  C_9 
REMARK    4  A    between atoms: C_9  and  C_10 
REMARK       I    between atoms: C_10  and  N_11 
REMARK    5  A    between atoms: N_11  and  C_15 
REMARK    6  A    between atoms: C_14  and  C_15 
REMARK    7  A    between atoms: C_15  and  C_16 
REMARK    8  A    between atoms: C_16  and  C_17 
REMARK    9  A    between atoms: C_17  and  C_18 
REMARK   10  A    between atoms: C_18  and  C_19 
REMARK   11  A    between atoms: C_19  and  N_20 
ROOT
HETATM    1  H           1     -21.886  -9.130  -3.801  0.00  0.00     0.163 HD
HETATM    2  O           1     -19.448  -8.301  -5.592  0.00  0.00    -0.271 OA
HETATM    3  C           1     -20.246  -9.035  -5.060  0.00  0.00     0.249 C 
HETATM    4  N           1     -21.218  -8.515  -4.247  0.00  0.00    -0.345 N 
ENDROOT
BRANCH   4   5
HETATM    5  C           1     -21.290  -7.084  -4.026  0.00  0.00     0.185 C 
BRANCH   5   6
HETATM    6  C           1     -21.538  -6.814  -2.562  0.00  0.00     0.196 C 
HETATM    7  O           1     -20.944  -7.487  -1.693  0.00  0.00    -0.646 OA
HETATM    8  O           1     -22.339  -5.917  -2.220  0.00  0.00    -0.646 OA
ENDBRANCH   5   6
BRANCH   5   9
HETATM    9  C           1     -22.429  -6.500  -4.851  0.00  0.00     0.036 C 
BRANCH   9  10
HETATM   10  C           1     -21.858  -5.677  -5.998  0.00  0.00     0.004 C 
BRANCH  10  11
HETATM   11  C           1     -20.590  -4.971  -5.536  0.00  0.00     0.027 C 
BRANCH  11  12
HETATM   12  C           1     -19.587  -4.926  -6.680  0.00  0.00     0.229 C 
BRANCH  12  13
HETATM   13  N           1     -19.861  -6.053  -7.631  0.00  0.00    -0.079 N 
HETATM   14  H           1     -19.767  -6.964  -7.128  0.00  0.00     0.274 HD
HETATM   15  H           1     -19.176  -6.016  -8.420  0.00  0.00     0.274 HD
HETATM   16  H           1     -20.831  -5.963  -8.008  0.00  0.00     0.274 HD
ENDBRANCH  12  13
ENDBRANCH  11  12
ENDBRANCH  10  11
ENDBRANCH   9  10
ENDBRANCH   5   9
ENDBRANCH   4   5
BRANCH   3  17
HETATM   17  C           1     -20.172 -10.524  -5.291  0.00  0.00     0.274 C 
BRANCH  17  18
HETATM   18  N           1     -21.111 -10.906  -6.395  0.00  0.00    -0.067 N 
HETATM   19  H           1     -21.581 -10.049  -6.765  0.00  0.00     0.275 HD
HETATM   20  H           1     -20.576 -11.370  -7.163  0.00  0.00     0.275 HD
HETATM   21  H           1     -21.833 -11.566  -6.025  0.00  0.00     0.275 HD
ENDBRANCH  17  18
BRANCH  17  22
HETATM   22  C           1     -18.750 -10.908  -5.677  0.00  0.00     0.045 C 
BRANCH  22  23
HETATM   23 Se           1     -18.799 -12.170  -7.162  0.00  0.00     0.000 Se
HETATM   24  H           1     -19.516 -13.210  -6.406  0.00  0.00     0.000 HD
ENDBRANCH  22  23
ENDBRANCH  17  22
ENDBRANCH   3  17
TORSDOF 11
ENDMDL
