MODEL 1
REMARK VINA RESULT:      -6.2      0.000      0.000
REMARK  8 active torsions:
REMARK  status: ('A' for Active; 'I' for Inactive)
REMARK    1  A    between atoms: C_1  and  C_15 
REMARK    2  A    between atoms: C_1  and  O_16 
REMARK    3  A    between atoms: C_3  and  C_4 
REMARK    4  A    between atoms: C_4  and  C_5 
REMARK    5  A    between atoms: C_5  and  C_20 
REMARK    6  A    between atoms: C_5  and  N_17 
REMARK    7  A    between atoms: N_9  and  C_15 
REMARK    8  A    between atoms: C_15  and  C_22 
REMARK       I    between atoms: N_17  and  C_22 
ROOT
HETATM    1  C           1     -36.398  -0.653 -12.425  0.00  0.00     0.191 C 
ENDROOT
BRANCH   1   2
HETATM    2  C           1     -34.880  -0.583 -12.344  0.00  0.00     0.094 C 
BRANCH   2   3
HETATM    3  C           1     -34.330  -1.951 -12.084  0.00  0.00     0.028 A 
HETATM    4  C           1     -33.761  -2.353 -10.899  0.00  0.00     0.114 A 
HETATM    5  N           1     -33.401  -3.657 -11.103  0.00  0.00    -0.360 N 
HETATM    6  C           1     -33.760  -3.987 -12.378  0.00  0.00     0.180 A 
HETATM    7  H           1     -32.934  -4.288 -10.405  0.00  0.00     0.166 HD
HETATM    8  N           1     -34.324  -2.975 -12.997  0.00  0.00    -0.354 N 
ATOM      9  HN          1     -34.681  -2.955 -13.952  1.00  0.00     0.166 HD
ENDBRANCH   2   3
ENDBRANCH   1   2
BRANCH   1  10
HETATM   10  C           1     -36.994  -0.238 -11.102  0.00  0.00     0.197 C 
HETATM   11  O           1     -36.406   0.603 -10.389  0.00  0.00    -0.646 OA
HETATM   12  O           1     -38.075  -0.737 -10.720  0.00  0.00    -0.646 OA
ENDBRANCH   1  10
BRANCH   1  13
HETATM   13  N           1     -36.868   0.240 -13.467  0.00  0.00    -0.344 N 
HETATM   14  H           1     -37.103   1.199 -13.243  0.00  0.00     0.163 HD
HETATM   15  C           1     -36.993  -0.214 -14.752  0.00  0.00     0.251 C 
HETATM   16  O           1     -38.034  -0.701 -15.123  0.00  0.00    -0.271 OA
BRANCH  15  17
HETATM   17  C           1     -35.829  -0.104 -15.708  0.00  0.00     0.297 C 
BRANCH  17  18
HETATM   18  C           1     -35.454   1.362 -15.885  0.00  0.00     0.206 C 
BRANCH  18  19
HETATM   19  O           1     -36.608   2.113 -16.149  0.00  0.00    -0.398 OA
HETATM   20  H           1     -37.319   1.691 -15.698  0.00  0.00     0.209 HD
ENDBRANCH  18  19
ENDBRANCH  17  18
BRANCH  17  21
HETATM   21  N           1     -36.218  -0.682 -17.036  0.00  0.00    -0.064 N 
HETATM   22  H           1     -35.420  -0.589 -17.704  0.00  0.00     0.275 HD
HETATM   23  H           1     -36.457  -1.693 -16.918  0.00  0.00     0.275 HD
HETATM   24  H           1     -37.047  -0.169 -17.411  0.00  0.00     0.275 HD
ENDBRANCH  17  21
ENDBRANCH  15  17
ENDBRANCH   1  13
TORSDOF 8
ENDMDL
MODEL 2
REMARK VINA RESULT:      -6.1      1.714      2.078
REMARK  8 active torsions:
REMARK  status: ('A' for Active; 'I' for Inactive)
REMARK    1  A    between atoms: C_1  and  C_15 
REMARK    2  A    between atoms: C_1  and  O_16 
REMARK    3  A    between atoms: C_3  and  C_4 
REMARK    4  A    between atoms: C_4  and  C_5 
REMARK    5  A    between atoms: C_5  and  C_20 
REMARK    6  A    between atoms: C_5  and  N_17 
REMARK    7  A    between atoms: N_9  and  C_15 
REMARK    8  A    between atoms: C_15  and  C_22 
REMARK       I    between atoms: N_17  and  C_22 
ROOT
HETATM    1  C           1     -35.470  -1.474 -12.398  0.00  0.00     0.191 C 
ENDROOT
BRANCH   1   2
HETATM    2  C           1     -34.464  -1.879 -11.331  0.00  0.00     0.094 C 
BRANCH   2   3
HETATM    3  C           1     -34.162  -3.340 -11.457  0.00  0.00     0.028 A 
HETATM    4  C           1     -32.916  -3.861 -11.714  0.00  0.00     0.114 A 
HETATM    5  N           1     -33.098  -5.216 -11.747  0.00  0.00    -0.360 N 
HETATM    6  C           1     -34.421  -5.458 -11.512  0.00  0.00     0.180 A 
HETATM    7  H           1     -32.355  -5.938 -11.920  0.00  0.00     0.166 HD
HETATM    8  N           1     -35.090  -4.342 -11.334  0.00  0.00    -0.354 N 
ATOM      9  HN          1     -36.087  -4.241 -11.144  1.00  0.00     0.166 HD
ENDBRANCH   2   3
ENDBRANCH   1   2
BRANCH   1  10
HETATM   10  C           1     -36.425  -0.453 -11.829  0.00  0.00     0.197 C 
HETATM   11  O           1     -36.026   0.368 -10.976  0.00  0.00    -0.646 OA
HETATM   12  O           1     -37.615  -0.430 -12.212  0.00  0.00    -0.646 OA
ENDBRANCH   1  10
BRANCH   1  13
HETATM   13  N           1     -34.769  -0.900 -13.531  0.00  0.00    -0.344 N 
HETATM   14  H           1     -33.943  -1.355 -13.898  0.00  0.00     0.163 HD
HETATM   15  C           1     -35.226   0.256 -14.104  0.00  0.00     0.251 C 
HETATM   16  O           1     -34.830   1.325 -13.705  0.00  0.00    -0.271 OA
BRANCH  15  17
HETATM   17  C           1     -36.223   0.195 -15.235  0.00  0.00     0.297 C 
BRANCH  17  18
HETATM   18  C           1     -35.756  -0.820 -16.271  0.00  0.00     0.206 C 
BRANCH  18  19
HETATM   19  O           1     -36.598  -0.767 -17.391  0.00  0.00    -0.398 OA
HETATM   20  H           1     -36.724   0.143 -17.597  0.00  0.00     0.209 HD
ENDBRANCH  18  19
ENDBRANCH  17  18
BRANCH  17  21
HETATM   21  N           1     -36.334   1.547 -15.876  0.00  0.00    -0.064 N 
HETATM   22  H           1     -36.269   1.447 -16.914  0.00  0.00     0.275 HD
HETATM   23  H           1     -37.253   1.976 -15.625  0.00  0.00     0.275 HD
HETATM   24  H           1     -35.558   2.159 -15.536  0.00  0.00     0.275 HD
ENDBRANCH  17  21
ENDBRANCH  15  17
ENDBRANCH   1  13
TORSDOF 8
ENDMDL
MODEL 3
REMARK VINA RESULT:      -6.0      9.151     10.638
REMARK  8 active torsions:
REMARK  status: ('A' for Active; 'I' for Inactive)
REMARK    1  A    between atoms: C_1  and  C_15 
REMARK    2  A    between atoms: C_1  and  O_16 
REMARK    3  A    between atoms: C_3  and  C_4 
REMARK    4  A    between atoms: C_4  and  C_5 
REMARK    5  A    between atoms: C_5  and  C_20 
REMARK    6  A    between atoms: C_5  and  N_17 
REMARK    7  A    between atoms: N_9  and  C_15 
REMARK    8  A    between atoms: C_15  and  C_22 
REMARK       I    between atoms: N_17  and  C_22 
ROOT
HETATM    1  C           1     -28.262  -6.504 -18.354  0.00  0.00     0.191 C 
ENDROOT
BRANCH   1   2
HETATM    2  C           1     -27.383  -6.232 -17.142  0.00  0.00     0.094 C 
BRANCH   2   3
HETATM    3  C           1     -25.979  -6.662 -17.437  0.00  0.00     0.028 A 
HETATM    4  C           1     -25.044  -6.984 -16.482  0.00  0.00     0.114 A 
HETATM    5  N           1     -23.918  -7.313 -17.185  0.00  0.00    -0.360 N 
HETATM    6  C           1     -24.210  -7.180 -18.513  0.00  0.00     0.180 A 
HETATM    7  H           1     -22.997  -7.613 -16.779  0.00  0.00     0.166 HD
HETATM    8  N           1     -25.450  -6.787 -18.696  0.00  0.00    -0.354 N 
ATOM      9  HN          1     -25.918  -6.612 -19.584  1.00  0.00     0.166 HD
ENDBRANCH   2   3
ENDBRANCH   1   2
BRANCH   1  10
HETATM   10  C           1     -29.180  -7.666 -18.060  0.00  0.00     0.197 C 
HETATM   11  O           1     -29.738  -8.274 -18.999  0.00  0.00    -0.646 OA
HETATM   12  O           1     -29.383  -8.018 -16.878  0.00  0.00    -0.646 OA
ENDBRANCH   1  10
BRANCH   1  13
HETATM   13  N           1     -29.054  -5.326 -18.651  0.00  0.00    -0.344 N 
HETATM   14  H           1     -29.221  -5.057 -19.613  0.00  0.00     0.163 HD
HETATM   15  C           1     -29.578  -4.579 -17.630  0.00  0.00     0.251 C 
HETATM   16  O           1     -28.943  -3.662 -17.166  0.00  0.00    -0.271 OA
BRANCH  15  17
HETATM   17  C           1     -30.949  -4.900 -17.087  0.00  0.00     0.297 C 
BRANCH  17  18
HETATM   18  C           1     -31.859  -3.690 -17.256  0.00  0.00     0.206 C 
BRANCH  18  19
HETATM   19  O           1     -31.374  -2.880 -18.294  0.00  0.00    -0.398 OA
HETATM   20  H           1     -30.873  -3.437 -18.865  0.00  0.00     0.209 HD
ENDBRANCH  18  19
ENDBRANCH  17  18
BRANCH  17  21
HETATM   21  N           1     -30.840  -5.242 -15.630  0.00  0.00    -0.064 N 
HETATM   22  H           1     -29.864  -5.063 -15.302  0.00  0.00     0.275 HD
HETATM   23  H           1     -31.506  -4.650 -15.084  0.00  0.00     0.275 HD
HETATM   24  H           1     -31.075  -6.250 -15.491  0.00  0.00     0.275 HD
ENDBRANCH  17  21
ENDBRANCH  15  17
ENDBRANCH   1  13
TORSDOF 8
ENDMDL
MODEL 4
REMARK VINA RESULT:      -6.0     10.941     12.380
REMARK  8 active torsions:
REMARK  status: ('A' for Active; 'I' for Inactive)
REMARK    1  A    between atoms: C_1  and  C_15 
REMARK    2  A    between atoms: C_1  and  O_16 
REMARK    3  A    between atoms: C_3  and  C_4 
REMARK    4  A    between atoms: C_4  and  C_5 
REMARK    5  A    between atoms: C_5  and  C_20 
REMARK    6  A    between atoms: C_5  and  N_17 
REMARK    7  A    between atoms: N_9  and  C_15 
REMARK    8  A    between atoms: C_15  and  C_22 
REMARK       I    between atoms: N_17  and  C_22 
ROOT
HETATM    1  C           1     -26.351  -6.236 -17.360  0.00  0.00     0.191 C 
ENDROOT
BRANCH   1   2
HETATM    2  C           1     -27.849  -6.413 -17.565  0.00  0.00     0.094 C 
BRANCH   2   3
HETATM    3  C           1     -28.511  -5.071 -17.597  0.00  0.00     0.028 A 
HETATM    4  C           1     -29.618  -4.763 -18.351  0.00  0.00     0.114 A 
HETATM    5  N           1     -29.878  -3.447 -18.081  0.00  0.00    -0.360 N 
HETATM    6  C           1     -28.935  -3.019 -17.190  0.00  0.00     0.180 A 
HETATM    7  H           1     -30.659  -2.873 -18.484  0.00  0.00     0.166 HD
HETATM    8  N           1     -28.095  -3.978 -16.879  0.00  0.00    -0.354 N 
ATOM      9  HN          1     -27.301  -3.923 -16.241  1.00  0.00     0.166 HD
ENDBRANCH   2   3
ENDBRANCH   1   2
BRANCH   1  10
HETATM   10  C           1     -26.004  -6.505 -15.916  0.00  0.00     0.197 C 
HETATM   11  O           1     -26.609  -7.397 -15.284  0.00  0.00    -0.646 OA
HETATM   12  O           1     -25.112  -5.834 -15.353  0.00  0.00    -0.646 OA
ENDBRANCH   1  10
BRANCH   1  13
HETATM   13  N           1     -25.634  -7.168 -18.210  0.00  0.00    -0.344 N 
HETATM   14  H           1     -25.623  -8.155 -17.982  0.00  0.00     0.163 HD
HETATM   15  C           1     -24.975  -6.714 -19.320  0.00  0.00     0.251 C 
HETATM   16  O           1     -23.820  -6.371 -19.239  0.00  0.00    -0.271 OA
BRANCH  15  17
HETATM   17  C           1     -25.691  -6.642 -20.647  0.00  0.00     0.297 C 
BRANCH  17  18
HETATM   18  C           1     -25.920  -8.052 -21.177  0.00  0.00     0.206 C 
BRANCH  18  19
HETATM   19  O           1     -27.181  -8.508 -20.768  0.00  0.00    -0.398 OA
HETATM   20  H           1     -27.821  -7.956 -21.185  0.00  0.00     0.209 HD
ENDBRANCH  18  19
ENDBRANCH  17  18
BRANCH  17  21
HETATM   21  N           1     -24.855  -5.871 -21.624  0.00  0.00    -0.064 N 
HETATM   22  H           1     -24.979  -6.272 -22.582  0.00  0.00     0.275 HD
HETATM   23  H           1     -25.155  -4.870 -21.624  0.00  0.00     0.275 HD
HETATM   24  H           1     -23.849  -5.934 -21.349  0.00  0.00     0.275 HD
ENDBRANCH  17  21
ENDBRANCH  15  17
ENDBRANCH   1  13
TORSDOF 8
ENDMDL
MODEL 5
REMARK VINA RESULT:      -5.8      9.682     10.947
REMARK  8 active torsions:
REMARK  status: ('A' for Active; 'I' for Inactive)
REMARK    1  A    between atoms: C_1  and  C_15 
REMARK    2  A    between atoms: C_1  and  O_16 
REMARK    3  A    between atoms: C_3  and  C_4 
REMARK    4  A    between atoms: C_4  and  C_5 
REMARK    5  A    between atoms: C_5  and  C_20 
REMARK    6  A    between atoms: C_5  and  N_17 
REMARK    7  A    between atoms: N_9  and  C_15 
REMARK    8  A    between atoms: C_15  and  C_22 
REMARK       I    between atoms: N_17  and  C_22 
ROOT
HETATM    1  C           1     -27.729  -6.328 -17.070  0.00  0.00     0.191 C 
ENDROOT
BRANCH   1   2
HETATM    2  C           1     -27.375  -5.606 -18.362  0.00  0.00     0.094 C 
BRANCH   2   3
HETATM    3  C           1     -26.610  -6.531 -19.257  0.00  0.00     0.028 A 
HETATM    4  C           1     -27.165  -7.274 -20.271  0.00  0.00     0.114 A 
HETATM    5  N           1     -26.119  -7.966 -20.819  0.00  0.00    -0.360 N 
HETATM    6  C           1     -24.993  -7.619 -20.128  0.00  0.00     0.180 A 
HETATM    7  H           1     -26.173  -8.639 -21.623  0.00  0.00     0.166 HD
HETATM    8  N           1     -25.259  -6.753 -19.177  0.00  0.00    -0.354 N 
ATOM      9  HN          1     -24.601  -6.335 -18.519  1.00  0.00     0.166 HD
ENDBRANCH   2   3
ENDBRANCH   1   2
BRANCH   1  10
HETATM   10  C           1     -26.496  -6.454 -16.209  0.00  0.00     0.197 C 
HETATM   11  O           1     -25.627  -5.556 -16.226  0.00  0.00    -0.646 OA
HETATM   12  O           1     -26.344  -7.458 -15.479  0.00  0.00    -0.646 OA
ENDBRANCH   1  10
BRANCH   1  13
HETATM   13  N           1     -28.740  -5.572 -16.355  0.00  0.00    -0.344 N 
HETATM   14  H           1     -28.586  -5.306 -15.391  0.00  0.00     0.163 HD
HETATM   15  C           1     -29.902  -5.217 -16.987  0.00  0.00     0.251 C 
HETATM   16  O           1     -30.860  -5.952 -16.948  0.00  0.00    -0.271 OA
BRANCH  15  17
HETATM   17  C           1     -29.987  -3.906 -17.729  0.00  0.00     0.297 C 
BRANCH  17  18
HETATM   18  C           1     -28.980  -2.924 -17.145  0.00  0.00     0.206 C 
BRANCH  18  19
HETATM   19  O           1     -29.401  -1.611 -17.403  0.00  0.00    -0.398 OA
HETATM   20  H           1     -29.639  -1.574 -18.314  0.00  0.00     0.209 HD
ENDBRANCH  18  19
ENDBRANCH  17  18
BRANCH  17  21
HETATM   21  N           1     -31.371  -3.343 -17.589  0.00  0.00    -0.064 N 
HETATM   22  H           1     -31.787  -3.202 -18.538  0.00  0.00     0.275 HD
HETATM   23  H           1     -31.964  -4.009 -17.044  0.00  0.00     0.275 HD
HETATM   24  H           1     -31.326  -2.426 -17.090  0.00  0.00     0.275 HD
ENDBRANCH  17  21
ENDBRANCH  15  17
ENDBRANCH   1  13
TORSDOF 8
ENDMDL
MODEL 6
REMARK VINA RESULT:      -5.8      2.860      5.566
REMARK  8 active torsions:
REMARK  status: ('A' for Active; 'I' for Inactive)
REMARK    1  A    between atoms: C_1  and  C_15 
REMARK    2  A    between atoms: C_1  and  O_16 
REMARK    3  A    between atoms: C_3  and  C_4 
REMARK    4  A    between atoms: C_4  and  C_5 
REMARK    5  A    between atoms: C_5  and  C_20 
REMARK    6  A    between atoms: C_5  and  N_17 
REMARK    7  A    between atoms: N_9  and  C_15 
REMARK    8  A    between atoms: C_15  and  C_22 
REMARK       I    between atoms: N_17  and  C_22 
ROOT
HETATM    1  C           1     -34.596  -1.623 -11.421  0.00  0.00     0.191 C 
ENDROOT
BRANCH   1   2
HETATM    2  C           1     -34.908  -1.970 -12.870  0.00  0.00     0.094 C 
BRANCH   2   3
HETATM    3  C           1     -35.323  -0.732 -13.602  0.00  0.00     0.028 A 
HETATM    4  C           1     -36.596  -0.482 -14.055  0.00  0.00     0.114 A 
HETATM    5  N           1     -36.524   0.744 -14.658  0.00  0.00    -0.360 N 
HETATM    6  C           1     -35.233   1.179 -14.549  0.00  0.00     0.180 A 
HETATM    7  H           1     -37.315   1.257 -15.121  0.00  0.00     0.166 HD
HETATM    8  N           1     -34.484   0.307 -13.915  0.00  0.00    -0.354 N 
ATOM      9  HN          1     -33.490   0.385 -13.701  1.00  0.00     0.166 HD
ENDBRANCH   2   3
ENDBRANCH   1   2
BRANCH   1  10
HETATM   10  C           1     -35.880  -1.310 -10.690  0.00  0.00     0.197 C 
HETATM   11  O           1     -36.035  -0.193 -10.152  0.00  0.00    -0.646 OA
HETATM   12  O           1     -36.786  -2.169 -10.623  0.00  0.00    -0.646 OA
ENDBRANCH   1  10
BRANCH   1  13
HETATM   13  N           1     -33.941  -2.749 -10.784  0.00  0.00    -0.344 N 
HETATM   14  H           1     -33.647  -2.683  -9.817  0.00  0.00     0.163 HD
HETATM   15  C           1     -33.721  -3.901 -11.490  0.00  0.00     0.251 C 
HETATM   16  O           1     -32.693  -4.043 -12.108  0.00  0.00    -0.271 OA
BRANCH  15  17
HETATM   17  C           1     -34.761  -4.995 -11.493  0.00  0.00     0.297 C 
BRANCH  17  18
HETATM   18  C           1     -34.408  -6.035 -10.438  0.00  0.00     0.206 C 
BRANCH  18  19
HETATM   19  O           1     -33.322  -6.803 -10.882  0.00  0.00    -0.398 OA
HETATM   20  H           1     -33.651  -7.387 -11.544  0.00  0.00     0.209 HD
ENDBRANCH  18  19
ENDBRANCH  17  18
BRANCH  17  21
HETATM   21  N           1     -34.795  -5.646 -12.844  0.00  0.00    -0.064 N 
HETATM   22  H           1     -35.301  -6.558 -12.779  0.00  0.00     0.275 HD
HETATM   23  H           1     -35.291  -5.020 -13.519  0.00  0.00     0.275 HD
HETATM   24  H           1     -33.819  -5.812 -13.176  0.00  0.00     0.275 HD
ENDBRANCH  17  21
ENDBRANCH  15  17
ENDBRANCH   1  13
TORSDOF 8
ENDMDL
MODEL 7
REMARK VINA RESULT:      -5.8      1.765      4.785
REMARK  8 active torsions:
REMARK  status: ('A' for Active; 'I' for Inactive)
REMARK    1  A    between atoms: C_1  and  C_15 
REMARK    2  A    between atoms: C_1  and  O_16 
REMARK    3  A    between atoms: C_3  and  C_4 
REMARK    4  A    between atoms: C_4  and  C_5 
REMARK    5  A    between atoms: C_5  and  C_20 
REMARK    6  A    between atoms: C_5  and  N_17 
REMARK    7  A    between atoms: N_9  and  C_15 
REMARK    8  A    between atoms: C_15  and  C_22 
REMARK       I    between atoms: N_17  and  C_22 
ROOT
HETATM    1  C           1     -35.187  -0.149 -12.389  0.00  0.00     0.191 C 
ENDROOT
BRANCH   1   2
HETATM    2  C           1     -35.147   0.795 -13.582  0.00  0.00     0.094 C 
BRANCH   2   3
HETATM    3  C           1     -36.040   0.272 -14.663  0.00  0.00     0.028 A 
HETATM    4  C           1     -35.608  -0.428 -15.764  0.00  0.00     0.114 A 
HETATM    5  N           1     -36.741  -0.704 -16.478  0.00  0.00    -0.360 N 
HETATM    6  C           1     -37.796  -0.170 -15.794  0.00  0.00     0.180 A 
HETATM    7  H           1     -36.792  -1.230 -17.385  0.00  0.00     0.166 HD
HETATM    8  N           1     -37.403   0.427 -14.692  0.00  0.00    -0.354 N 
ATOM      9  HN          1     -37.986   0.905 -14.005  1.00  0.00     0.166 HD
ENDBRANCH   2   3
ENDBRANCH   1   2
BRANCH   1  10
HETATM   10  C           1     -36.363   0.201 -11.508  0.00  0.00     0.197 C 
HETATM   11  O           1     -36.172   0.744 -10.399  0.00  0.00    -0.646 OA
HETATM   12  O           1     -37.526  -0.054 -11.890  0.00  0.00    -0.646 OA
ENDBRANCH   1  10
BRANCH   1  13
HETATM   13  N           1     -35.325  -1.515 -12.857  0.00  0.00    -0.344 N 
HETATM   14  H           1     -35.593  -1.696 -13.817  0.00  0.00     0.163 HD
HETATM   15  C           1     -35.091  -2.558 -12.003  0.00  0.00     0.251 C 
HETATM   16  O           1     -35.995  -3.015 -11.345  0.00  0.00    -0.271 OA
BRANCH  15  17
HETATM   17  C           1     -33.703  -3.140 -11.884  0.00  0.00     0.297 C 
BRANCH  17  18
HETATM   18  C           1     -33.464  -4.122 -13.023  0.00  0.00     0.206 C 
BRANCH  18  19
HETATM   19  O           1     -34.336  -3.831 -14.083  0.00  0.00    -0.398 OA
HETATM   20  H           1     -34.441  -2.896 -14.103  0.00  0.00     0.209 HD
ENDBRANCH  18  19
ENDBRANCH  17  18
BRANCH  17  21
HETATM   21  N           1     -33.574  -3.856 -10.573  0.00  0.00    -0.064 N 
HETATM   22  H           1     -32.958  -3.305  -9.933  0.00  0.00     0.275 HD
HETATM   23  H           1     -34.519  -3.963 -10.139  0.00  0.00     0.275 HD
HETATM   24  H           1     -33.154  -4.800 -10.731  0.00  0.00     0.275 HD
ENDBRANCH  17  21
ENDBRANCH  15  17
ENDBRANCH   1  13
TORSDOF 8
ENDMDL
MODEL 8
REMARK VINA RESULT:      -5.7     10.982     12.475
REMARK  8 active torsions:
REMARK  status: ('A' for Active; 'I' for Inactive)
REMARK    1  A    between atoms: C_1  and  C_15 
REMARK    2  A    between atoms: C_1  and  O_16 
REMARK    3  A    between atoms: C_3  and  C_4 
REMARK    4  A    between atoms: C_4  and  C_5 
REMARK    5  A    between atoms: C_5  and  C_20 
REMARK    6  A    between atoms: C_5  and  N_17 
REMARK    7  A    between atoms: N_9  and  C_15 
REMARK    8  A    between atoms: C_15  and  C_22 
REMARK       I    between atoms: N_17  and  C_22 
ROOT
HETATM    1  C           1     -26.120  -6.735 -17.248  0.00  0.00     0.191 C 
ENDROOT
BRANCH   1   2
HETATM    2  C           1     -25.250  -6.249 -18.398  0.00  0.00     0.094 C 
BRANCH   2   3
HETATM    3  C           1     -25.484  -7.111 -19.600  0.00  0.00     0.028 A 
HETATM    4  C           1     -24.489  -7.699 -20.345  0.00  0.00     0.114 A 
HETATM    5  N           1     -25.143  -8.384 -21.332  0.00  0.00    -0.360 N 
HETATM    6  C           1     -26.482  -8.187 -21.149  0.00  0.00     0.180 A 
HETATM    7  H           1     -24.697  -8.956 -22.091  0.00  0.00     0.166 HD
HETATM    8  N           1     -26.719  -7.420 -20.109  0.00  0.00    -0.354 N 
ATOM      9  HN          1     -27.627  -7.120 -19.756  1.00  0.00     0.166 HD
ENDBRANCH   2   3
ENDBRANCH   1   2
BRANCH   1  10
HETATM   10  C           1     -25.244  -7.114 -16.078  0.00  0.00     0.197 C 
HETATM   11  O           1     -25.255  -6.420 -15.039  0.00  0.00    -0.646 OA
HETATM   12  O           1     -24.507  -8.122 -16.151  0.00  0.00    -0.646 OA
ENDBRANCH   1  10
BRANCH   1  13
HETATM   13  N           1     -27.028  -5.677 -16.847  0.00  0.00    -0.344 N 
HETATM   14  H           1     -26.700  -4.720 -16.798  0.00  0.00     0.163 HD
HETATM   15  C           1     -28.328  -5.972 -16.538  0.00  0.00     0.251 C 
HETATM   16  O           1     -28.631  -6.246 -15.401  0.00  0.00    -0.271 OA
BRANCH  15  17
HETATM   17  C           1     -29.384  -5.952 -17.617  0.00  0.00     0.297 C 
BRANCH  17  18
HETATM   18  C           1     -29.622  -7.370 -18.121  0.00  0.00     0.206 C 
BRANCH  18  19
HETATM   19  O           1     -29.181  -8.289 -17.158  0.00  0.00    -0.398 OA
HETATM   20  H           1     -28.285  -8.075 -16.965  0.00  0.00     0.209 HD
ENDBRANCH  18  19
ENDBRANCH  17  18
BRANCH  17  21
HETATM   21  N           1     -28.919  -5.090 -18.753  0.00  0.00    -0.064 N 
HETATM   22  H           1     -29.452  -4.191 -18.749  0.00  0.00     0.275 HD
HETATM   23  H           1     -27.899  -4.891 -18.644  0.00  0.00     0.275 HD
HETATM   24  H           1     -29.083  -5.587 -19.658  0.00  0.00     0.275 HD
ENDBRANCH  17  21
ENDBRANCH  15  17
ENDBRANCH   1  13
TORSDOF 8
ENDMDL
MODEL 9
REMARK VINA RESULT:      -5.6      2.421      4.949
REMARK  8 active torsions:
REMARK  status: ('A' for Active; 'I' for Inactive)
REMARK    1  A    between atoms: C_1  and  C_15 
REMARK    2  A    between atoms: C_1  and  O_16 
REMARK    3  A    between atoms: C_3  and  C_4 
REMARK    4  A    between atoms: C_4  and  C_5 
REMARK    5  A    between atoms: C_5  and  C_20 
REMARK    6  A    between atoms: C_5  and  N_17 
REMARK    7  A    between atoms: N_9  and  C_15 
REMARK    8  A    between atoms: C_15  and  C_22 
REMARK       I    between atoms: N_17  and  C_22 
ROOT
HETATM    1  C           1     -36.220  -0.095 -10.981  0.00  0.00     0.191 C 
ENDROOT
BRANCH   1   2
HETATM    2  C           1     -37.226  -0.456 -12.064  0.00  0.00     0.094 C 
BRANCH   2   3
HETATM    3  C           1     -36.722   0.016 -13.392  0.00  0.00     0.028 A 
HETATM    4  C           1     -37.471   0.054 -14.544  0.00  0.00     0.114 A 
HETATM    5  N           1     -36.626   0.543 -15.502  0.00  0.00    -0.360 N 
HETATM    6  C           1     -35.421   0.778 -14.903  0.00  0.00     0.180 A 
HETATM    7  H           1     -36.861   0.708 -16.512  0.00  0.00     0.166 HD
HETATM    8  N           1     -35.449   0.468 -13.627  0.00  0.00    -0.354 N 
ATOM      9  HN          1     -34.686   0.547 -12.955  1.00  0.00     0.166 HD
ENDBRANCH   2   3
ENDBRANCH   1   2
BRANCH   1  10
HETATM   10  C           1     -36.887   0.775  -9.943  0.00  0.00     0.197 C 
HETATM   11  O           1     -38.074   1.132 -10.097  0.00  0.00    -0.646 OA
HETATM   12  O           1     -36.250   1.137  -8.929  0.00  0.00    -0.646 OA
ENDBRANCH   1  10
BRANCH   1  13
HETATM   13  N           1     -35.729  -1.307 -10.352  0.00  0.00    -0.344 N 
HETATM   14  H           1     -36.147  -1.634  -9.490  0.00  0.00     0.163 HD
HETATM   15  C           1     -34.704  -2.008 -10.927  0.00  0.00     0.251 C 
HETATM   16  O           1     -33.560  -1.756 -10.632  0.00  0.00    -0.271 OA
BRANCH  15  17
HETATM   17  C           1     -35.003  -3.099 -11.926  0.00  0.00     0.297 C 
BRANCH  17  18
HETATM   18  C           1     -34.624  -4.450 -11.333  0.00  0.00     0.206 C 
BRANCH  18  19
HETATM   19  O           1     -34.164  -5.297 -12.352  0.00  0.00    -0.398 OA
HETATM   20  H           1     -33.228  -5.199 -12.388  0.00  0.00     0.209 HD
ENDBRANCH  18  19
ENDBRANCH  17  18
BRANCH  17  21
HETATM   21  N           1     -34.208  -2.862 -13.176  0.00  0.00    -0.064 N 
HETATM   22  H           1     -34.584  -3.459 -13.947  0.00  0.00     0.275 HD
HETATM   23  H           1     -34.280  -1.856 -13.448  0.00  0.00     0.275 HD
HETATM   24  H           1     -33.206  -3.106 -13.003  0.00  0.00     0.275 HD
ENDBRANCH  17  21
ENDBRANCH  15  17
ENDBRANCH   1  13
TORSDOF 8
ENDMDL
