MODEL 1
REMARK VINA RESULT:      -6.9      0.000      0.000
REMARK  8 active torsions:
REMARK  status: ('A' for Active; 'I' for Inactive)
REMARK    1  A    between atoms: C_2  and  S_23 
REMARK    2  A    between atoms: C_2  and  C_12 
REMARK    3  A    between atoms: C_3  and  C_12 
REMARK    4  A    between atoms: N_4  and  C_12 
REMARK       I    between atoms: N_4  and  C_5 
REMARK    5  A    between atoms: C_5  and  C_11 
REMARK    6  A    between atoms: C_11  and  C_22 
REMARK    7  A    between atoms: C_11  and  N_16 
REMARK    8  A    between atoms: C_21  and  C_22 
ROOT
HETATM    1  C           1     -21.177  -5.656  -6.914  0.00  0.00     0.278 C 
ENDROOT
BRANCH   1   2
HETATM    2  C           1     -21.752  -4.502  -7.698  0.00  0.00     0.249 C 
HETATM    3  N           1     -22.297  -4.719  -8.934  0.00  0.00    -0.344 N 
HETATM    4  H           1     -22.315  -5.653  -9.323  0.00  0.00     0.163 HD
HETATM    5  O           1     -21.731  -3.387  -7.234  0.00  0.00    -0.271 OA
BRANCH   3   6
HETATM    6  C           1     -22.850  -3.609  -9.688  0.00  0.00     0.194 C 
BRANCH   6   7
HETATM    7  C           1     -21.991  -3.353 -10.919  0.00  0.00     0.106 C 
BRANCH   7   8
HETATM    8  S           1     -20.474  -4.344 -10.816  0.00  0.00    -0.180 SA
HETATM    9  H           1     -19.755  -3.431 -10.139  0.00  0.00     0.101 HD
ENDBRANCH   7   8
ENDBRANCH   6   7
BRANCH   6  10
HETATM   10  C           1     -24.257  -3.946 -10.118  0.00  0.00     0.197 C 
HETATM   11  O           1     -24.740  -5.067  -9.851  0.00  0.00    -0.646 OA
HETATM   12  O           1     -24.939  -3.103 -10.739  0.00  0.00    -0.646 OA
ENDBRANCH   6  10
ENDBRANCH   3   6
ENDBRANCH   1   2
BRANCH   1  13
HETATM   13  C           1     -20.887  -5.208  -5.487  0.00  0.00     0.081 C 
BRANCH  13  14
HETATM   14  C           1     -21.159  -6.337  -4.544  0.00  0.00    -0.056 A 
HETATM   15  C           1     -21.284  -6.089  -3.177  0.00  0.00     0.007 A 
HETATM   16  C           1     -21.538  -7.142  -2.297  0.00  0.00     0.001 A 
HETATM   17  C           1     -21.668  -8.443  -2.785  0.00  0.00     0.000 A 
HETATM   18  C           1     -21.544  -8.690  -4.152  0.00  0.00     0.001 A 
HETATM   19  C           1     -21.290  -7.637  -5.031  0.00  0.00     0.007 A 
ENDBRANCH  13  14
ENDBRANCH   1  13
BRANCH   1  20
HETATM   20  N           1     -19.903  -6.113  -7.561  0.00  0.00    -0.066 N 
HETATM   21  H           1     -19.784  -5.626  -8.478  0.00  0.00     0.275 HD
HETATM   22  H           1     -19.095  -5.887  -6.938  0.00  0.00     0.275 HD
HETATM   23  H           1     -19.943  -7.146  -7.717  0.00  0.00     0.275 HD
ENDBRANCH   1  20
TORSDOF 8
ENDMDL
MODEL 2
REMARK VINA RESULT:      -6.7      3.463      6.955
REMARK  8 active torsions:
REMARK  status: ('A' for Active; 'I' for Inactive)
REMARK    1  A    between atoms: C_2  and  S_23 
REMARK    2  A    between atoms: C_2  and  C_12 
REMARK    3  A    between atoms: C_3  and  C_12 
REMARK    4  A    between atoms: N_4  and  C_12 
REMARK       I    between atoms: N_4  and  C_5 
REMARK    5  A    between atoms: C_5  and  C_11 
REMARK    6  A    between atoms: C_11  and  C_22 
REMARK    7  A    between atoms: C_11  and  N_16 
REMARK    8  A    between atoms: C_21  and  C_22 
ROOT
HETATM    1  C           1     -22.309  -5.179  -6.853  0.00  0.00     0.278 C 
ENDROOT
BRANCH   1   2
HETATM    2  C           1     -21.403  -5.669  -5.751  0.00  0.00     0.249 C 
HETATM    3  N           1     -21.540  -6.942  -5.267  0.00  0.00    -0.344 N 
HETATM    4  H           1     -22.248  -7.555  -5.650  0.00  0.00     0.163 HD
HETATM    5  O           1     -20.557  -4.937  -5.294  0.00  0.00    -0.271 OA
BRANCH   3   6
HETATM    6  C           1     -20.669  -7.413  -4.207  0.00  0.00     0.194 C 
BRANCH   6   7
HETATM    7  C           1     -21.508  -7.822  -3.004  0.00  0.00     0.106 C 
BRANCH   7   8
HETATM    8  S           1     -21.999  -6.340  -2.076  0.00  0.00    -0.180 SA
HETATM    9  H           1     -22.424  -6.996  -0.981  0.00  0.00     0.101 HD
ENDBRANCH   7   8
ENDBRANCH   6   7
BRANCH   6  10
HETATM   10  C           1     -19.879  -8.601  -4.697  0.00  0.00     0.197 C 
HETATM   11  O           1     -18.800  -8.905  -4.145  0.00  0.00    -0.646 OA
HETATM   12  O           1     -20.306  -9.283  -5.654  0.00  0.00    -0.646 OA
ENDBRANCH   6  10
ENDBRANCH   3   6
ENDBRANCH   1   2
BRANCH   1  13
HETATM   13  C           1     -21.728  -3.909  -7.463  0.00  0.00     0.081 C 
BRANCH  13  14
HETATM   14  C           1     -21.680  -4.047  -8.952  0.00  0.00    -0.056 A 
HETATM   15  C           1     -22.858  -4.231  -9.674  0.00  0.00     0.007 A 
HETATM   16  C           1     -22.814  -4.359 -11.063  0.00  0.00     0.001 A 
HETATM   17  C           1     -21.589  -4.303 -11.729  0.00  0.00     0.000 A 
HETATM   18  C           1     -20.411  -4.118 -11.007  0.00  0.00     0.001 A 
HETATM   19  C           1     -20.456  -3.990  -9.619  0.00  0.00     0.007 A 
ENDBRANCH  13  14
ENDBRANCH   1  13
BRANCH   1  20
HETATM   20  N           1     -23.668  -4.885  -6.289  0.00  0.00    -0.066 N 
HETATM   21  H           1     -24.399  -5.306  -6.905  0.00  0.00     0.275 HD
HETATM   22  H           1     -23.742  -5.293  -5.330  0.00  0.00     0.275 HD
HETATM   23  H           1     -23.807  -3.850  -6.239  0.00  0.00     0.275 HD
ENDBRANCH   1  20
TORSDOF 8
ENDMDL
MODEL 3
REMARK VINA RESULT:      -6.5      3.321      6.906
REMARK  8 active torsions:
REMARK  status: ('A' for Active; 'I' for Inactive)
REMARK    1  A    between atoms: C_2  and  S_23 
REMARK    2  A    between atoms: C_2  and  C_12 
REMARK    3  A    between atoms: C_3  and  C_12 
REMARK    4  A    between atoms: N_4  and  C_12 
REMARK       I    between atoms: N_4  and  C_5 
REMARK    5  A    between atoms: C_5  and  C_11 
REMARK    6  A    between atoms: C_11  and  C_22 
REMARK    7  A    between atoms: C_11  and  N_16 
REMARK    8  A    between atoms: C_21  and  C_22 
ROOT
HETATM    1  C           1     -21.017  -5.013  -6.218  0.00  0.00     0.278 C 
ENDROOT
BRANCH   1   2
HETATM    2  C           1     -21.689  -5.986  -5.281  0.00  0.00     0.249 C 
HETATM    3  N           1     -20.932  -6.796  -4.479  0.00  0.00    -0.344 N 
HETATM    4  H           1     -19.922  -6.742  -4.512  0.00  0.00     0.163 HD
HETATM    5  O           1     -22.894  -6.052  -5.240  0.00  0.00    -0.271 OA
BRANCH   3   6
HETATM    6  C           1     -21.577  -7.733  -3.578  0.00  0.00     0.194 C 
BRANCH   6   7
HETATM    7  C           1     -20.877  -9.083  -3.661  0.00  0.00     0.106 C 
BRANCH   7   8
HETATM    8  S           1     -19.391  -8.932  -4.693  0.00  0.00    -0.180 SA
HETATM    9  H           1     -18.596  -9.673  -3.901  0.00  0.00     0.101 HD
ENDBRANCH   7   8
ENDBRANCH   6   7
BRANCH   6  10
HETATM   10  C           1     -21.494  -7.210  -2.166  0.00  0.00     0.197 C 
HETATM   11  O           1     -22.231  -6.267  -1.804  0.00  0.00    -0.646 OA
HETATM   12  O           1     -20.690  -7.720  -1.356  0.00  0.00    -0.646 OA
ENDBRANCH   6  10
ENDBRANCH   3   6
ENDBRANCH   1   2
BRANCH   1  13
HETATM   13  C           1     -20.629  -5.730  -7.504  0.00  0.00     0.081 C 
BRANCH  13  14
HETATM   14  C           1     -21.060  -4.913  -8.681  0.00  0.00    -0.056 A 
HETATM   15  C           1     -22.352  -4.392  -8.733  0.00  0.00     0.007 A 
HETATM   16  C           1     -22.755  -3.630  -9.830  0.00  0.00     0.001 A 
HETATM   17  C           1     -21.863  -3.389 -10.876  0.00  0.00     0.000 A 
HETATM   18  C           1     -20.570  -3.909 -10.824  0.00  0.00     0.001 A 
HETATM   19  C           1     -20.169  -4.671  -9.727  0.00  0.00     0.007 A 
ENDBRANCH  13  14
ENDBRANCH   1  13
BRANCH   1  20
HETATM   20  N           1     -19.786  -4.459  -5.564  0.00  0.00    -0.066 N 
HETATM   21  H           1     -19.519  -5.064  -4.755  0.00  0.00     0.275 HD
HETATM   22  H           1     -19.003  -4.437  -6.257  0.00  0.00     0.275 HD
HETATM   23  H           1     -19.978  -3.488  -5.226  0.00  0.00     0.275 HD
ENDBRANCH   1  20
TORSDOF 8
ENDMDL
MODEL 4
REMARK VINA RESULT:      -6.3      3.553      6.932
REMARK  8 active torsions:
REMARK  status: ('A' for Active; 'I' for Inactive)
REMARK    1  A    between atoms: C_2  and  S_23 
REMARK    2  A    between atoms: C_2  and  C_12 
REMARK    3  A    between atoms: C_3  and  C_12 
REMARK    4  A    between atoms: N_4  and  C_12 
REMARK       I    between atoms: N_4  and  C_5 
REMARK    5  A    between atoms: C_5  and  C_11 
REMARK    6  A    between atoms: C_11  and  C_22 
REMARK    7  A    between atoms: C_11  and  N_16 
REMARK    8  A    between atoms: C_21  and  C_22 
ROOT
HETATM    1  C           1     -21.984  -5.533  -7.003  0.00  0.00     0.278 C 
ENDROOT
BRANCH   1   2
HETATM    2  C           1     -21.110  -6.506  -6.251  0.00  0.00     0.249 C 
HETATM    3  N           1     -21.613  -7.187  -5.175  0.00  0.00    -0.344 N 
HETATM    4  H           1     -22.571  -7.039  -4.886  0.00  0.00     0.163 HD
HETATM    5  O           1     -19.966  -6.682  -6.596  0.00  0.00    -0.271 OA
BRANCH   3   6
HETATM    6  C           1     -20.772  -8.122  -4.451  0.00  0.00     0.194 C 
BRANCH   6   7
HETATM    7  C           1     -20.976  -7.934  -2.954  0.00  0.00     0.106 C 
BRANCH   7   8
HETATM    8  S           1     -21.751  -6.322  -2.645  0.00  0.00    -0.180 SA
HETATM    9  H           1     -21.726  -5.908  -3.924  0.00  0.00     0.101 HD
ENDBRANCH   7   8
ENDBRANCH   6   7
BRANCH   6  10
HETATM   10  C           1     -21.144  -9.533  -4.837  0.00  0.00     0.197 C 
HETATM   11  O           1     -20.758 -10.005  -5.927  0.00  0.00    -0.646 OA
HETATM   12  O           1     -21.837 -10.230  -4.064  0.00  0.00    -0.646 OA
ENDBRANCH   6  10
ENDBRANCH   3   6
ENDBRANCH   1   2
BRANCH   1  13
HETATM   13  C           1     -21.134  -4.377  -7.516  0.00  0.00     0.081 C 
BRANCH  13  14
HETATM   14  C           1     -21.298  -4.257  -8.999  0.00  0.00    -0.056 A 
HETATM   15  C           1     -20.177  -4.094  -9.813  0.00  0.00     0.007 A 
HETATM   16  C           1     -20.329  -3.981 -11.195  0.00  0.00     0.001 A 
HETATM   17  C           1     -21.603  -4.033 -11.763  0.00  0.00     0.000 A 
HETATM   18  C           1     -22.723  -4.197 -10.949  0.00  0.00     0.001 A 
HETATM   19  C           1     -22.570  -4.309  -9.567  0.00  0.00     0.007 A 
ENDBRANCH  13  14
ENDBRANCH   1  13
BRANCH   1  20
HETATM   20  N           1     -23.045  -5.002  -6.085  0.00  0.00    -0.066 N 
HETATM   21  H           1     -22.691  -4.148  -5.600  0.00  0.00     0.275 HD
HETATM   22  H           1     -23.897  -4.760  -6.641  0.00  0.00     0.275 HD
HETATM   23  H           1     -23.289  -5.731  -5.377  0.00  0.00     0.275 HD
ENDBRANCH   1  20
TORSDOF 8
ENDMDL
MODEL 5
REMARK VINA RESULT:      -6.2     12.133     14.476
REMARK  8 active torsions:
REMARK  status: ('A' for Active; 'I' for Inactive)
REMARK    1  A    between atoms: C_2  and  S_23 
REMARK    2  A    between atoms: C_2  and  C_12 
REMARK    3  A    between atoms: C_3  and  C_12 
REMARK    4  A    between atoms: N_4  and  C_12 
REMARK       I    between atoms: N_4  and  C_5 
REMARK    5  A    between atoms: C_5  and  C_11 
REMARK    6  A    between atoms: C_11  and  C_22 
REMARK    7  A    between atoms: C_11  and  N_16 
REMARK    8  A    between atoms: C_21  and  C_22 
ROOT
HETATM    1  C           1     -26.190  -7.618 -20.553  0.00  0.00     0.278 C 
ENDROOT
BRANCH   1   2
HETATM    2  C           1     -27.030  -6.528 -19.936  0.00  0.00     0.249 C 
HETATM    3  N           1     -27.513  -6.673 -18.663  0.00  0.00    -0.344 N 
HETATM    4  H           1     -27.305  -7.511 -18.136  0.00  0.00     0.163 HD
HETATM    5  O           1     -27.279  -5.527 -20.565  0.00  0.00    -0.271 OA
BRANCH   3   6
HETATM    6  C           1     -28.322  -5.625 -18.070  0.00  0.00     0.194 C 
BRANCH   6   7
HETATM    7  C           1     -29.589  -6.231 -17.483  0.00  0.00     0.106 C 
BRANCH   7   8
HETATM    8  S           1     -30.007  -7.751 -18.384  0.00  0.00    -0.180 SA
HETATM    9  H           1     -31.329  -7.517 -18.448  0.00  0.00     0.101 HD
ENDBRANCH   7   8
ENDBRANCH   6   7
BRANCH   6  10
HETATM   10  C           1     -27.537  -4.944 -16.976  0.00  0.00     0.197 C 
HETATM   11  O           1     -27.937  -3.859 -16.502  0.00  0.00    -0.646 OA
HETATM   12  O           1     -26.487  -5.466 -16.542  0.00  0.00    -0.646 OA
ENDBRANCH   6  10
ENDBRANCH   3   6
ENDBRANCH   1   2
BRANCH   1  13
HETATM   13  C           1     -25.310  -7.026 -21.645  0.00  0.00     0.081 C 
BRANCH  13  14
HETATM   14  C           1     -23.998  -7.744 -21.675  0.00  0.00    -0.056 A 
HETATM   15  C           1     -23.252  -7.882 -20.504  0.00  0.00     0.007 A 
HETATM   16  C           1     -22.028  -8.552 -20.530  0.00  0.00     0.001 A 
HETATM   17  C           1     -21.551  -9.084 -21.729  0.00  0.00     0.000 A 
HETATM   18  C           1     -22.297  -8.947 -22.899  0.00  0.00     0.001 A 
HETATM   19  C           1     -23.520  -8.277 -22.872  0.00  0.00     0.007 A 
ENDBRANCH  13  14
ENDBRANCH   1  13
BRANCH   1  20
HETATM   20  N           1     -27.087  -8.664 -21.147  0.00  0.00    -0.066 N 
HETATM   21  H           1     -26.676  -9.005 -22.045  0.00  0.00     0.275 HD
HETATM   22  H           1     -27.179  -9.464 -20.480  0.00  0.00     0.275 HD
HETATM   23  H           1     -28.030  -8.252 -21.328  0.00  0.00     0.275 HD
ENDBRANCH   1  20
TORSDOF 8
ENDMDL
MODEL 6
REMARK VINA RESULT:      -6.1      4.050      7.052
REMARK  8 active torsions:
REMARK  status: ('A' for Active; 'I' for Inactive)
REMARK    1  A    between atoms: C_2  and  S_23 
REMARK    2  A    between atoms: C_2  and  C_12 
REMARK    3  A    between atoms: C_3  and  C_12 
REMARK    4  A    between atoms: N_4  and  C_12 
REMARK       I    between atoms: N_4  and  C_5 
REMARK    5  A    between atoms: C_5  and  C_11 
REMARK    6  A    between atoms: C_11  and  C_22 
REMARK    7  A    between atoms: C_11  and  N_16 
REMARK    8  A    between atoms: C_21  and  C_22 
ROOT
HETATM    1  C           1     -21.551  -6.135  -6.091  0.00  0.00     0.278 C 
ENDROOT
BRANCH   1   2
HETATM    2  C           1     -20.469  -7.158  -5.849  0.00  0.00     0.249 C 
HETATM    3  N           1     -20.593  -8.056  -4.823  0.00  0.00    -0.344 N 
HETATM    4  H           1     -21.411  -8.034  -4.228  0.00  0.00     0.163 HD
HETATM    5  O           1     -19.493  -7.184  -6.560  0.00  0.00    -0.271 OA
BRANCH   3   6
HETATM    6  C           1     -19.552  -9.039  -4.590  0.00  0.00     0.194 C 
BRANCH   6   7
HETATM    7  C           1     -19.191  -9.056  -3.111  0.00  0.00     0.106 C 
BRANCH   7   8
HETATM    8  S           1     -20.523  -8.279  -2.153  0.00  0.00    -0.180 SA
HETATM    9  H           1     -20.990  -9.419  -1.613  0.00  0.00     0.101 HD
ENDBRANCH   7   8
ENDBRANCH   6   7
BRANCH   6  10
HETATM   10  C           1     -20.050 -10.403  -5.002  0.00  0.00     0.197 C 
HETATM   11  O           1     -19.957 -11.367  -4.212  0.00  0.00    -0.646 OA
HETATM   12  O           1     -20.556 -10.568  -6.133  0.00  0.00    -0.646 OA
ENDBRANCH   6  10
ENDBRANCH   3   6
ENDBRANCH   1   2
BRANCH   1  13
HETATM   13  C           1     -20.916  -4.795  -6.439  0.00  0.00     0.081 C 
BRANCH  13  14
HETATM   14  C           1     -21.217  -4.454  -7.865  0.00  0.00    -0.056 A 
HETATM   15  C           1     -20.206  -4.509  -8.824  0.00  0.00     0.007 A 
HETATM   16  C           1     -20.486  -4.192 -10.153  0.00  0.00     0.001 A 
HETATM   17  C           1     -21.779  -3.820 -10.523  0.00  0.00     0.000 A 
HETATM   18  C           1     -22.790  -3.766  -9.564  0.00  0.00     0.001 A 
HETATM   19  C           1     -22.509  -4.083  -8.235  0.00  0.00     0.007 A 
ENDBRANCH  13  14
ENDBRANCH   1  13
BRANCH   1  20
HETATM   20  N           1     -22.384  -5.986  -4.852  0.00  0.00    -0.066 N 
HETATM   21  H           1     -22.041  -5.168  -4.299  0.00  0.00     0.275 HD
HETATM   22  H           1     -23.382  -5.832  -5.120  0.00  0.00     0.275 HD
HETATM   23  H           1     -22.308  -6.854  -4.276  0.00  0.00     0.275 HD
ENDBRANCH   1  20
TORSDOF 8
ENDMDL
MODEL 7
REMARK VINA RESULT:      -6.0     15.502     17.522
REMARK  8 active torsions:
REMARK  status: ('A' for Active; 'I' for Inactive)
REMARK    1  A    between atoms: C_2  and  S_23 
REMARK    2  A    between atoms: C_2  and  C_12 
REMARK    3  A    between atoms: C_3  and  C_12 
REMARK    4  A    between atoms: N_4  and  C_12 
REMARK       I    between atoms: N_4  and  C_5 
REMARK    5  A    between atoms: C_5  and  C_11 
REMARK    6  A    between atoms: C_11  and  C_22 
REMARK    7  A    between atoms: C_11  and  N_16 
REMARK    8  A    between atoms: C_21  and  C_22 
ROOT
HETATM    1  C           1     -22.807  11.062 -13.021  0.00  0.00     0.278 C 
ENDROOT
BRANCH   1   2
HETATM    2  C           1     -22.760  11.512 -14.460  0.00  0.00     0.249 C 
HETATM    3  N           1     -21.870  10.939 -15.328  0.00  0.00    -0.344 N 
HETATM    4  H           1     -21.244  10.213 -15.005  0.00  0.00     0.163 HD
HETATM    5  O           1     -23.507  12.379 -14.847  0.00  0.00    -0.271 OA
BRANCH   3   6
HETATM    6  C           1     -21.825  11.372 -16.712  0.00  0.00     0.194 C 
BRANCH   6   7
HETATM    7  C           1     -20.668  12.343 -16.903  0.00  0.00     0.106 C 
BRANCH   7   8
HETATM    8  S           1     -19.172  11.662 -16.132  0.00  0.00    -0.180 SA
HETATM    9  H           1     -19.796  11.121 -15.071  0.00  0.00     0.101 HD
ENDBRANCH   7   8
ENDBRANCH   6   7
BRANCH   6  10
HETATM   10  C           1     -21.629  10.173 -17.607  0.00  0.00     0.197 C 
HETATM   11  O           1     -21.704  10.300 -18.848  0.00  0.00    -0.646 OA
HETATM   12  O           1     -21.389   9.053 -17.107  0.00  0.00    -0.646 OA
ENDBRANCH   6  10
ENDBRANCH   3   6
ENDBRANCH   1   2
BRANCH   1  13
HETATM   13  C           1     -24.238  11.146 -12.507  0.00  0.00     0.081 C 
BRANCH  13  14
HETATM   14  C           1     -24.659   9.811 -11.980  0.00  0.00    -0.056 A 
HETATM   15  C           1     -23.912   8.673 -12.283  0.00  0.00     0.007 A 
HETATM   16  C           1     -24.304   7.428 -11.791  0.00  0.00     0.001 A 
HETATM   17  C           1     -25.445   7.321 -10.995  0.00  0.00     0.000 A 
HETATM   18  C           1     -26.192   8.459 -10.691  0.00  0.00     0.001 A 
HETATM   19  C           1     -25.799   9.703 -11.183  0.00  0.00     0.007 A 
ENDBRANCH  13  14
ENDBRANCH   1  13
BRANCH   1  20
HETATM   20  N           1     -21.926  11.949 -12.192  0.00  0.00    -0.066 N 
HETATM   21  H           1     -22.506  12.690 -11.738  0.00  0.00     0.275 HD
HETATM   22  H           1     -21.450  11.378 -11.456  0.00  0.00     0.275 HD
HETATM   23  H           1     -21.205  12.394 -12.804  0.00  0.00     0.275 HD
ENDBRANCH   1  20
TORSDOF 8
ENDMDL
MODEL 8
REMARK VINA RESULT:      -5.9      4.918      7.813
REMARK  8 active torsions:
REMARK  status: ('A' for Active; 'I' for Inactive)
REMARK    1  A    between atoms: C_2  and  S_23 
REMARK    2  A    between atoms: C_2  and  C_12 
REMARK    3  A    between atoms: C_3  and  C_12 
REMARK    4  A    between atoms: N_4  and  C_12 
REMARK       I    between atoms: N_4  and  C_5 
REMARK    5  A    between atoms: C_5  and  C_11 
REMARK    6  A    between atoms: C_11  and  C_22 
REMARK    7  A    between atoms: C_11  and  N_16 
REMARK    8  A    between atoms: C_21  and  C_22 
ROOT
HETATM    1  C           1     -20.925  -7.675  -4.764  0.00  0.00     0.278 C 
ENDROOT
BRANCH   1   2
HETATM    2  C           1     -21.433  -8.515  -3.618  0.00  0.00     0.249 C 
HETATM    3  N           1     -21.255  -8.091  -2.329  0.00  0.00    -0.344 N 
HETATM    4  H           1     -20.784  -7.215  -2.144  0.00  0.00     0.163 HD
HETATM    5  O           1     -21.994  -9.561  -3.838  0.00  0.00    -0.271 OA
BRANCH   3   6
HETATM    6  C           1     -21.742  -8.899  -1.226  0.00  0.00     0.194 C 
BRANCH   6   7
HETATM    7  C           1     -20.616  -9.782  -0.707  0.00  0.00     0.106 C 
BRANCH   7   8
HETATM    8  S           1     -21.176 -11.509  -0.654  0.00  0.00    -0.180 SA
HETATM    9  H           1     -20.284 -11.972  -1.547  0.00  0.00     0.101 HD
ENDBRANCH   7   8
ENDBRANCH   6   7
BRANCH   6  10
HETATM   10  C           1     -22.225  -7.996  -0.118  0.00  0.00     0.197 C 
HETATM   11  O           1     -22.975  -7.031  -0.380  0.00  0.00    -0.646 OA
HETATM   12  O           1     -21.878  -8.214   1.062  0.00  0.00    -0.646 OA
ENDBRANCH   6  10
ENDBRANCH   3   6
ENDBRANCH   1   2
BRANCH   1  13
HETATM   13  C           1     -21.632  -6.326  -4.759  0.00  0.00     0.081 C 
BRANCH  13  14
HETATM   14  C           1     -21.149  -5.504  -5.912  0.00  0.00    -0.056 A 
HETATM   15  C           1     -19.781  -5.312  -6.107  0.00  0.00     0.007 A 
HETATM   16  C           1     -19.330  -4.546  -7.183  0.00  0.00     0.001 A 
HETATM   17  C           1     -20.248  -3.972  -8.064  0.00  0.00     0.000 A 
HETATM   18  C           1     -21.615  -4.165  -7.869  0.00  0.00     0.001 A 
HETATM   19  C           1     -22.065  -4.931  -6.794  0.00  0.00     0.007 A 
ENDBRANCH  13  14
ENDBRANCH   1  13
BRANCH   1  20
HETATM   20  N           1     -21.202  -8.379  -6.060  0.00  0.00    -0.066 N 
HETATM   21  H           1     -21.593  -9.328  -5.864  0.00  0.00     0.275 HD
HETATM   22  H           1     -21.891  -7.825  -6.617  0.00  0.00     0.275 HD
HETATM   23  H           1     -20.313  -8.473  -6.602  0.00  0.00     0.275 HD
ENDBRANCH   1  20
TORSDOF 8
ENDMDL
MODEL 9
REMARK VINA RESULT:      -5.8      4.974      7.537
REMARK  8 active torsions:
REMARK  status: ('A' for Active; 'I' for Inactive)
REMARK    1  A    between atoms: C_2  and  S_23 
REMARK    2  A    between atoms: C_2  and  C_12 
REMARK    3  A    between atoms: C_3  and  C_12 
REMARK    4  A    between atoms: N_4  and  C_12 
REMARK       I    between atoms: N_4  and  C_5 
REMARK    5  A    between atoms: C_5  and  C_11 
REMARK    6  A    between atoms: C_11  and  C_22 
REMARK    7  A    between atoms: C_11  and  N_16 
REMARK    8  A    between atoms: C_21  and  C_22 
ROOT
HETATM    1  C           1     -20.340  -7.691  -4.925  0.00  0.00     0.278 C 
ENDROOT
BRANCH   1   2
HETATM    2  C           1     -20.272  -8.446  -3.620  0.00  0.00     0.249 C 
HETATM    3  N           1     -21.409  -8.641  -2.883  0.00  0.00    -0.344 N 
HETATM    4  H           1     -22.294  -8.280  -3.213  0.00  0.00     0.163 HD
HETATM    5  O           1     -19.215  -8.876  -3.226  0.00  0.00    -0.271 OA
BRANCH   3   6
HETATM    6  C           1     -21.343  -9.366  -1.628  0.00  0.00     0.194 C 
BRANCH   6   7
HETATM    7  C           1     -21.359  -8.378  -0.469  0.00  0.00     0.106 C 
BRANCH   7   8
HETATM    8  S           1     -22.289  -6.895  -0.950  0.00  0.00    -0.180 SA
HETATM    9  H           1     -22.354  -6.365   0.284  0.00  0.00     0.101 HD
ENDBRANCH   7   8
ENDBRANCH   6   7
BRANCH   6  10
HETATM   10  C           1     -22.532 -10.288  -1.519  0.00  0.00     0.197 C 
HETATM   11  O           1     -23.177 -10.354  -0.450  0.00  0.00    -0.646 OA
HETATM   12  O           1     -22.874 -10.986  -2.499  0.00  0.00    -0.646 OA
ENDBRANCH   6  10
ENDBRANCH   3   6
ENDBRANCH   1   2
BRANCH   1  13
HETATM   13  C           1     -21.027  -6.350  -4.702  0.00  0.00     0.081 C 
BRANCH  13  14
HETATM   14  C           1     -20.901  -5.512  -5.936  0.00  0.00    -0.056 A 
HETATM   15  C           1     -19.640  -5.229  -6.460  0.00  0.00     0.007 A 
HETATM   16  C           1     -19.522  -4.448  -7.611  0.00  0.00     0.001 A 
HETATM   17  C           1     -20.666  -3.951  -8.236  0.00  0.00     0.000 A 
HETATM   18  C           1     -21.927  -4.236  -7.712  0.00  0.00     0.001 A 
HETATM   19  C           1     -22.044  -5.016  -6.562  0.00  0.00     0.007 A 
ENDBRANCH  13  14
ENDBRANCH   1  13
BRANCH   1  20
HETATM   20  N           1     -21.121  -8.491  -5.925  0.00  0.00    -0.066 N 
HETATM   21  H           1     -20.468  -9.096  -6.473  0.00  0.00     0.275 HD
HETATM   22  H           1     -21.816  -9.091  -5.425  0.00  0.00     0.275 HD
HETATM   23  H           1     -21.624  -7.843  -6.573  0.00  0.00     0.275 HD
ENDBRANCH   1  20
TORSDOF 8
ENDMDL
