MODEL 1
REMARK VINA RESULT:      -6.1      0.000      0.000
REMARK  9 active torsions:
REMARK  status: ('A' for Active; 'I' for Inactive)
REMARK       I    between atoms: C_2  and  N_3 
REMARK    1  A    between atoms: C_2  and  C_18 
REMARK    2  A    between atoms: N_3  and  C_21 
REMARK    3  A    between atoms: C_6  and  C_7 
REMARK    4  A    between atoms: C_7  and  C_18 
REMARK    5  A    between atoms: C_8  and  C_14 
REMARK    6  A    between atoms: C_14  and  C_22 
REMARK    7  A    between atoms: C_17  and  C_21 
REMARK    8  A    between atoms: C_18  and  N_19 
REMARK    9  A    between atoms: C_21  and  C_22 
ROOT
HETATM    1  C           1     -21.196  -6.202  -6.013  0.00  0.00     0.249 C 
HETATM    2  N           1     -21.305  -4.960  -6.577  0.00  0.00    -0.345 N 
HETATM    3  O           1     -21.260  -7.188  -6.708  0.00  0.00    -0.271 OA
HETATM    4  H           1     -21.252  -4.133  -5.995  0.00  0.00     0.163 HD
ENDROOT
BRANCH   1   5
HETATM    5  C           1     -20.996  -6.340  -4.524  0.00  0.00     0.275 C 
BRANCH   5   6
HETATM    6  C           1     -20.439  -7.722  -4.211  0.00  0.00     0.046 C 
BRANCH   6   7
HETATM    7  C           1     -21.295  -8.385  -3.141  0.00  0.00    -0.020 C 
HETATM    8  C           1     -21.787  -9.736  -3.645  0.00  0.00     0.009 C 
HETATM    9  C           1     -20.465  -8.586  -1.880  0.00  0.00     0.009 C 
ENDBRANCH   6   7
ENDBRANCH   5   6
BRANCH   5  10
HETATM   10  N           1     -22.311  -6.161  -3.825  0.00  0.00    -0.066 N 
HETATM   11  H           1     -22.166  -6.207  -2.791  0.00  0.00     0.275 HD
HETATM   12  H           1     -22.967  -6.921  -4.118  0.00  0.00     0.275 HD
HETATM   13  H           1     -22.717  -5.233  -4.078  0.00  0.00     0.275 HD
ENDBRANCH   5  10
ENDBRANCH   1   5
BRANCH   2  14
HETATM   14  C           1     -21.497  -4.826  -8.008  0.00  0.00     0.186 C 
BRANCH  14  15
HETATM   15  C           1     -20.168  -4.559  -8.670  0.00  0.00     0.196 C 
HETATM   16  O           1     -19.202  -4.150  -7.990  0.00  0.00    -0.646 OA
HETATM   17  O           1     -20.033  -4.746  -9.899  0.00  0.00    -0.646 OA
ENDBRANCH  14  15
BRANCH  14  18
HETATM   18  C           1     -22.446  -3.668  -8.287  0.00  0.00     0.046 C 
BRANCH  18  19
HETATM   19  C           1     -23.702  -4.194  -8.970  0.00  0.00     0.116 C 
BRANCH  19  20
HETATM   20  C           1     -23.879  -3.505 -10.301  0.00  0.00     0.172 C 
HETATM   21  O           1     -22.877  -3.196 -10.981  0.00  0.00    -0.648 OA
HETATM   22  O           1     -25.026  -3.244 -10.722  0.00  0.00    -0.648 OA
ENDBRANCH  19  20
ENDBRANCH  18  19
ENDBRANCH  14  18
ENDBRANCH   2  14
TORSDOF 9
ENDMDL
MODEL 2
REMARK VINA RESULT:      -5.9      2.813      7.055
REMARK  9 active torsions:
REMARK  status: ('A' for Active; 'I' for Inactive)
REMARK       I    between atoms: C_2  and  N_3 
REMARK    1  A    between atoms: C_2  and  C_18 
REMARK    2  A    between atoms: N_3  and  C_21 
REMARK    3  A    between atoms: C_6  and  C_7 
REMARK    4  A    between atoms: C_7  and  C_18 
REMARK    5  A    between atoms: C_8  and  C_14 
REMARK    6  A    between atoms: C_14  and  C_22 
REMARK    7  A    between atoms: C_17  and  C_21 
REMARK    8  A    between atoms: C_18  and  N_19 
REMARK    9  A    between atoms: C_21  and  C_22 
ROOT
HETATM    1  C           1     -21.131  -5.007  -6.248  0.00  0.00     0.249 C 
HETATM    2  N           1     -21.806  -6.005  -5.598  0.00  0.00    -0.345 N 
HETATM    3  O           1     -20.061  -4.632  -5.832  0.00  0.00    -0.271 OA
HETATM    4  H           1     -22.703  -6.320  -5.946  0.00  0.00     0.163 HD
ENDROOT
BRANCH   1   5
HETATM    5  C           1     -21.725  -4.374  -7.482  0.00  0.00     0.275 C 
BRANCH   5   6
HETATM    6  C           1     -20.902  -4.768  -8.702  0.00  0.00     0.046 C 
BRANCH   6   7
HETATM    7  C           1     -21.412  -4.015  -9.923  0.00  0.00    -0.020 C 
HETATM    8  C           1     -20.405  -4.146 -11.059  0.00  0.00     0.009 C 
HETATM    9  C           1     -22.748  -4.600 -10.359  0.00  0.00     0.009 C 
ENDBRANCH   6   7
ENDBRANCH   5   6
BRANCH   5  10
HETATM   10  N           1     -21.715  -2.882  -7.333  0.00  0.00    -0.066 N 
HETATM   11  H           1     -20.925  -2.481  -7.887  0.00  0.00     0.275 HD
HETATM   12  H           1     -21.595  -2.633  -6.325  0.00  0.00     0.275 HD
HETATM   13  H           1     -22.618  -2.490  -7.684  0.00  0.00     0.275 HD
ENDBRANCH   5  10
ENDBRANCH   1   5
BRANCH   2  14
HETATM   14  C           1     -21.236  -6.613  -4.412  0.00  0.00     0.186 C 
BRANCH  14  15
HETATM   15  C           1     -20.604  -7.934  -4.778  0.00  0.00     0.196 C 
HETATM   16  O           1     -19.750  -8.449  -4.025  0.00  0.00    -0.646 OA
HETATM   17  O           1     -20.937  -8.514  -5.835  0.00  0.00    -0.646 OA
ENDBRANCH  14  15
BRANCH  14  18
HETATM   18  C           1     -22.333  -6.843  -3.381  0.00  0.00     0.046 C 
BRANCH  18  19
HETATM   19  C           1     -21.950  -6.167  -2.071  0.00  0.00     0.116 C 
BRANCH  19  20
HETATM   20  C           1     -22.032  -7.168  -0.945  0.00  0.00     0.172 C 
HETATM   21  O           1     -23.067  -7.241  -0.249  0.00  0.00    -0.648 OA
HETATM   22  O           1     -21.064  -7.922  -0.708  0.00  0.00    -0.648 OA
ENDBRANCH  19  20
ENDBRANCH  18  19
ENDBRANCH  14  18
ENDBRANCH   2  14
TORSDOF 9
ENDMDL
MODEL 3
REMARK VINA RESULT:      -5.8      3.287      6.728
REMARK  9 active torsions:
REMARK  status: ('A' for Active; 'I' for Inactive)
REMARK       I    between atoms: C_2  and  N_3 
REMARK    1  A    between atoms: C_2  and  C_18 
REMARK    2  A    between atoms: N_3  and  C_21 
REMARK    3  A    between atoms: C_6  and  C_7 
REMARK    4  A    between atoms: C_7  and  C_18 
REMARK    5  A    between atoms: C_8  and  C_14 
REMARK    6  A    between atoms: C_14  and  C_22 
REMARK    7  A    between atoms: C_17  and  C_21 
REMARK    8  A    between atoms: C_18  and  N_19 
REMARK    9  A    between atoms: C_21  and  C_22 
ROOT
HETATM    1  C           1     -20.966  -7.018  -5.610  0.00  0.00     0.249 C 
HETATM    2  N           1     -21.634  -7.778  -4.689  0.00  0.00    -0.345 N 
HETATM    3  O           1     -19.828  -7.294  -5.909  0.00  0.00    -0.271 OA
HETATM    4  H           1     -22.587  -7.547  -4.437  0.00  0.00     0.163 HD
ENDROOT
BRANCH   1   5
HETATM    5  C           1     -21.649  -5.836  -6.252  0.00  0.00     0.275 C 
BRANCH   5   6
HETATM    6  C           1     -20.788  -4.592  -6.073  0.00  0.00     0.046 C 
BRANCH   6   7
HETATM    7  C           1     -20.431  -4.021  -7.439  0.00  0.00    -0.020 C 
HETATM    8  C           1     -18.965  -4.303  -7.742  0.00  0.00     0.009 C 
HETATM    9  C           1     -21.304  -4.671  -8.504  0.00  0.00     0.009 C 
ENDBRANCH   6   7
ENDBRANCH   5   6
BRANCH   5  10
HETATM   10  N           1     -22.983  -5.617  -5.602  0.00  0.00    -0.066 N 
HETATM   11  H           1     -23.342  -6.523  -5.226  0.00  0.00     0.275 HD
HETATM   12  H           1     -23.657  -5.242  -6.309  0.00  0.00     0.275 HD
HETATM   13  H           1     -22.882  -4.932  -4.820  0.00  0.00     0.275 HD
ENDBRANCH   5  10
ENDBRANCH   1   5
BRANCH   2  14
HETATM   14  C           1     -20.978  -8.914  -4.071  0.00  0.00     0.186 C 
BRANCH  14  15
HETATM   15  C           1     -21.425 -10.184  -4.753  0.00  0.00     0.196 C 
HETATM   16  O           1     -20.997 -10.465  -5.893  0.00  0.00    -0.646 OA
HETATM   17  O           1     -22.224 -10.955  -4.177  0.00  0.00    -0.646 OA
ENDBRANCH  14  15
BRANCH  14  18
HETATM   18  C           1     -21.346  -8.973  -2.595  0.00  0.00     0.046 C 
BRANCH  18  19
HETATM   19  C           1     -20.900  -7.689  -1.908  0.00  0.00     0.116 C 
BRANCH  19  20
HETATM   20  C           1     -22.100  -6.811  -1.653  0.00  0.00     0.172 C 
HETATM   21  O           1     -22.428  -5.942  -2.490  0.00  0.00    -0.648 OA
HETATM   22  O           1     -22.767  -6.952  -0.606  0.00  0.00    -0.648 OA
ENDBRANCH  19  20
ENDBRANCH  18  19
ENDBRANCH  14  18
ENDBRANCH   2  14
TORSDOF 9
ENDMDL
MODEL 4
REMARK VINA RESULT:      -5.8      1.793      2.548
REMARK  9 active torsions:
REMARK  status: ('A' for Active; 'I' for Inactive)
REMARK       I    between atoms: C_2  and  N_3 
REMARK    1  A    between atoms: C_2  and  C_18 
REMARK    2  A    between atoms: N_3  and  C_21 
REMARK    3  A    between atoms: C_6  and  C_7 
REMARK    4  A    between atoms: C_7  and  C_18 
REMARK    5  A    between atoms: C_8  and  C_14 
REMARK    6  A    between atoms: C_14  and  C_22 
REMARK    7  A    between atoms: C_17  and  C_21 
REMARK    8  A    between atoms: C_18  and  N_19 
REMARK    9  A    between atoms: C_21  and  C_22 
ROOT
HETATM    1  C           1     -21.390  -5.001  -7.989  0.00  0.00     0.249 C 
HETATM    2  N           1     -22.057  -4.346  -8.988  0.00  0.00    -0.345 N 
HETATM    3  O           1     -20.578  -5.853  -8.263  0.00  0.00    -0.271 OA
HETATM    4  H           1     -22.738  -3.632  -8.759  0.00  0.00     0.163 HD
ENDROOT
BRANCH   1   5
HETATM    5  C           1     -21.668  -4.661  -6.546  0.00  0.00     0.275 C 
BRANCH   5   6
HETATM    6  C           1     -20.802  -5.529  -5.642  0.00  0.00     0.046 C 
BRANCH   6   7
HETATM    7  C           1     -21.688  -6.477  -4.847  0.00  0.00    -0.020 C 
HETATM    8  C           1     -21.386  -7.915  -5.249  0.00  0.00     0.009 C 
HETATM    9  C           1     -21.416  -6.298  -3.359  0.00  0.00     0.009 C 
ENDBRANCH   6   7
ENDBRANCH   5   6
BRANCH   5  10
HETATM   10  N           1     -23.115  -4.913  -6.242  0.00  0.00    -0.066 N 
HETATM   11  H           1     -23.643  -4.012  -6.286  0.00  0.00     0.275 HD
HETATM   12  H           1     -23.203  -5.322  -5.284  0.00  0.00     0.275 HD
HETATM   13  H           1     -23.507  -5.580  -6.944  0.00  0.00     0.275 HD
ENDBRANCH   5  10
ENDBRANCH   1   5
BRANCH   2  14
HETATM   14  C           1     -21.791  -4.673 -10.375  0.00  0.00     0.186 C 
BRANCH  14  15
HETATM   15  C           1     -21.041  -3.535 -11.024  0.00  0.00     0.196 C 
HETATM   16  O           1     -21.585  -2.864 -11.927  0.00  0.00    -0.646 OA
HETATM   17  O           1     -19.877  -3.265 -10.658  0.00  0.00    -0.646 OA
ENDBRANCH  14  15
BRANCH  14  18
HETATM   18  C           1     -23.108  -4.897 -11.106  0.00  0.00     0.046 C 
BRANCH  18  19
HETATM   19  C           1     -24.258  -4.850 -10.109  0.00  0.00     0.116 C 
BRANCH  19  20
HETATM   20  C           1     -24.943  -3.508 -10.192  0.00  0.00     0.172 C 
HETATM   21  O           1     -24.356  -2.539 -10.721  0.00  0.00    -0.648 OA
HETATM   22  O           1     -26.096  -3.365  -9.733  0.00  0.00    -0.648 OA
ENDBRANCH  19  20
ENDBRANCH  18  19
ENDBRANCH  14  18
ENDBRANCH   2  14
TORSDOF 9
ENDMDL
MODEL 5
REMARK VINA RESULT:      -5.6      2.027      3.739
REMARK  9 active torsions:
REMARK  status: ('A' for Active; 'I' for Inactive)
REMARK       I    between atoms: C_2  and  N_3 
REMARK    1  A    between atoms: C_2  and  C_18 
REMARK    2  A    between atoms: N_3  and  C_21 
REMARK    3  A    between atoms: C_6  and  C_7 
REMARK    4  A    between atoms: C_7  and  C_18 
REMARK    5  A    between atoms: C_8  and  C_14 
REMARK    6  A    between atoms: C_14  and  C_22 
REMARK    7  A    between atoms: C_17  and  C_21 
REMARK    8  A    between atoms: C_18  and  N_19 
REMARK    9  A    between atoms: C_21  and  C_22 
ROOT
HETATM    1  C           1     -21.852  -4.492  -7.603  0.00  0.00     0.249 C 
HETATM    2  N           1     -22.701  -4.678  -8.660  0.00  0.00    -0.345 N 
HETATM    3  O           1     -21.618  -3.375  -7.206  0.00  0.00    -0.271 OA
HETATM    4  H           1     -22.897  -5.614  -8.994  0.00  0.00     0.163 HD
ENDROOT
BRANCH   1   5
HETATM    5  C           1     -21.207  -5.681  -6.935  0.00  0.00     0.275 C 
BRANCH   5   6
HETATM    6  C           1     -21.765  -5.837  -5.525  0.00  0.00     0.046 C 
BRANCH   6   7
HETATM    7  C           1     -20.936  -6.860  -4.762  0.00  0.00    -0.020 C 
HETATM    8  C           1     -21.235  -6.749  -3.272  0.00  0.00     0.009 C 
HETATM    9  C           1     -21.287  -8.261  -5.247  0.00  0.00     0.009 C 
ENDBRANCH   6   7
ENDBRANCH   5   6
BRANCH   5  10
HETATM   10  N           1     -19.724  -5.471  -6.865  0.00  0.00    -0.066 N 
HETATM   11  H           1     -19.336  -5.394  -7.832  0.00  0.00     0.275 HD
HETATM   12  H           1     -19.281  -6.282  -6.375  0.00  0.00     0.275 HD
HETATM   13  H           1     -19.521  -4.592  -6.338  0.00  0.00     0.275 HD
ENDBRANCH   5  10
ENDBRANCH   1   5
BRANCH   2  14
HETATM   14  C           1     -23.321  -3.536  -9.303  0.00  0.00     0.186 C 
BRANCH  14  15
HETATM   15  C           1     -24.750  -3.872  -9.655  0.00  0.00     0.196 C 
HETATM   16  O           1     -25.584  -2.957  -9.820  0.00  0.00    -0.646 OA
HETATM   17  O           1     -25.099  -5.066  -9.781  0.00  0.00    -0.646 OA
ENDBRANCH  14  15
BRANCH  14  18
HETATM   18  C           1     -22.554  -3.189 -10.571  0.00  0.00     0.046 C 
BRANCH  18  19
HETATM   19  C           1     -21.913  -4.448 -11.139  0.00  0.00     0.116 C 
BRANCH  19  20
HETATM   20  C           1     -20.413  -4.360 -10.992  0.00  0.00     0.172 C 
HETATM   21  O           1     -19.759  -3.581 -11.719  0.00  0.00    -0.648 OA
HETATM   22  O           1     -19.826  -5.065 -10.144  0.00  0.00    -0.648 OA
ENDBRANCH  19  20
ENDBRANCH  18  19
ENDBRANCH  14  18
ENDBRANCH   2  14
TORSDOF 9
ENDMDL
MODEL 6
REMARK VINA RESULT:      -5.4      3.705      5.521
REMARK  9 active torsions:
REMARK  status: ('A' for Active; 'I' for Inactive)
REMARK       I    between atoms: C_2  and  N_3 
REMARK    1  A    between atoms: C_2  and  C_18 
REMARK    2  A    between atoms: N_3  and  C_21 
REMARK    3  A    between atoms: C_6  and  C_7 
REMARK    4  A    between atoms: C_7  and  C_18 
REMARK    5  A    between atoms: C_8  and  C_14 
REMARK    6  A    between atoms: C_14  and  C_22 
REMARK    7  A    between atoms: C_17  and  C_21 
REMARK    8  A    between atoms: C_18  and  N_19 
REMARK    9  A    between atoms: C_21  and  C_22 
ROOT
HETATM    1  C           1     -21.376  -9.971  -2.446  0.00  0.00     0.249 C 
HETATM    2  N           1     -20.597  -9.123  -3.186  0.00  0.00    -0.345 N 
HETATM    3  O           1     -21.914 -10.914  -2.976  0.00  0.00    -0.271 OA
HETATM    4  H           1     -20.146  -8.333  -2.743  0.00  0.00     0.163 HD
ENDROOT
BRANCH   1   5
HETATM    5  C           1     -21.563  -9.727  -0.969  0.00  0.00     0.275 C 
BRANCH   5   6
HETATM    6  C           1     -20.925  -8.398  -0.588  0.00  0.00     0.046 C 
BRANCH   6   7
HETATM    7  C           1     -22.011  -7.410  -0.185  0.00  0.00    -0.020 C 
HETATM    8  C           1     -22.375  -6.538  -1.380  0.00  0.00     0.009 C 
HETATM    9  C           1     -23.244  -8.174   0.281  0.00  0.00     0.009 C 
ENDBRANCH   6   7
ENDBRANCH   5   6
BRANCH   5  10
HETATM   10  N           1     -20.913 -10.834  -0.193  0.00  0.00    -0.066 N 
HETATM   11  H           1     -20.604 -11.586  -0.850  0.00  0.00     0.275 HD
HETATM   12  H           1     -21.599 -11.230   0.490  0.00  0.00     0.275 HD
HETATM   13  H           1     -20.085 -10.460   0.321  0.00  0.00     0.275 HD
ENDBRANCH   5  10
ENDBRANCH   1   5
BRANCH   2  14
HETATM   14  C           1     -20.416  -9.357  -4.606  0.00  0.00     0.186 C 
BRANCH  14  15
HETATM   15  C           1     -18.945  -9.307  -4.940  0.00  0.00     0.196 C 
HETATM   16  O           1     -18.576  -9.300  -6.133  0.00  0.00    -0.646 OA
HETATM   17  O           1     -18.097  -9.271  -4.022  0.00  0.00    -0.646 OA
ENDBRANCH  14  15
BRANCH  14  18
HETATM   18  C           1     -21.153  -8.283  -5.395  0.00  0.00     0.046 C 
BRANCH  18  19
HETATM   19  C           1     -20.858  -6.916  -4.793  0.00  0.00     0.116 C 
BRANCH  19  20
HETATM   20  C           1     -20.319  -5.999  -5.863  0.00  0.00     0.172 C 
HETATM   21  O           1     -20.022  -4.818  -5.582  0.00  0.00    -0.648 OA
HETATM   22  O           1     -20.169  -6.421  -7.030  0.00  0.00    -0.648 OA
ENDBRANCH  19  20
ENDBRANCH  18  19
ENDBRANCH  14  18
ENDBRANCH   2  14
TORSDOF 9
ENDMDL
MODEL 7
REMARK VINA RESULT:      -5.4      2.941      6.815
REMARK  9 active torsions:
REMARK  status: ('A' for Active; 'I' for Inactive)
REMARK       I    between atoms: C_2  and  N_3 
REMARK    1  A    between atoms: C_2  and  C_18 
REMARK    2  A    between atoms: N_3  and  C_21 
REMARK    3  A    between atoms: C_6  and  C_7 
REMARK    4  A    between atoms: C_7  and  C_18 
REMARK    5  A    between atoms: C_8  and  C_14 
REMARK    6  A    between atoms: C_14  and  C_22 
REMARK    7  A    between atoms: C_17  and  C_21 
REMARK    8  A    between atoms: C_18  and  N_19 
REMARK    9  A    between atoms: C_21  and  C_22 
ROOT
HETATM    1  C           1     -21.265  -6.050  -5.301  0.00  0.00     0.249 C 
HETATM    2  N           1     -20.796  -6.913  -4.349  0.00  0.00    -0.345 N 
HETATM    3  O           1     -22.453  -5.858  -5.410  0.00  0.00    -0.271 OA
HETATM    4  H           1     -19.801  -7.076  -4.258  0.00  0.00     0.163 HD
ENDROOT
BRANCH   1   5
HETATM    5  C           1     -20.299  -5.340  -6.217  0.00  0.00     0.275 C 
BRANCH   5   6
HETATM    6  C           1     -21.039  -4.264  -7.002  0.00  0.00     0.046 C 
BRANCH   6   7
HETATM    7  C           1     -21.263  -4.741  -8.430  0.00  0.00    -0.020 C 
HETATM    8  C           1     -22.711  -4.486  -8.830  0.00  0.00     0.009 C 
HETATM    9  C           1     -20.336  -3.982  -9.370  0.00  0.00     0.009 C 
ENDBRANCH   6   7
ENDBRANCH   5   6
BRANCH   5  10
HETATM   10  N           1     -19.696  -6.328  -7.171  0.00  0.00    -0.066 N 
HETATM   11  H           1     -18.696  -6.494  -6.917  0.00  0.00     0.275 HD
HETATM   12  H           1     -19.751  -5.950  -8.145  0.00  0.00     0.275 HD
HETATM   13  H           1     -20.222  -7.230  -7.117  0.00  0.00     0.275 HD
ENDBRANCH   5  10
ENDBRANCH   1   5
BRANCH   2  14
HETATM   14  C           1     -21.724  -7.596  -3.468  0.00  0.00     0.186 C 
BRANCH  14  15
HETATM   15  C           1     -21.726  -6.920  -2.119  0.00  0.00     0.196 C 
HETATM   16  O           1     -21.214  -7.493  -1.133  0.00  0.00    -0.646 OA
HETATM   17  O           1     -22.239  -5.788  -1.988  0.00  0.00    -0.646 OA
ENDBRANCH  14  15
BRANCH  14  18
HETATM   18  C           1     -21.297  -9.049  -3.308  0.00  0.00     0.046 C 
BRANCH  18  19
HETATM   19  C           1     -21.395  -9.759  -4.652  0.00  0.00     0.116 C 
BRANCH  19  20
HETATM   20  C           1     -20.008 -10.048  -5.172  0.00  0.00     0.172 C 
HETATM   21  O           1     -19.348  -9.143  -5.727  0.00  0.00    -0.648 OA
HETATM   22  O           1     -19.519 -11.191  -5.047  0.00  0.00    -0.648 OA
ENDBRANCH  19  20
ENDBRANCH  18  19
ENDBRANCH  14  18
ENDBRANCH   2  14
TORSDOF 9
ENDMDL
MODEL 8
REMARK VINA RESULT:      -5.4      3.928      6.529
REMARK  9 active torsions:
REMARK  status: ('A' for Active; 'I' for Inactive)
REMARK       I    between atoms: C_2  and  N_3 
REMARK    1  A    between atoms: C_2  and  C_18 
REMARK    2  A    between atoms: N_3  and  C_21 
REMARK    3  A    between atoms: C_6  and  C_7 
REMARK    4  A    between atoms: C_7  and  C_18 
REMARK    5  A    between atoms: C_8  and  C_14 
REMARK    6  A    between atoms: C_14  and  C_22 
REMARK    7  A    between atoms: C_17  and  C_21 
REMARK    8  A    between atoms: C_18  and  N_19 
REMARK    9  A    between atoms: C_21  and  C_22 
ROOT
HETATM    1  C           1     -20.412  -9.991  -1.493  0.00  0.00     0.249 C 
HETATM    2  N           1     -21.449  -9.117  -1.673  0.00  0.00    -0.345 N 
HETATM    3  O           1     -19.313  -9.719  -1.915  0.00  0.00    -0.271 OA
HETATM    4  H           1     -22.371  -9.345  -1.320  0.00  0.00     0.163 HD
ENDROOT
BRANCH   1   5
HETATM    5  C           1     -20.640 -11.294  -0.767  0.00  0.00     0.275 C 
BRANCH   5   6
HETATM    6  C           1     -21.698 -11.098   0.310  0.00  0.00     0.046 C 
BRANCH   6   7
HETATM    7  C           1     -22.931 -11.923  -0.032  0.00  0.00    -0.020 C 
HETATM    8  C           1     -23.187 -12.939   1.074  0.00  0.00     0.009 C 
HETATM    9  C           1     -24.137 -11.002  -0.164  0.00  0.00     0.009 C 
ENDBRANCH   6   7
ENDBRANCH   5   6
BRANCH   5  10
HETATM   10  N           1     -19.357 -11.744  -0.132  0.00  0.00    -0.066 N 
HETATM   11  H           1     -18.585 -11.096  -0.408  0.00  0.00     0.275 HD
HETATM   12  H           1     -19.132 -12.713  -0.453  0.00  0.00     0.275 HD
HETATM   13  H           1     -19.462 -11.736   0.907  0.00  0.00     0.275 HD
ENDBRANCH   5  10
ENDBRANCH   1   5
BRANCH   2  14
HETATM   14  C           1     -21.231  -7.865  -2.370  0.00  0.00     0.186 C 
BRANCH  14  15
HETATM   15  C           1     -22.106  -6.794  -1.765  0.00  0.00     0.196 C 
HETATM   16  O           1     -22.241  -5.696  -2.346  0.00  0.00    -0.646 OA
HETATM   17  O           1     -22.696  -7.006  -0.684  0.00  0.00    -0.646 OA
ENDBRANCH  14  15
BRANCH  14  18
HETATM   18  C           1     -21.581  -8.035  -3.842  0.00  0.00     0.046 C 
BRANCH  18  19
HETATM   19  C           1     -20.352  -7.745  -4.694  0.00  0.00     0.116 C 
BRANCH  19  20
HETATM   20  C           1     -20.640  -6.589  -5.619  0.00  0.00     0.172 C 
HETATM   21  O           1     -20.541  -5.415  -5.201  0.00  0.00    -0.648 OA
HETATM   22  O           1     -20.979  -6.804  -6.802  0.00  0.00    -0.648 OA
ENDBRANCH  19  20
ENDBRANCH  18  19
ENDBRANCH  14  18
ENDBRANCH   2  14
TORSDOF 9
ENDMDL
MODEL 9
REMARK VINA RESULT:      -5.3      5.237      6.761
REMARK  9 active torsions:
REMARK  status: ('A' for Active; 'I' for Inactive)
REMARK       I    between atoms: C_2  and  N_3 
REMARK    1  A    between atoms: C_2  and  C_18 
REMARK    2  A    between atoms: N_3  and  C_21 
REMARK    3  A    between atoms: C_6  and  C_7 
REMARK    4  A    between atoms: C_7  and  C_18 
REMARK    5  A    between atoms: C_8  and  C_14 
REMARK    6  A    between atoms: C_14  and  C_22 
REMARK    7  A    between atoms: C_17  and  C_21 
REMARK    8  A    between atoms: C_18  and  N_19 
REMARK    9  A    between atoms: C_21  and  C_22 
ROOT
HETATM    1  C           1     -20.760 -10.973  -1.886  0.00  0.00     0.249 C 
HETATM    2  N           1     -20.037  -9.847  -2.174  0.00  0.00    -0.345 N 
HETATM    3  O           1     -21.153 -11.683  -2.781  0.00  0.00    -0.271 OA
HETATM    4  H           1     -19.708  -9.251  -1.425  0.00  0.00     0.163 HD
ENDROOT
BRANCH   1   5
HETATM    5  C           1     -21.066 -11.326  -0.452  0.00  0.00     0.275 C 
BRANCH   5   6
HETATM    6  C           1     -21.494 -10.073   0.301  0.00  0.00     0.046 C 
BRANCH   6   7
HETATM    7  C           1     -22.828  -9.582  -0.245  0.00  0.00    -0.020 C 
HETATM    8  C           1     -23.890 -10.654  -0.034  0.00  0.00     0.009 C 
HETATM    9  C           1     -23.238  -8.311   0.486  0.00  0.00     0.009 C 
ENDBRANCH   6   7
ENDBRANCH   5   6
BRANCH   5  10
HETATM   10  N           1     -19.842 -11.903   0.194  0.00  0.00    -0.066 N 
HETATM   11  H           1     -19.340 -12.513  -0.491  0.00  0.00     0.275 HD
HETATM   12  H           1     -20.122 -12.471   1.026  0.00  0.00     0.275 HD
HETATM   13  H           1     -19.210 -11.129   0.496  0.00  0.00     0.275 HD
ENDBRANCH   5  10
ENDBRANCH   1   5
BRANCH   2  14
HETATM   14  C           1     -19.742  -9.506  -3.552  0.00  0.00     0.186 C 
BRANCH  14  15
HETATM   15  C           1     -18.246  -9.437  -3.744  0.00  0.00     0.196 C 
HETATM   16  O           1     -17.756  -9.568  -4.885  0.00  0.00    -0.646 OA
HETATM   17  O           1     -17.499  -9.247  -2.760  0.00  0.00    -0.646 OA
ENDBRANCH  14  15
BRANCH  14  18
HETATM   18  C           1     -20.360  -8.155  -3.885  0.00  0.00     0.046 C 
BRANCH  18  19
HETATM   19  C           1     -20.815  -7.473  -2.602  0.00  0.00     0.116 C 
BRANCH  19  20
HETATM   20  C           1     -21.891  -6.464  -2.921  0.00  0.00     0.172 C 
HETATM   21  O           1     -22.540  -5.930  -1.997  0.00  0.00    -0.648 OA
HETATM   22  O           1     -22.133  -6.164  -4.110  0.00  0.00    -0.648 OA
ENDBRANCH  19  20
ENDBRANCH  18  19
ENDBRANCH  14  18
ENDBRANCH   2  14
TORSDOF 9
ENDMDL
