MODEL 1
REMARK VINA RESULT:      -6.5      0.000      0.000
REMARK  9 active torsions:
REMARK  status: ('A' for Active; 'I' for Inactive)
REMARK    1  A    between atoms: C_1  and  C_16 
REMARK    2  A    between atoms: C_1  and  O_13 
REMARK    3  A    between atoms: C_2  and  C_4 
REMARK    4  A    between atoms: C_4  and  C_21 
REMARK    5  A    between atoms: C_4  and  N_11 
REMARK       I    between atoms: C_7  and  N_11 
REMARK    6  A    between atoms: C_7  and  C_16 
REMARK       I    between atoms: C_12  and  N_17 
REMARK    7  A    between atoms: C_12  and  C_20 
REMARK    8  A    between atoms: C_16  and  N_19 
REMARK    9  A    between atoms: C_20  and  C_21 
ROOT
HETATM    1  H           1     -35.369  -2.124 -13.882  0.00  0.00     0.163 HD
HETATM    2  C           1     -34.195  -2.538 -12.229  0.00  0.00     0.251 C 
HETATM    3  N           1     -34.929  -1.734 -13.059  0.00  0.00    -0.345 N 
HETATM    4  O           1     -33.672  -2.072 -11.244  0.00  0.00    -0.271 OA
ENDROOT
BRANCH   3   5
HETATM    5  C           1     -35.079  -0.324 -12.757  0.00  0.00     0.186 C 
BRANCH   5   6
HETATM    6  C           1     -36.310  -0.118 -11.910  0.00  0.00     0.196 C 
HETATM    7  O           1     -37.426  -0.497 -12.326  0.00  0.00    -0.646 OA
HETATM    8  O           1     -36.215   0.433 -10.792  0.00  0.00    -0.646 OA
ENDBRANCH   5   6
BRANCH   5   9
HETATM    9  C           1     -35.216   0.461 -14.055  0.00  0.00     0.045 C 
BRANCH   9  10
HETATM   10  C           1     -35.482  -0.500 -15.205  0.00  0.00     0.105 C 
BRANCH  10  11
HETATM   11  C           1     -36.821  -0.184 -15.827  0.00  0.00     0.215 C 
HETATM   12  O           1     -37.133  -0.689 -16.878  0.00  0.00    -0.274 OA
HETATM   13  N           1     -37.680   0.676 -15.198  0.00  0.00    -0.370 N 
HETATM   14  H           1     -38.578   0.889 -15.615  0.00  0.00     0.159 HD
HETATM   15  H           1     -37.418   1.100 -14.317  0.00  0.00     0.159 HD
ENDBRANCH  10  11
ENDBRANCH   9  10
ENDBRANCH   5   9
ENDBRANCH   3   5
BRANCH   2  16
HETATM   16  C           1     -34.041  -4.005 -12.541  0.00  0.00     0.302 C 
BRANCH  16  17
HETATM   17  C           1     -34.963  -4.817 -11.642  0.00  0.00     0.153 C 
HETATM   18  C           1     -34.136  -5.539 -10.586  0.00  0.00     0.042 C 
BRANCH  17  19
HETATM   19  O           1     -35.877  -3.960 -11.012  0.00  0.00    -0.393 OA
HETATM   20  H           1     -36.736  -4.213 -11.307  0.00  0.00     0.210 HD
ENDBRANCH  17  19
ENDBRANCH  16  17
BRANCH  16  21
HETATM   21  N           1     -32.619  -4.419 -12.303  0.00  0.00    -0.064 N 
HETATM   22  H           1     -32.193  -3.798 -11.578  0.00  0.00     0.275 HD
HETATM   23  H           1     -32.595  -5.410 -11.970  0.00  0.00     0.275 HD
HETATM   24  H           1     -32.079  -4.338 -13.193  0.00  0.00     0.275 HD
ENDBRANCH  16  21
ENDBRANCH   2  16
TORSDOF 9
ENDMDL
MODEL 2
REMARK VINA RESULT:      -6.3      9.701     11.022
REMARK  9 active torsions:
REMARK  status: ('A' for Active; 'I' for Inactive)
REMARK    1  A    between atoms: C_1  and  C_16 
REMARK    2  A    between atoms: C_1  and  O_13 
REMARK    3  A    between atoms: C_2  and  C_4 
REMARK    4  A    between atoms: C_4  and  C_21 
REMARK    5  A    between atoms: C_4  and  N_11 
REMARK       I    between atoms: C_7  and  N_11 
REMARK    6  A    between atoms: C_7  and  C_16 
REMARK       I    between atoms: C_12  and  N_17 
REMARK    7  A    between atoms: C_12  and  C_20 
REMARK    8  A    between atoms: C_16  and  N_19 
REMARK    9  A    between atoms: C_20  and  C_21 
ROOT
HETATM    1  H           1     -27.775  -6.825 -20.130  0.00  0.00     0.163 HD
HETATM    2  C           1     -26.318  -6.488 -18.701  0.00  0.00     0.251 C 
HETATM    3  N           1     -27.603  -6.595 -19.160  0.00  0.00    -0.345 N 
HETATM    4  O           1     -26.112  -6.214 -17.542  0.00  0.00    -0.271 OA
ENDROOT
BRANCH   3   5
HETATM    5  C           1     -28.716  -6.380 -18.257  0.00  0.00     0.186 C 
BRANCH   5   6
HETATM    6  C           1     -29.724  -7.490 -18.429  0.00  0.00     0.196 C 
HETATM    7  O           1     -29.480  -8.444 -19.199  0.00  0.00    -0.646 OA
HETATM    8  O           1     -30.806  -7.454 -17.802  0.00  0.00    -0.646 OA
ENDBRANCH   5   6
BRANCH   5   9
HETATM    9  C           1     -29.373  -5.043 -18.571  0.00  0.00     0.045 C 
BRANCH   9  10
HETATM   10  C           1     -29.662  -4.301 -17.273  0.00  0.00     0.105 C 
BRANCH  10  11
HETATM   11  C           1     -31.145  -4.043 -17.159  0.00  0.00     0.215 C 
HETATM   12  O           1     -31.621  -3.037 -17.629  0.00  0.00    -0.274 OA
HETATM   13  N           1     -31.949  -4.949 -16.523  0.00  0.00    -0.370 N 
HETATM   14  H           1     -32.944  -4.777 -16.446  0.00  0.00     0.159 HD
HETATM   15  H           1     -31.550  -5.792 -16.129  0.00  0.00     0.159 HD
ENDBRANCH  10  11
ENDBRANCH   9  10
ENDBRANCH   5   9
ENDBRANCH   3   5
BRANCH   2  16
HETATM   16  C           1     -25.159  -6.713 -19.640  0.00  0.00     0.302 C 
BRANCH  16  17
HETATM   17  C           1     -25.671  -7.294 -20.951  0.00  0.00     0.153 C 
HETATM   18  C           1     -24.493  -7.772 -21.789  0.00  0.00     0.042 C 
BRANCH  17  19
HETATM   19  O           1     -26.522  -8.376 -20.683  0.00  0.00    -0.393 OA
HETATM   20  H           1     -27.353  -8.176 -21.079  0.00  0.00     0.210 HD
ENDBRANCH  17  19
ENDBRANCH  16  17
BRANCH  16  21
HETATM   21  N           1     -24.189  -7.672 -19.015  0.00  0.00    -0.064 N 
HETATM   22  H           1     -24.515  -7.918 -18.052  0.00  0.00     0.275 HD
HETATM   23  H           1     -24.132  -8.539 -19.595  0.00  0.00     0.275 HD
HETATM   24  H           1     -23.245  -7.226 -18.961  0.00  0.00     0.275 HD
ENDBRANCH  16  21
ENDBRANCH   2  16
TORSDOF 9
ENDMDL
MODEL 3
REMARK VINA RESULT:      -5.9      1.627      5.541
REMARK  9 active torsions:
REMARK  status: ('A' for Active; 'I' for Inactive)
REMARK    1  A    between atoms: C_1  and  C_16 
REMARK    2  A    between atoms: C_1  and  O_13 
REMARK    3  A    between atoms: C_2  and  C_4 
REMARK    4  A    between atoms: C_4  and  C_21 
REMARK    5  A    between atoms: C_4  and  N_11 
REMARK       I    between atoms: C_7  and  N_11 
REMARK    6  A    between atoms: C_7  and  C_16 
REMARK       I    between atoms: C_12  and  N_17 
REMARK    7  A    between atoms: C_12  and  C_20 
REMARK    8  A    between atoms: C_16  and  N_19 
REMARK    9  A    between atoms: C_20  and  C_21 
ROOT
HETATM    1  H           1     -33.953  -1.276 -13.670  0.00  0.00     0.163 HD
HETATM    2  C           1     -35.956  -0.759 -13.629  0.00  0.00     0.251 C 
HETATM    3  N           1     -34.845  -1.448 -13.224  0.00  0.00    -0.345 N 
HETATM    4  O           1     -37.021  -0.964 -13.095  0.00  0.00    -0.271 OA
ENDROOT
BRANCH   3   5
HETATM    5  C           1     -34.944  -2.422 -12.156  0.00  0.00     0.186 C 
BRANCH   5   6
HETATM    6  C           1     -34.534  -1.783 -10.852  0.00  0.00     0.196 C 
HETATM    7  O           1     -33.334  -1.787 -10.503  0.00  0.00    -0.646 OA
HETATM    8  O           1     -35.395  -1.250 -10.119  0.00  0.00    -0.646 OA
ENDBRANCH   5   6
BRANCH   5   9
HETATM    9  C           1     -34.027  -3.600 -12.456  0.00  0.00     0.045 C 
BRANCH   9  10
HETATM   10  C           1     -34.819  -4.898 -12.364  0.00  0.00     0.105 C 
BRANCH  10  11
HETATM   11  C           1     -34.373  -5.675 -11.149  0.00  0.00     0.215 C 
HETATM   12  O           1     -33.878  -5.098 -10.211  0.00  0.00    -0.274 OA
HETATM   13  N           1     -34.529  -7.034 -11.112  0.00  0.00    -0.370 N 
HETATM   14  H           1     -34.230  -7.556 -10.298  0.00  0.00     0.159 HD
HETATM   15  H           1     -34.944  -7.518 -11.898  0.00  0.00     0.159 HD
ENDBRANCH  10  11
ENDBRANCH   9  10
ENDBRANCH   5   9
ENDBRANCH   3   5
BRANCH   2  16
HETATM   16  C           1     -35.853   0.256 -14.740  0.00  0.00     0.302 C 
BRANCH  16  17
HETATM   17  C           1     -36.435  -0.328 -16.019  0.00  0.00     0.153 C 
HETATM   18  C           1     -35.463  -1.345 -16.602  0.00  0.00     0.042 C 
BRANCH  17  19
HETATM   19  O           1     -37.655  -0.958 -15.734  0.00  0.00    -0.393 OA
HETATM   20  H           1     -37.501  -1.534 -15.005  0.00  0.00     0.210 HD
ENDBRANCH  17  19
ENDBRANCH  16  17
BRANCH  16  21
HETATM   21  N           1     -34.411   0.607 -14.962  0.00  0.00    -0.064 N 
HETATM   22  H           1     -33.915   0.639 -14.042  0.00  0.00     0.275 HD
HETATM   23  H           1     -33.966  -0.115 -15.573  0.00  0.00     0.275 HD
HETATM   24  H           1     -34.347   1.541 -15.425  0.00  0.00     0.275 HD
ENDBRANCH  16  21
ENDBRANCH   2  16
TORSDOF 9
ENDMDL
MODEL 4
REMARK VINA RESULT:      -5.9      2.373      6.404
REMARK  9 active torsions:
REMARK  status: ('A' for Active; 'I' for Inactive)
REMARK    1  A    between atoms: C_1  and  C_16 
REMARK    2  A    between atoms: C_1  and  O_13 
REMARK    3  A    between atoms: C_2  and  C_4 
REMARK    4  A    between atoms: C_4  and  C_21 
REMARK    5  A    between atoms: C_4  and  N_11 
REMARK       I    between atoms: C_7  and  N_11 
REMARK    6  A    between atoms: C_7  and  C_16 
REMARK       I    between atoms: C_12  and  N_17 
REMARK    7  A    between atoms: C_12  and  C_20 
REMARK    8  A    between atoms: C_16  and  N_19 
REMARK    9  A    between atoms: C_20  and  C_21 
ROOT
HETATM    1  H           1     -36.051  -3.467 -12.009  0.00  0.00     0.163 HD
HETATM    2  C           1     -34.967  -1.778 -11.505  0.00  0.00     0.251 C 
HETATM    3  N           1     -35.178  -3.125 -11.629  0.00  0.00    -0.345 N 
HETATM    4  O           1     -33.924  -1.369 -11.052  0.00  0.00    -0.271 OA
ENDROOT
BRANCH   3   5
HETATM    5  C           1     -34.150  -4.061 -11.218  0.00  0.00     0.186 C 
BRANCH   5   6
HETATM    6  C           1     -33.148  -4.230 -12.333  0.00  0.00     0.196 C 
HETATM    7  O           1     -33.509  -4.104 -13.523  0.00  0.00    -0.646 OA
HETATM    8  O           1     -31.956  -4.497 -12.067  0.00  0.00    -0.646 OA
ENDBRANCH   5   6
BRANCH   5   9
HETATM    9  C           1     -34.787  -5.407 -10.899  0.00  0.00     0.045 C 
BRANCH   9  10
HETATM   10  C           1     -33.705  -6.474 -10.812  0.00  0.00     0.105 C 
BRANCH  10  11
HETATM   11  C           1     -34.287  -7.735 -10.220  0.00  0.00     0.215 C 
HETATM   12  O           1     -35.404  -7.726  -9.760  0.00  0.00    -0.274 OA
HETATM   13  N           1     -33.549  -8.887 -10.205  0.00  0.00    -0.370 N 
HETATM   14  H           1     -33.939  -9.733  -9.808  0.00  0.00     0.159 HD
HETATM   15  H           1     -32.613  -8.895 -10.591  0.00  0.00     0.159 HD
ENDBRANCH  10  11
ENDBRANCH   9  10
ENDBRANCH   5   9
ENDBRANCH   3   5
BRANCH   2  16
HETATM   16  C           1     -36.036  -0.804 -11.934  0.00  0.00     0.302 C 
BRANCH  16  17
HETATM   17  C           1     -35.895  -0.517 -13.422  0.00  0.00     0.153 C 
HETATM   18  C           1     -35.128   0.784 -13.619  0.00  0.00     0.042 C 
BRANCH  17  19
HETATM   19  O           1     -35.199  -1.567 -14.038  0.00  0.00    -0.393 OA
HETATM   20  H           1     -35.750  -2.329 -13.985  0.00  0.00     0.210 HD
ENDBRANCH  17  19
ENDBRANCH  16  17
BRANCH  16  21
HETATM   21  N           1     -35.885   0.474 -11.163  0.00  0.00    -0.064 N 
HETATM   22  H           1     -36.415   1.236 -11.645  0.00  0.00     0.275 HD
HETATM   23  H           1     -36.262   0.346 -10.196  0.00  0.00     0.275 HD
HETATM   24  H           1     -34.874   0.732 -11.111  0.00  0.00     0.275 HD
ENDBRANCH  16  21
ENDBRANCH   2  16
TORSDOF 9
ENDMDL
MODEL 5
REMARK VINA RESULT:      -5.6      2.309      3.669
REMARK  9 active torsions:
REMARK  status: ('A' for Active; 'I' for Inactive)
REMARK    1  A    between atoms: C_1  and  C_16 
REMARK    2  A    between atoms: C_1  and  O_13 
REMARK    3  A    between atoms: C_2  and  C_4 
REMARK    4  A    between atoms: C_4  and  C_21 
REMARK    5  A    between atoms: C_4  and  N_11 
REMARK       I    between atoms: C_7  and  N_11 
REMARK    6  A    between atoms: C_7  and  C_16 
REMARK       I    between atoms: C_12  and  N_17 
REMARK    7  A    between atoms: C_12  and  C_20 
REMARK    8  A    between atoms: C_16  and  N_19 
REMARK    9  A    between atoms: C_20  and  C_21 
ROOT
HETATM    1  H           1     -34.718  -1.713 -11.332  0.00  0.00     0.163 HD
HETATM    2  C           1     -34.425  -2.901 -13.002  0.00  0.00     0.251 C 
HETATM    3  N           1     -34.944  -1.839 -12.310  0.00  0.00    -0.345 N 
HETATM    4  O           1     -34.695  -3.049 -14.171  0.00  0.00    -0.271 OA
ENDROOT
BRANCH   3   5
HETATM    5  C           1     -35.816  -0.894 -12.980  0.00  0.00     0.186 C 
BRANCH   5   6
HETATM    6  C           1     -35.012   0.302 -13.428  0.00  0.00     0.196 C 
HETATM    7  O           1     -34.691   1.185 -12.605  0.00  0.00    -0.646 OA
HETATM    8  O           1     -34.669   0.410 -14.626  0.00  0.00    -0.646 OA
ENDBRANCH   5   6
BRANCH   5   9
HETATM    9  C           1     -36.907  -0.441 -12.018  0.00  0.00     0.045 C 
BRANCH   9  10
HETATM   10  C           1     -36.753  -1.175 -10.693  0.00  0.00     0.105 C 
BRANCH  10  11
HETATM   11  C           1     -36.771  -0.177  -9.560  0.00  0.00     0.215 C 
HETATM   12  O           1     -37.160  -0.511  -8.466  0.00  0.00    -0.274 OA
HETATM   13  N           1     -36.346   1.106  -9.773  0.00  0.00    -0.370 N 
HETATM   14  H           1     -36.357   1.776  -9.014  0.00  0.00     0.159 HD
HETATM   15  H           1     -36.020   1.386 -10.689  0.00  0.00     0.159 HD
ENDBRANCH  10  11
ENDBRANCH   9  10
ENDBRANCH   5   9
ENDBRANCH   3   5
BRANCH   2  16
HETATM   16  C           1     -33.517  -3.883 -12.307  0.00  0.00     0.302 C 
BRANCH  16  17
HETATM   17  C           1     -34.304  -5.134 -11.941  0.00  0.00     0.153 C 
HETATM   18  C           1     -35.181  -4.846 -10.730  0.00  0.00     0.042 C 
BRANCH  17  19
HETATM   19  O           1     -35.112  -5.512 -13.023  0.00  0.00    -0.393 OA
HETATM   20  H           1     -34.689  -5.198 -13.804  0.00  0.00     0.210 HD
ENDBRANCH  17  19
ENDBRANCH  16  17
BRANCH  16  21
HETATM   21  N           1     -32.966  -3.258 -11.060  0.00  0.00    -0.064 N 
HETATM   22  H           1     -32.032  -3.674 -10.845  0.00  0.00     0.275 HD
HETATM   23  H           1     -32.864  -2.227 -11.201  0.00  0.00     0.275 HD
HETATM   24  H           1     -33.619  -3.436 -10.263  0.00  0.00     0.275 HD
ENDBRANCH  16  21
ENDBRANCH   2  16
TORSDOF 9
ENDMDL
MODEL 6
REMARK VINA RESULT:      -5.6      9.932     11.362
REMARK  9 active torsions:
REMARK  status: ('A' for Active; 'I' for Inactive)
REMARK    1  A    between atoms: C_1  and  C_16 
REMARK    2  A    between atoms: C_1  and  O_13 
REMARK    3  A    between atoms: C_2  and  C_4 
REMARK    4  A    between atoms: C_4  and  C_21 
REMARK    5  A    between atoms: C_4  and  N_11 
REMARK       I    between atoms: C_7  and  N_11 
REMARK    6  A    between atoms: C_7  and  C_16 
REMARK       I    between atoms: C_12  and  N_17 
REMARK    7  A    between atoms: C_12  and  C_20 
REMARK    8  A    between atoms: C_16  and  N_19 
REMARK    9  A    between atoms: C_20  and  C_21 
ROOT
HETATM    1  H           1     -26.306  -6.701 -17.664  0.00  0.00     0.163 HD
HETATM    2  C           1     -26.353  -6.363 -19.705  0.00  0.00     0.251 C 
HETATM    3  N           1     -26.874  -6.385 -18.439  0.00  0.00    -0.345 N 
HETATM    4  O           1     -27.032  -5.984 -20.630  0.00  0.00    -0.271 OA
ENDROOT
BRANCH   3   5
HETATM    5  C           1     -28.239  -5.954 -18.208  0.00  0.00     0.186 C 
BRANCH   5   6
HETATM    6  C           1     -28.232  -4.637 -17.471  0.00  0.00     0.196 C 
HETATM    7  O           1     -29.084  -3.764 -17.742  0.00  0.00    -0.646 OA
HETATM    8  O           1     -27.373  -4.419 -16.589  0.00  0.00    -0.646 OA
ENDBRANCH   5   6
BRANCH   5   9
HETATM    9  C           1     -28.967  -7.000 -17.375  0.00  0.00     0.045 C 
BRANCH   9  10
HETATM   10  C           1     -30.299  -7.335 -18.032  0.00  0.00     0.105 C 
BRANCH  10  11
HETATM   11  C           1     -31.415  -6.632 -17.297  0.00  0.00     0.215 C 
HETATM   12  O           1     -32.566  -6.913 -17.534  0.00  0.00    -0.274 OA
HETATM   13  N           1     -31.121  -5.677 -16.362  0.00  0.00    -0.370 N 
HETATM   14  H           1     -31.869  -5.205 -15.869  0.00  0.00     0.159 HD
HETATM   15  H           1     -30.157  -5.442 -16.163  0.00  0.00     0.159 HD
ENDBRANCH  10  11
ENDBRANCH   9  10
ENDBRANCH   5   9
ENDBRANCH   3   5
BRANCH   2  16
HETATM   16  C           1     -24.933  -6.810 -19.945  0.00  0.00     0.302 C 
BRANCH  16  17
HETATM   17  C           1     -24.873  -7.662 -21.205  0.00  0.00     0.153 C 
HETATM   18  C           1     -23.531  -8.378 -21.272  0.00  0.00     0.042 C 
BRANCH  17  19
HETATM   19  O           1     -25.907  -8.610 -21.179  0.00  0.00    -0.393 OA
HETATM   20  H           1     -25.977  -8.914 -20.290  0.00  0.00     0.210 HD
ENDBRANCH  17  19
ENDBRANCH  16  17
BRANCH  16  21
HETATM   21  N           1     -24.460  -7.618 -18.774  0.00  0.00    -0.064 N 
HETATM   22  H           1     -25.183  -8.333 -18.529  0.00  0.00     0.275 HD
HETATM   23  H           1     -23.565  -8.100 -19.019  0.00  0.00     0.275 HD
HETATM   24  H           1     -24.302  -6.987 -17.956  0.00  0.00     0.275 HD
ENDBRANCH  16  21
ENDBRANCH   2  16
TORSDOF 9
ENDMDL
MODEL 7
REMARK VINA RESULT:      -5.5      1.735      4.921
REMARK  9 active torsions:
REMARK  status: ('A' for Active; 'I' for Inactive)
REMARK    1  A    between atoms: C_1  and  C_16 
REMARK    2  A    between atoms: C_1  and  O_13 
REMARK    3  A    between atoms: C_2  and  C_4 
REMARK    4  A    between atoms: C_4  and  C_21 
REMARK    5  A    between atoms: C_4  and  N_11 
REMARK       I    between atoms: C_7  and  N_11 
REMARK    6  A    between atoms: C_7  and  C_16 
REMARK       I    between atoms: C_12  and  N_17 
REMARK    7  A    between atoms: C_12  and  C_20 
REMARK    8  A    between atoms: C_16  and  N_19 
REMARK    9  A    between atoms: C_20  and  C_21 
ROOT
HETATM    1  H           1     -34.675  -0.379 -13.045  0.00  0.00     0.163 HD
HETATM    2  C           1     -36.488  -0.365 -14.043  0.00  0.00     0.251 C 
HETATM    3  N           1     -35.640  -0.684 -13.017  0.00  0.00    -0.345 N 
HETATM    4  O           1     -37.640  -0.728 -14.009  0.00  0.00    -0.271 OA
ENDROOT
BRANCH   3   5
HETATM    5  C           1     -36.123  -1.458 -11.891  0.00  0.00     0.186 C 
BRANCH   5   6
HETATM    6  C           1     -36.863  -0.552 -10.938  0.00  0.00     0.196 C 
HETATM    7  O           1     -38.074  -0.748 -10.701  0.00  0.00    -0.646 OA
HETATM    8  O           1     -36.264   0.397 -10.387  0.00  0.00    -0.646 OA
ENDBRANCH   5   6
BRANCH   5   9
HETATM    9  C           1     -34.943  -2.098 -11.171  0.00  0.00     0.045 C 
BRANCH   9  10
HETATM   10  C           1     -34.902  -3.587 -11.486  0.00  0.00     0.105 C 
BRANCH  10  11
HETATM   11  C           1     -33.957  -3.833 -12.637  0.00  0.00     0.215 C 
HETATM   12  O           1     -34.271  -3.505 -13.756  0.00  0.00    -0.274 OA
HETATM   13  N           1     -32.745  -4.426 -12.411  0.00  0.00    -0.370 N 
HETATM   14  H           1     -32.110  -4.591 -13.183  0.00  0.00     0.159 HD
HETATM   15  H           1     -32.482  -4.701 -11.473  0.00  0.00     0.159 HD
ENDBRANCH  10  11
ENDBRANCH   9  10
ENDBRANCH   5   9
ENDBRANCH   3   5
BRANCH   2  16
HETATM   16  C           1     -35.986   0.442 -15.214  0.00  0.00     0.302 C 
BRANCH  16  17
HETATM   17  C           1     -36.170  -0.356 -16.498  0.00  0.00     0.153 C 
HETATM   18  C           1     -35.317  -1.616 -16.439  0.00  0.00     0.042 C 
BRANCH  17  19
HETATM   19  O           1     -37.519  -0.711 -16.640  0.00  0.00    -0.393 OA
HETATM   20  H           1     -37.541  -1.502 -17.151  0.00  0.00     0.210 HD
ENDBRANCH  17  19
ENDBRANCH  16  17
BRANCH  16  21
HETATM   21  N           1     -34.530   0.749 -15.022  0.00  0.00    -0.064 N 
HETATM   22  H           1     -34.016   0.571 -15.915  0.00  0.00     0.275 HD
HETATM   23  H           1     -34.417   1.751 -14.748  0.00  0.00     0.275 HD
HETATM   24  H           1     -34.142   0.137 -14.269  0.00  0.00     0.275 HD
ENDBRANCH  16  21
ENDBRANCH   2  16
TORSDOF 9
ENDMDL
MODEL 8
REMARK VINA RESULT:      -5.5      9.827     11.184
REMARK  9 active torsions:
REMARK  status: ('A' for Active; 'I' for Inactive)
REMARK    1  A    between atoms: C_1  and  C_16 
REMARK    2  A    between atoms: C_1  and  O_13 
REMARK    3  A    between atoms: C_2  and  C_4 
REMARK    4  A    between atoms: C_4  and  C_21 
REMARK    5  A    between atoms: C_4  and  N_11 
REMARK       I    between atoms: C_7  and  N_11 
REMARK    6  A    between atoms: C_7  and  C_16 
REMARK       I    between atoms: C_12  and  N_17 
REMARK    7  A    between atoms: C_12  and  C_20 
REMARK    8  A    between atoms: C_16  and  N_19 
REMARK    9  A    between atoms: C_20  and  C_21 
ROOT
HETATM    1  H           1     -27.374  -7.573 -18.039  0.00  0.00     0.163 HD
HETATM    2  C           1     -26.882  -6.713 -19.856  0.00  0.00     0.251 C 
HETATM    3  N           1     -27.390  -6.721 -18.584  0.00  0.00    -0.345 N 
HETATM    4  O           1     -26.901  -5.694 -20.507  0.00  0.00    -0.271 OA
ENDROOT
BRANCH   3   5
HETATM    5  C           1     -27.949  -5.509 -18.019  0.00  0.00     0.186 C 
BRANCH   5   6
HETATM    6  C           1     -27.521  -5.382 -16.578  0.00  0.00     0.196 C 
HETATM    7  O           1     -26.306  -5.323 -16.289  0.00  0.00    -0.646 OA
HETATM    8  O           1     -28.381  -5.338 -15.672  0.00  0.00    -0.646 OA
ENDBRANCH   5   6
BRANCH   5   9
HETATM    9  C           1     -29.469  -5.568 -18.094  0.00  0.00     0.045 C 
BRANCH   9  10
HETATM   10  C           1     -30.029  -4.155 -18.190  0.00  0.00     0.105 C 
BRANCH  10  11
HETATM   11  C           1     -31.243  -4.033 -17.302  0.00  0.00     0.215 C 
HETATM   12  O           1     -32.035  -3.139 -17.481  0.00  0.00    -0.274 OA
HETATM   13  N           1     -31.446  -4.937 -16.294  0.00  0.00    -0.370 N 
HETATM   14  H           1     -32.261  -4.856 -15.698  0.00  0.00     0.159 HD
HETATM   15  H           1     -30.783  -5.686 -16.145  0.00  0.00     0.159 HD
ENDBRANCH  10  11
ENDBRANCH   9  10
ENDBRANCH   5   9
ENDBRANCH   3   5
BRANCH   2  16
HETATM   16  C           1     -26.299  -7.973 -20.444  0.00  0.00     0.302 C 
BRANCH  16  17
HETATM   17  C           1     -25.025  -7.637 -21.207  0.00  0.00     0.153 C 
HETATM   18  C           1     -23.849  -7.596 -20.240  0.00  0.00     0.042 C 
BRANCH  17  19
HETATM   19  O           1     -24.792  -8.616 -22.184  0.00  0.00    -0.393 OA
HETATM   20  H           1     -24.698  -8.165 -23.006  0.00  0.00     0.210 HD
ENDBRANCH  17  19
ENDBRANCH  16  17
BRANCH  16  21
HETATM   21  N           1     -27.293  -8.593 -21.381  0.00  0.00    -0.064 N 
HETATM   22  H           1     -28.128  -8.915 -20.840  0.00  0.00     0.275 HD
HETATM   23  H           1     -27.591  -7.886 -22.092  0.00  0.00     0.275 HD
HETATM   24  H           1     -26.854  -9.409 -21.865  0.00  0.00     0.275 HD
ENDBRANCH  16  21
ENDBRANCH   2  16
TORSDOF 9
ENDMDL
MODEL 9
REMARK VINA RESULT:      -5.2     15.530     17.882
REMARK  9 active torsions:
REMARK  status: ('A' for Active; 'I' for Inactive)
REMARK    1  A    between atoms: C_1  and  C_16 
REMARK    2  A    between atoms: C_1  and  O_13 
REMARK    3  A    between atoms: C_2  and  C_4 
REMARK    4  A    between atoms: C_4  and  C_21 
REMARK    5  A    between atoms: C_4  and  N_11 
REMARK       I    between atoms: C_7  and  N_11 
REMARK    6  A    between atoms: C_7  and  C_16 
REMARK       I    between atoms: C_12  and  N_17 
REMARK    7  A    between atoms: C_12  and  C_20 
REMARK    8  A    between atoms: C_16  and  N_19 
REMARK    9  A    between atoms: C_20  and  C_21 
ROOT
HETATM    1  H           1     -21.431  -7.327  -6.895  0.00  0.00     0.163 HD
HETATM    2  C           1     -21.059  -5.302  -6.686  0.00  0.00     0.251 C 
HETATM    3  N           1     -21.094  -6.606  -6.270  0.00  0.00    -0.345 N 
HETATM    4  O           1     -20.656  -4.441  -5.940  0.00  0.00    -0.271 OA
ENDROOT
BRANCH   3   5
HETATM    5  C           1     -20.649  -6.954  -4.935  0.00  0.00     0.186 C 
BRANCH   5   6
HETATM    6  C           1     -19.866  -8.242  -4.986  0.00  0.00     0.196 C 
HETATM    7  O           1     -19.186  -8.522  -5.997  0.00  0.00    -0.646 OA
HETATM    8  O           1     -19.899  -9.032  -4.017  0.00  0.00    -0.646 OA
ENDBRANCH   5   6
BRANCH   5   9
HETATM    9  C           1     -21.858  -7.128  -4.026  0.00  0.00     0.045 C 
BRANCH   9  10
HETATM   10  C           1     -21.713  -6.227  -2.807  0.00  0.00     0.105 C 
BRANCH  10  11
HETATM   11  C           1     -21.827  -7.056  -1.551  0.00  0.00     0.215 C 
HETATM   12  O           1     -22.739  -6.865  -0.782  0.00  0.00    -0.274 OA
HETATM   13  N           1     -20.897  -8.024  -1.284  0.00  0.00    -0.370 N 
HETATM   14  H           1     -20.974  -8.581  -0.442  0.00  0.00     0.159 HD
HETATM   15  H           1     -20.133  -8.184  -1.928  0.00  0.00     0.159 HD
ENDBRANCH  10  11
ENDBRANCH   9  10
ENDBRANCH   5   9
ENDBRANCH   3   5
BRANCH   2  16
HETATM   16  C           1     -21.521  -4.940  -8.076  0.00  0.00     0.302 C 
BRANCH  16  17
HETATM   17  C           1     -20.312  -4.671  -8.961  0.00  0.00     0.153 C 
HETATM   18  C           1     -20.777  -4.131 -10.306  0.00  0.00     0.042 C 
BRANCH  17  19
HETATM   19  O           1     -19.479  -3.727  -8.342  0.00  0.00    -0.393 OA
HETATM   20  H           1     -19.910  -3.461  -7.547  0.00  0.00     0.210 HD
ENDBRANCH  17  19
ENDBRANCH  16  17
BRANCH  16  21
HETATM   21  N           1     -22.376  -3.710  -8.012  0.00  0.00    -0.064 N 
HETATM   22  H           1     -23.368  -3.963  -8.228  0.00  0.00     0.275 HD
HETATM   23  H           1     -22.324  -3.296  -7.053  0.00  0.00     0.275 HD
HETATM   24  H           1     -22.035  -3.012  -8.711  0.00  0.00     0.275 HD
ENDBRANCH  16  21
ENDBRANCH   2  16
TORSDOF 9
ENDMDL
