MODEL 1
REMARK VINA RESULT:      -5.9      0.000      0.000
REMARK  8 active torsions:
REMARK  status: ('A' for Active; 'I' for Inactive)
REMARK       I    between atoms: C_2  and  N_11 
REMARK    1  A    between atoms: C_2  and  C_12 
REMARK    2  A    between atoms: N_5  and  C_22 
REMARK       I    between atoms: N_5  and  C_23 
REMARK    3  A    between atoms: C_6  and  C_7 
REMARK    4  A    between atoms: C_6  and  C_19 
REMARK    5  A    between atoms: C_7  and  C_23 
REMARK    6  A    between atoms: C_7  and  N_14 
REMARK    7  A    between atoms: C_12  and  C_22 
REMARK    8  A    between atoms: C_21  and  C_22 
ROOT
HETATM    1  H           1     -20.371  -4.510  -4.549  0.00  0.00     0.163 HD
HETATM    2  N           1     -20.887  -5.257  -4.995  0.00  0.00    -0.344 N 
HETATM    3  O           1     -22.044  -7.154  -4.770  0.00  0.00    -0.271 OA
HETATM    4  C           1     -21.429  -6.261  -4.238  0.00  0.00     0.249 C 
ENDROOT
BRANCH   2   5
HETATM    5  C           1     -21.051  -5.266  -6.436  0.00  0.00     0.194 C 
BRANCH   5   6
HETATM    6  C           1     -21.485  -3.883  -6.905  0.00  0.00     0.138 C 
BRANCH   6   7
HETATM    7  C           1     -22.412  -4.020  -8.087  0.00  0.00     0.217 C 
HETATM    8  O           1     -21.961  -4.062  -9.207  0.00  0.00    -0.274 OA
HETATM    9  N           1     -23.764  -4.097  -7.891  0.00  0.00    -0.370 N 
HETATM   10  H           1     -24.143  -4.062  -6.953  0.00  0.00     0.159 HD
HETATM   11  H           1     -24.387  -4.189  -8.684  0.00  0.00     0.159 HD
ENDBRANCH   6   7
ENDBRANCH   5   6
BRANCH   5  12
HETATM   12  C           1     -19.740  -5.630  -7.088  0.00  0.00     0.197 C 
HETATM   13  O           1     -19.017  -4.737  -7.581  0.00  0.00    -0.646 OA
HETATM   14  O           1     -19.377  -6.825  -7.136  0.00  0.00    -0.646 OA
ENDBRANCH   5  12
ENDBRANCH   2   5
BRANCH   4  15
HETATM   15  C           1     -21.258  -6.252  -2.738  0.00  0.00     0.275 C 
BRANCH  15  16
HETATM   16  C           1     -20.752  -7.612  -2.276  0.00  0.00     0.046 C 
BRANCH  16  17
HETATM   17  C           1     -21.783  -8.251  -1.355  0.00  0.00    -0.020 C 
HETATM   18  C           1     -21.214  -8.341   0.056  0.00  0.00     0.009 C 
HETATM   19  C           1     -22.116  -9.650  -1.858  0.00  0.00     0.009 C 
ENDBRANCH  16  17
ENDBRANCH  15  16
BRANCH  15  20
HETATM   20  N           1     -22.578  -5.962  -2.088  0.00  0.00    -0.066 N 
HETATM   21  H           1     -23.319  -6.559  -2.521  0.00  0.00     0.275 HD
HETATM   22  H           1     -22.819  -4.954  -2.223  0.00  0.00     0.275 HD
HETATM   23  H           1     -22.516  -6.172  -1.065  0.00  0.00     0.275 HD
ENDBRANCH  15  20
ENDBRANCH   4  15
TORSDOF 8
ENDMDL
MODEL 2
REMARK VINA RESULT:      -5.7      2.085      5.983
REMARK  8 active torsions:
REMARK  status: ('A' for Active; 'I' for Inactive)
REMARK       I    between atoms: C_2  and  N_11 
REMARK    1  A    between atoms: C_2  and  C_12 
REMARK    2  A    between atoms: N_5  and  C_22 
REMARK       I    between atoms: N_5  and  C_23 
REMARK    3  A    between atoms: C_6  and  C_7 
REMARK    4  A    between atoms: C_6  and  C_19 
REMARK    5  A    between atoms: C_7  and  C_23 
REMARK    6  A    between atoms: C_7  and  N_14 
REMARK    7  A    between atoms: C_12  and  C_22 
REMARK    8  A    between atoms: C_21  and  C_22 
ROOT
HETATM    1  H           1     -22.323  -7.374  -5.544  0.00  0.00     0.163 HD
HETATM    2  N           1     -21.574  -6.801  -5.177  0.00  0.00    -0.344 N 
HETATM    3  O           1     -20.424  -4.890  -5.288  0.00  0.00    -0.271 OA
HETATM    4  C           1     -21.319  -5.573  -5.726  0.00  0.00     0.249 C 
ENDROOT
BRANCH   2   5
HETATM    5  C           1     -20.771  -7.281  -4.069  0.00  0.00     0.194 C 
BRANCH   5   6
HETATM    6  C           1     -21.683  -7.854  -2.993  0.00  0.00     0.138 C 
BRANCH   6   7
HETATM    7  C           1     -22.016  -6.778  -1.989  0.00  0.00     0.217 C 
HETATM    8  O           1     -22.004  -5.617  -2.322  0.00  0.00    -0.274 OA
HETATM    9  N           1     -22.331  -7.117  -0.701  0.00  0.00    -0.370 N 
HETATM   10  H           1     -22.340  -8.089  -0.422  0.00  0.00     0.159 HD
HETATM   11  H           1     -22.554  -6.394  -0.028  0.00  0.00     0.159 HD
ENDBRANCH   6   7
ENDBRANCH   5   6
BRANCH   5  12
HETATM   12  C           1     -19.832  -8.357  -4.559  0.00  0.00     0.197 C 
HETATM   13  O           1     -19.865  -8.718  -5.755  0.00  0.00    -0.646 OA
HETATM   14  O           1     -19.021  -8.886  -3.768  0.00  0.00    -0.646 OA
ENDBRANCH   5  12
ENDBRANCH   2   5
BRANCH   4  15
HETATM   15  C           1     -22.155  -5.073  -6.879  0.00  0.00     0.275 C 
BRANCH  15  16
HETATM   16  C           1     -21.603  -3.740  -7.367  0.00  0.00     0.046 C 
BRANCH  16  17
HETATM   17  C           1     -21.222  -3.855  -8.837  0.00  0.00    -0.020 C 
HETATM   18  C           1     -22.418  -4.368  -9.631  0.00  0.00     0.009 C 
HETATM   19  C           1     -20.060  -4.828  -8.987  0.00  0.00     0.009 C 
ENDBRANCH  16  17
ENDBRANCH  15  16
BRANCH  15  20
HETATM   20  N           1     -23.572  -4.891  -6.425  0.00  0.00    -0.066 N 
HETATM   21  H           1     -24.044  -4.183  -7.030  0.00  0.00     0.275 HD
HETATM   22  H           1     -23.581  -4.563  -5.433  0.00  0.00     0.275 HD
HETATM   23  H           1     -24.080  -5.803  -6.495  0.00  0.00     0.275 HD
ENDBRANCH  15  20
ENDBRANCH   4  15
TORSDOF 8
ENDMDL
MODEL 3
REMARK VINA RESULT:      -5.7      1.827      2.431
REMARK  8 active torsions:
REMARK  status: ('A' for Active; 'I' for Inactive)
REMARK       I    between atoms: C_2  and  N_11 
REMARK    1  A    between atoms: C_2  and  C_12 
REMARK    2  A    between atoms: N_5  and  C_22 
REMARK       I    between atoms: N_5  and  C_23 
REMARK    3  A    between atoms: C_6  and  C_7 
REMARK    4  A    between atoms: C_6  and  C_19 
REMARK    5  A    between atoms: C_7  and  C_23 
REMARK    6  A    between atoms: C_7  and  N_14 
REMARK    7  A    between atoms: C_12  and  C_22 
REMARK    8  A    between atoms: C_21  and  C_22 
ROOT
HETATM    1  H           1     -22.093  -3.969  -6.528  0.00  0.00     0.163 HD
HETATM    2  N           1     -21.793  -4.760  -7.083  0.00  0.00    -0.344 N 
HETATM    3  O           1     -21.021  -6.856  -7.129  0.00  0.00    -0.271 OA
HETATM    4  C           1     -21.381  -5.912  -6.466  0.00  0.00     0.249 C 
ENDROOT
BRANCH   2   5
HETATM    5  C           1     -21.798  -4.674  -8.530  0.00  0.00     0.194 C 
BRANCH   5   6
HETATM    6  C           1     -22.760  -3.579  -8.969  0.00  0.00     0.138 C 
BRANCH   6   7
HETATM    7  C           1     -23.712  -4.128 -10.003  0.00  0.00     0.217 C 
HETATM    8  O           1     -23.387  -4.161 -11.166  0.00  0.00    -0.274 OA
HETATM    9  N           1     -24.944  -4.588  -9.624  0.00  0.00    -0.370 N 
HETATM   10  H           1     -25.216  -4.560  -8.650  0.00  0.00     0.159 HD
HETATM   11  H           1     -25.582  -4.957 -10.318  0.00  0.00     0.159 HD
ENDBRANCH   6   7
ENDBRANCH   5   6
BRANCH   5  12
HETATM   12  C           1     -20.408  -4.350  -9.019  0.00  0.00     0.197 C 
HETATM   13  O           1     -20.032  -4.749 -10.143  0.00  0.00    -0.646 OA
HETATM   14  O           1     -19.633  -3.683  -8.301  0.00  0.00    -0.646 OA
ENDBRANCH   5  12
ENDBRANCH   2   5
BRANCH   4  15
HETATM   15  C           1     -21.375  -6.001  -4.960  0.00  0.00     0.275 C 
BRANCH  15  16
HETATM   16  C           1     -20.546  -7.202  -4.525  0.00  0.00     0.046 C 
BRANCH  16  17
HETATM   17  C           1     -21.328  -8.015  -3.500  0.00  0.00    -0.020 C 
HETATM   18  C           1     -20.582  -8.005  -2.172  0.00  0.00     0.009 C 
HETATM   19  C           1     -21.472  -9.449  -3.992  0.00  0.00     0.009 C 
ENDBRANCH  16  17
ENDBRANCH  15  16
BRANCH  15  20
HETATM   20  N           1     -22.782  -6.159  -4.464  0.00  0.00    -0.066 N 
HETATM   21  H           1     -22.935  -7.145  -4.157  0.00  0.00     0.275 HD
HETATM   22  H           1     -23.450  -5.926  -5.233  0.00  0.00     0.275 HD
HETATM   23  H           1     -22.942  -5.513  -3.657  0.00  0.00     0.275 HD
ENDBRANCH  15  20
ENDBRANCH   4  15
TORSDOF 8
ENDMDL
MODEL 4
REMARK VINA RESULT:      -5.6      2.487      6.252
REMARK  8 active torsions:
REMARK  status: ('A' for Active; 'I' for Inactive)
REMARK       I    between atoms: C_2  and  N_11 
REMARK    1  A    between atoms: C_2  and  C_12 
REMARK    2  A    between atoms: N_5  and  C_22 
REMARK       I    between atoms: N_5  and  C_23 
REMARK    3  A    between atoms: C_6  and  C_7 
REMARK    4  A    between atoms: C_6  and  C_19 
REMARK    5  A    between atoms: C_7  and  C_23 
REMARK    6  A    between atoms: C_7  and  N_14 
REMARK    7  A    between atoms: C_12  and  C_22 
REMARK    8  A    between atoms: C_21  and  C_22 
ROOT
HETATM    1  H           1     -19.980  -6.519  -4.972  0.00  0.00     0.163 HD
HETATM    2  N           1     -20.989  -6.445  -5.002  0.00  0.00    -0.344 N 
HETATM    3  O           1     -22.789  -5.460  -5.884  0.00  0.00    -0.271 OA
HETATM    4  C           1     -21.584  -5.549  -5.849  0.00  0.00     0.249 C 
ENDROOT
BRANCH   2   5
HETATM    5  C           1     -21.803  -7.288  -4.148  0.00  0.00     0.194 C 
BRANCH   5   6
HETATM    6  C           1     -21.345  -8.734  -4.278  0.00  0.00     0.138 C 
BRANCH   6   7
HETATM    7  C           1     -19.900  -8.768  -4.713  0.00  0.00     0.217 C 
HETATM    8  O           1     -19.622  -8.694  -5.886  0.00  0.00    -0.274 OA
HETATM    9  N           1     -18.907  -8.884  -3.780  0.00  0.00    -0.370 N 
HETATM   10  H           1     -19.140  -8.947  -2.797  0.00  0.00     0.159 HD
HETATM   11  H           1     -17.937  -8.907  -4.072  0.00  0.00     0.159 HD
ENDBRANCH   6   7
ENDBRANCH   5   6
BRANCH   5  12
HETATM   12  C           1     -21.657  -6.840  -2.714  0.00  0.00     0.197 C 
HETATM   13  O           1     -22.347  -5.890  -2.283  0.00  0.00    -0.646 OA
HETATM   14  O           1     -20.847  -7.417  -1.958  0.00  0.00    -0.646 OA
ENDBRANCH   5  12
ENDBRANCH   2   5
BRANCH   4  15
HETATM   15  C           1     -20.737  -4.672  -6.738  0.00  0.00     0.275 C 
BRANCH  15  16
HETATM   16  C           1     -20.745  -5.227  -8.156  0.00  0.00     0.046 C 
BRANCH  16  17
HETATM   17  C           1     -21.091  -4.113  -9.136  0.00  0.00    -0.020 C 
HETATM   18  C           1     -22.603  -4.032  -9.296  0.00  0.00     0.009 C 
HETATM   19  C           1     -20.452  -4.408 -10.487  0.00  0.00     0.009 C 
ENDBRANCH  16  17
ENDBRANCH  15  16
BRANCH  15  20
HETATM   20  N           1     -19.330  -4.648  -6.219  0.00  0.00    -0.066 N 
HETATM   21  H           1     -18.845  -5.534  -6.485  0.00  0.00     0.275 HD
HETATM   22  H           1     -19.344  -4.557  -5.178  0.00  0.00     0.275 HD
HETATM   23  H           1     -18.820  -3.834  -6.633  0.00  0.00     0.275 HD
ENDBRANCH  15  20
ENDBRANCH   4  15
TORSDOF 8
ENDMDL
MODEL 5
REMARK VINA RESULT:      -5.5      2.081      6.594
REMARK  8 active torsions:
REMARK  status: ('A' for Active; 'I' for Inactive)
REMARK       I    between atoms: C_2  and  N_11 
REMARK    1  A    between atoms: C_2  and  C_12 
REMARK    2  A    between atoms: N_5  and  C_22 
REMARK       I    between atoms: N_5  and  C_23 
REMARK    3  A    between atoms: C_6  and  C_7 
REMARK    4  A    between atoms: C_6  and  C_19 
REMARK    5  A    between atoms: C_7  and  C_23 
REMARK    6  A    between atoms: C_7  and  N_14 
REMARK    7  A    between atoms: C_12  and  C_22 
REMARK    8  A    between atoms: C_21  and  C_22 
ROOT
HETATM    1  H           1     -22.927  -6.199  -7.393  0.00  0.00     0.163 HD
HETATM    2  N           1     -22.386  -5.422  -7.037  0.00  0.00    -0.344 N 
HETATM    3  O           1     -21.676  -3.323  -7.317  0.00  0.00    -0.271 OA
HETATM    4  C           1     -22.323  -4.251  -7.743  0.00  0.00     0.249 C 
ENDROOT
BRANCH   2   5
HETATM    5  C           1     -21.677  -5.550  -5.778  0.00  0.00     0.194 C 
BRANCH   5   6
HETATM    6  C           1     -22.303  -6.668  -4.955  0.00  0.00     0.138 C 
BRANCH   6   7
HETATM    7  C           1     -21.703  -6.671  -3.570  0.00  0.00     0.217 C 
HETATM    8  O           1     -22.030  -5.828  -2.769  0.00  0.00    -0.274 OA
HETATM    9  N           1     -20.789  -7.628  -3.222  0.00  0.00    -0.370 N 
HETATM   10  H           1     -20.515  -8.334  -3.894  0.00  0.00     0.159 HD
HETATM   11  H           1     -20.387  -7.630  -2.293  0.00  0.00     0.159 HD
ENDBRANCH   6   7
ENDBRANCH   5   6
BRANCH   5  12
HETATM   12  C           1     -20.228  -5.873  -6.048  0.00  0.00     0.197 C 
HETATM   13  O           1     -19.364  -4.973  -5.976  0.00  0.00    -0.646 OA
HETATM   14  O           1     -19.893  -7.040  -6.343  0.00  0.00    -0.646 OA
ENDBRANCH   5  12
ENDBRANCH   2   5
BRANCH   4  15
HETATM   15  C           1     -23.060  -4.118  -9.053  0.00  0.00     0.275 C 
BRANCH  15  16
HETATM   16  C           1     -22.348  -3.104  -9.937  0.00  0.00     0.046 C 
BRANCH  16  17
HETATM   17  C           1     -21.796  -3.804 -11.172  0.00  0.00    -0.020 C 
HETATM   18  C           1     -22.778  -4.876 -11.627  0.00  0.00     0.009 C 
HETATM   19  C           1     -20.459  -4.452 -10.834  0.00  0.00     0.009 C 
ENDBRANCH  16  17
ENDBRANCH  15  16
BRANCH  15  20
HETATM   20  N           1     -24.463  -3.656  -8.791  0.00  0.00    -0.066 N 
HETATM   21  H           1     -24.716  -3.855  -7.797  0.00  0.00     0.275 HD
HETATM   22  H           1     -25.121  -4.161  -9.426  0.00  0.00     0.275 HD
HETATM   23  H           1     -24.529  -2.627  -8.967  0.00  0.00     0.275 HD
ENDBRANCH  15  20
ENDBRANCH   4  15
TORSDOF 8
ENDMDL
MODEL 6
REMARK VINA RESULT:      -5.5     21.037     22.823
REMARK  8 active torsions:
REMARK  status: ('A' for Active; 'I' for Inactive)
REMARK       I    between atoms: C_2  and  N_11 
REMARK    1  A    between atoms: C_2  and  C_12 
REMARK    2  A    between atoms: N_5  and  C_22 
REMARK       I    between atoms: N_5  and  C_23 
REMARK    3  A    between atoms: C_6  and  C_7 
REMARK    4  A    between atoms: C_6  and  C_19 
REMARK    5  A    between atoms: C_7  and  C_23 
REMARK    6  A    between atoms: C_7  and  N_14 
REMARK    7  A    between atoms: C_12  and  C_22 
REMARK    8  A    between atoms: C_21  and  C_22 
ROOT
HETATM    1  H           1     -12.560   7.962 -21.608  0.00  0.00     0.163 HD
HETATM    2  N           1     -12.274   7.657 -20.687  0.00  0.00    -0.344 N 
HETATM    3  O           1     -12.070   5.977 -19.229  0.00  0.00    -0.271 OA
HETATM    4  C           1     -12.411   6.342 -20.329  0.00  0.00     0.249 C 
ENDROOT
BRANCH   2   5
HETATM    5  C           1     -11.720   8.610 -19.746  0.00  0.00     0.194 C 
BRANCH   5   6
HETATM    6  C           1     -10.737   9.522 -20.468  0.00  0.00     0.138 C 
BRANCH   6   7
HETATM    7  C           1      -9.455   8.771 -20.734  0.00  0.00     0.217 C 
HETATM    8  O           1      -9.283   7.680 -20.247  0.00  0.00    -0.274 OA
HETATM    9  N           1      -8.489   9.326 -21.528  0.00  0.00    -0.370 N 
HETATM   10  H           1      -8.634  10.241 -21.937  0.00  0.00     0.159 HD
HETATM   11  H           1      -7.629   8.823 -21.707  0.00  0.00     0.159 HD
ENDBRANCH   6   7
ENDBRANCH   5   6
BRANCH   5  12
HETATM   12  C           1     -12.835   9.439 -19.155  0.00  0.00     0.197 C 
HETATM   13  O           1     -13.553  10.141 -19.900  0.00  0.00    -0.646 OA
HETATM   14  O           1     -13.039   9.423 -17.922  0.00  0.00    -0.646 OA
ENDBRANCH   5  12
ENDBRANCH   2   5
BRANCH   4  15
HETATM   15  C           1     -12.988   5.349 -21.308  0.00  0.00     0.275 C 
BRANCH  15  16
HETATM   16  C           1     -11.856   4.596 -21.995  0.00  0.00     0.046 C 
BRANCH  16  17
HETATM   17  C           1     -11.913   3.125 -21.602  0.00  0.00    -0.020 C 
HETATM   18  C           1     -13.352   2.743 -21.278  0.00  0.00     0.009 C 
HETATM   19  C           1     -11.039   2.892 -20.377  0.00  0.00     0.009 C 
ENDBRANCH  16  17
ENDBRANCH  15  16
BRANCH  15  20
HETATM   20  N           1     -13.799   6.078 -22.338  0.00  0.00    -0.066 N 
HETATM   21  H           1     -13.734   5.576 -23.252  0.00  0.00     0.275 HD
HETATM   22  H           1     -13.431   7.050 -22.447  0.00  0.00     0.275 HD
HETATM   23  H           1     -14.798   6.116 -22.031  0.00  0.00     0.275 HD
ENDBRANCH  15  20
ENDBRANCH   4  15
TORSDOF 8
ENDMDL
MODEL 7
REMARK VINA RESULT:      -5.5      2.754      4.464
REMARK  8 active torsions:
REMARK  status: ('A' for Active; 'I' for Inactive)
REMARK       I    between atoms: C_2  and  N_11 
REMARK    1  A    between atoms: C_2  and  C_12 
REMARK    2  A    between atoms: N_5  and  C_22 
REMARK       I    between atoms: N_5  and  C_23 
REMARK    3  A    between atoms: C_6  and  C_7 
REMARK    4  A    between atoms: C_6  and  C_19 
REMARK    5  A    between atoms: C_7  and  C_23 
REMARK    6  A    between atoms: C_7  and  N_14 
REMARK    7  A    between atoms: C_12  and  C_22 
REMARK    8  A    between atoms: C_21  and  C_22 
ROOT
HETATM    1  H           1     -23.082  -4.110  -8.915  0.00  0.00     0.163 HD
HETATM    2  N           1     -22.232  -4.535  -9.262  0.00  0.00    -0.344 N 
HETATM    3  O           1     -20.301  -5.556  -8.798  0.00  0.00    -0.271 OA
HETATM    4  C           1     -21.316  -5.050  -8.384  0.00  0.00     0.249 C 
ENDROOT
BRANCH   2   5
HETATM    5  C           1     -21.984  -4.598 -10.689  0.00  0.00     0.194 C 
BRANCH   5   6
HETATM    6  C           1     -23.308  -4.735 -11.429  0.00  0.00     0.138 C 
BRANCH   6   7
HETATM    7  C           1     -24.426  -4.207 -10.563  0.00  0.00     0.217 C 
HETATM    8  O           1     -24.831  -3.080 -10.722  0.00  0.00    -0.274 OA
HETATM    9  N           1     -24.980  -5.003  -9.599  0.00  0.00    -0.370 N 
HETATM   10  H           1     -24.640  -5.947  -9.466  0.00  0.00     0.159 HD
HETATM   11  H           1     -25.730  -4.649  -9.018  0.00  0.00     0.159 HD
ENDBRANCH   6   7
ENDBRANCH   5   6
BRANCH   5  12
HETATM   12  C           1     -21.287  -3.335 -11.134  0.00  0.00     0.197 C 
HETATM   13  O           1     -21.948  -2.399 -11.632  0.00  0.00    -0.646 OA
HETATM   14  O           1     -20.048  -3.227 -11.004  0.00  0.00    -0.646 OA
ENDBRANCH   5  12
ENDBRANCH   2   5
BRANCH   4  15
HETATM   15  C           1     -21.575  -4.984  -6.898  0.00  0.00     0.275 C 
BRANCH  15  16
HETATM   16  C           1     -21.592  -6.394  -6.323  0.00  0.00     0.046 C 
BRANCH  16  17
HETATM   17  C           1     -20.652  -6.465  -5.126  0.00  0.00    -0.020 C 
HETATM   18  C           1     -19.957  -7.821  -5.109  0.00  0.00     0.009 C 
HETATM   19  C           1     -21.450  -6.288  -3.841  0.00  0.00     0.009 C 
ENDBRANCH  16  17
ENDBRANCH  15  16
BRANCH  15  20
HETATM   20  N           1     -22.901  -4.327  -6.652  0.00  0.00    -0.066 N 
HETATM   21  H           1     -23.010  -4.135  -5.631  0.00  0.00     0.275 HD
HETATM   22  H           1     -23.668  -4.961  -6.971  0.00  0.00     0.275 HD
HETATM   23  H           1     -22.948  -3.428  -7.183  0.00  0.00     0.275 HD
ENDBRANCH  15  20
ENDBRANCH   4  15
TORSDOF 8
ENDMDL
MODEL 8
REMARK VINA RESULT:      -5.4      3.571      4.986
REMARK  8 active torsions:
REMARK  status: ('A' for Active; 'I' for Inactive)
REMARK       I    between atoms: C_2  and  N_11 
REMARK    1  A    between atoms: C_2  and  C_12 
REMARK    2  A    between atoms: N_5  and  C_22 
REMARK       I    between atoms: N_5  and  C_23 
REMARK    3  A    between atoms: C_6  and  C_7 
REMARK    4  A    between atoms: C_6  and  C_19 
REMARK    5  A    between atoms: C_7  and  C_23 
REMARK    6  A    between atoms: C_7  and  N_14 
REMARK    7  A    between atoms: C_12  and  C_22 
REMARK    8  A    between atoms: C_21  and  C_22 
ROOT
HETATM    1  H           1     -22.666  -8.421  -1.771  0.00  0.00     0.163 HD
HETATM    2  N           1     -21.686  -8.539  -1.995  0.00  0.00    -0.344 N 
HETATM    3  O           1     -19.762  -9.591  -1.574  0.00  0.00    -0.271 OA
HETATM    4  C           1     -20.932  -9.452  -1.307  0.00  0.00     0.249 C 
ENDROOT
BRANCH   2   5
HETATM    5  C           1     -21.082  -7.741  -3.044  0.00  0.00     0.194 C 
BRANCH   5   6
HETATM    6  C           1     -21.138  -8.505  -4.359  0.00  0.00     0.138 C 
BRANCH   6   7
HETATM    7  C           1     -19.770  -8.512  -4.997  0.00  0.00     0.217 C 
HETATM    8  O           1     -19.584  -7.914  -6.030  0.00  0.00    -0.274 OA
HETATM    9  N           1     -18.742  -9.194  -4.406  0.00  0.00    -0.370 N 
HETATM   10  H           1     -18.898  -9.695  -3.541  0.00  0.00     0.159 HD
HETATM   11  H           1     -17.824  -9.198  -4.834  0.00  0.00     0.159 HD
ENDBRANCH   6   7
ENDBRANCH   5   6
BRANCH   5  12
HETATM   12  C           1     -21.837  -6.441  -3.184  0.00  0.00     0.197 C 
HETATM   13  O           1     -22.323  -5.889  -2.173  0.00  0.00    -0.646 OA
HETATM   14  O           1     -21.975  -5.918  -4.311  0.00  0.00    -0.646 OA
ENDBRANCH   5  12
ENDBRANCH   2   5
BRANCH   4  15
HETATM   15  C           1     -21.562 -10.282  -0.216  0.00  0.00     0.275 C 
BRANCH  15  16
HETATM   16  C           1     -23.018  -9.872  -0.041  0.00  0.00     0.046 C 
BRANCH  16  17
HETATM   17  C           1     -23.918 -11.074  -0.297  0.00  0.00    -0.020 C 
HETATM   18  C           1     -23.450 -12.248   0.554  0.00  0.00     0.009 C 
HETATM   19  C           1     -23.850 -11.457  -1.770  0.00  0.00     0.009 C 
ENDBRANCH  16  17
ENDBRANCH  15  16
BRANCH  15  20
HETATM   20  N           1     -20.822 -10.059   1.070  0.00  0.00    -0.066 N 
HETATM   21  H           1     -20.748 -10.962   1.590  0.00  0.00     0.275 HD
HETATM   22  H           1     -21.338  -9.362   1.652  0.00  0.00     0.275 HD
HETATM   23  H           1     -19.863  -9.698   0.862  0.00  0.00     0.275 HD
ENDBRANCH  15  20
ENDBRANCH   4  15
TORSDOF 8
ENDMDL
MODEL 9
REMARK VINA RESULT:      -5.2      3.454      6.985
REMARK  8 active torsions:
REMARK  status: ('A' for Active; 'I' for Inactive)
REMARK       I    between atoms: C_2  and  N_11 
REMARK    1  A    between atoms: C_2  and  C_12 
REMARK    2  A    between atoms: N_5  and  C_22 
REMARK       I    between atoms: N_5  and  C_23 
REMARK    3  A    between atoms: C_6  and  C_7 
REMARK    4  A    between atoms: C_6  and  C_19 
REMARK    5  A    between atoms: C_7  and  C_23 
REMARK    6  A    between atoms: C_7  and  N_14 
REMARK    7  A    between atoms: C_12  and  C_22 
REMARK    8  A    between atoms: C_21  and  C_22 
ROOT
HETATM    1  H           1     -20.081  -7.120  -2.391  0.00  0.00     0.163 HD
HETATM    2  N           1     -20.813  -7.786  -2.603  0.00  0.00    -0.344 N 
HETATM    3  O           1     -21.853  -9.027  -4.141  0.00  0.00    -0.271 OA
HETATM    4  C           1     -20.979  -8.234  -3.887  0.00  0.00     0.249 C 
ENDROOT
BRANCH   2   5
HETATM    5  C           1     -21.686  -8.264  -1.549  0.00  0.00     0.194 C 
BRANCH   5   6
HETATM    6  C           1     -20.850  -8.911  -0.453  0.00  0.00     0.138 C 
BRANCH   6   7
HETATM    7  C           1     -21.426 -10.263  -0.110  0.00  0.00     0.217 C 
HETATM    8  O           1     -20.692 -11.176   0.183  0.00  0.00    -0.274 OA
HETATM    9  N           1     -22.781 -10.454  -0.131  0.00  0.00    -0.370 N 
HETATM   10  H           1     -23.397  -9.689  -0.376  0.00  0.00     0.159 HD
HETATM   11  H           1     -23.168 -11.361   0.099  0.00  0.00     0.159 HD
ENDBRANCH   6   7
ENDBRANCH   5   6
BRANCH   5  12
HETATM   12  C           1     -22.461  -7.104  -0.974  0.00  0.00     0.197 C 
HETATM   13  O           1     -23.187  -7.274   0.030  0.00  0.00    -0.646 OA
HETATM   14  O           1     -22.376  -5.974  -1.500  0.00  0.00    -0.646 OA
ENDBRANCH   5  12
ENDBRANCH   2   5
BRANCH   4  15
HETATM   15  C           1     -20.070  -7.736  -4.984  0.00  0.00     0.275 C 
BRANCH  15  16
HETATM   16  C           1     -20.894  -6.997  -6.030  0.00  0.00     0.046 C 
BRANCH  16  17
HETATM   17  C           1     -20.102  -5.804  -6.550  0.00  0.00    -0.020 C 
HETATM   18  C           1     -20.156  -4.676  -5.527  0.00  0.00     0.009 C 
HETATM   19  C           1     -20.708  -5.326  -7.864  0.00  0.00     0.009 C 
ENDBRANCH  16  17
ENDBRANCH  15  16
BRANCH  15  20
HETATM   20  N           1     -19.377  -8.901  -5.625  0.00  0.00    -0.066 N 
HETATM   21  H           1     -19.634  -9.780  -5.121  0.00  0.00     0.275 HD
HETATM   22  H           1     -18.342  -8.761  -5.576  0.00  0.00     0.275 HD
HETATM   23  H           1     -19.672  -8.974  -6.625  0.00  0.00     0.275 HD
ENDBRANCH  15  20
ENDBRANCH   4  15
TORSDOF 8
ENDMDL
