MODEL 1
REMARK VINA RESULT:      -7.2      0.000      0.000
REMARK  8 active torsions:
REMARK  status: ('A' for Active; 'I' for Inactive)
REMARK    1  A    between atoms: N_7  and  C_9 
REMARK    2  A    between atoms: C_9  and  C_10 
REMARK       I    between atoms: C_10  and  N_11 
REMARK    3  A    between atoms: N_11  and  C_21 
REMARK    4  A    between atoms: C_14  and  C_21 
REMARK       I    between atoms: N_18  and  C_20 
REMARK    5  A    between atoms: N_18  and  C_24 
REMARK       I    between atoms: N_19  and  C_20 
REMARK    6  A    between atoms: C_21  and  C_22 
REMARK    7  A    between atoms: C_22  and  C_23 
REMARK    8  A    between atoms: C_23  and  C_24 
ROOT
HETATM    1  C           1     -25.908  -6.172 -17.255  0.00  0.00     0.185 C 
ENDROOT
BRANCH   1   2
HETATM    2  N           1     -25.887  -6.805 -18.560  0.00  0.00    -0.345 N 
HETATM    3  C           1     -24.726  -6.845 -19.284  0.00  0.00     0.248 C 
HETATM    4  O           1     -23.717  -6.354 -18.835  0.00  0.00    -0.271 OA
HETATM    5  H           1     -26.732  -7.216 -18.936  0.00  0.00     0.163 HD
BRANCH   3   6
HETATM    6  C           1     -24.705  -7.503 -20.641  0.00  0.00     0.270 C 
HETATM    7  C           1     -26.087  -8.060 -20.957  0.00  0.00     0.050 C 
BRANCH   6   8
HETATM    8  N           1     -23.704  -8.620 -20.640  0.00  0.00    -0.067 N 
HETATM    9  H           1     -22.780  -8.259 -20.315  0.00  0.00     0.275 HD
HETATM   10  H           1     -24.028  -9.377 -19.997  0.00  0.00     0.275 HD
HETATM   11  H           1     -23.608  -9.002 -21.609  0.00  0.00     0.275 HD
ENDBRANCH   6   8
ENDBRANCH   3   6
ENDBRANCH   1   2
BRANCH   1  12
HETATM   12  C           1     -25.708  -7.220 -16.187  0.00  0.00     0.196 C 
HETATM   13  O           1     -26.627  -7.469 -15.377  0.00  0.00    -0.646 OA
HETATM   14  O           1     -24.624  -7.837 -16.111  0.00  0.00    -0.646 OA
ENDBRANCH   1  12
BRANCH   1  15
HETATM   15  C           1     -27.249  -5.483 -17.047  0.00  0.00     0.038 C 
BRANCH  15  16
HETATM   16  C           1     -28.191  -5.850 -18.186  0.00  0.00     0.023 C 
BRANCH  16  17
HETATM   17  C           1     -29.250  -4.765 -18.340  0.00  0.00     0.138 C 
BRANCH  17  18
HETATM   18  N           1     -30.385  -5.057 -17.453  0.00  0.00    -0.227 N 
HETATM   19  H           1     -30.496  -6.016 -17.040  0.00  0.00     0.177 HD
HETATM   20  C           1     -31.229  -4.152 -17.186  0.00  0.00     0.665 C 
HETATM   21  N           1     -31.096  -2.996 -17.683  0.00  0.00    -0.235 N 
HETATM   22  N           1     -32.233  -4.410 -16.401  0.00  0.00    -0.235 N 
HETATM   23  H           1     -31.796  -2.244 -17.462  0.00  0.00     0.174 HD
HETATM   24  H           1     -30.285  -2.787 -18.317  0.00  0.00     0.174 HD
HETATM   25  H           1     -32.930  -3.663 -16.181  0.00  0.00     0.174 HD
HETATM   26  H           1     -32.343  -5.365 -15.991  0.00  0.00     0.174 HD
ENDBRANCH  17  18
ENDBRANCH  16  17
ENDBRANCH  15  16
ENDBRANCH   1  15
TORSDOF 8
ENDMDL
MODEL 2
REMARK VINA RESULT:      -6.1      3.261      6.808
REMARK  8 active torsions:
REMARK  status: ('A' for Active; 'I' for Inactive)
REMARK    1  A    between atoms: N_7  and  C_9 
REMARK    2  A    between atoms: C_9  and  C_10 
REMARK       I    between atoms: C_10  and  N_11 
REMARK    3  A    between atoms: N_11  and  C_21 
REMARK    4  A    between atoms: C_14  and  C_21 
REMARK       I    between atoms: N_18  and  C_20 
REMARK    5  A    between atoms: N_18  and  C_24 
REMARK       I    between atoms: N_19  and  C_20 
REMARK    6  A    between atoms: C_21  and  C_22 
REMARK    7  A    between atoms: C_22  and  C_23 
REMARK    8  A    between atoms: C_23  and  C_24 
ROOT
HETATM    1  C           1     -27.219  -6.900 -20.304  0.00  0.00     0.185 C 
ENDROOT
BRANCH   1   2
HETATM    2  N           1     -27.570  -6.937 -18.897  0.00  0.00    -0.345 N 
HETATM    3  C           1     -28.429  -6.005 -18.380  0.00  0.00     0.248 C 
HETATM    4  O           1     -28.897  -5.152 -19.096  0.00  0.00    -0.271 OA
HETATM    5  H           1     -27.178  -7.652 -18.297  0.00  0.00     0.163 HD
BRANCH   3   6
HETATM    6  C           1     -28.793  -6.044 -16.916  0.00  0.00     0.270 C 
HETATM    7  C           1     -28.231  -4.813 -16.220  0.00  0.00     0.050 C 
BRANCH   6   8
HETATM    8  N           1     -28.217  -7.279 -16.290  0.00  0.00    -0.067 N 
HETATM    9  H           1     -27.435  -7.638 -16.882  0.00  0.00     0.275 HD
HETATM   10  H           1     -27.857  -7.051 -15.337  0.00  0.00     0.275 HD
HETATM   11  H           1     -28.961  -8.011 -16.216  0.00  0.00     0.275 HD
ENDBRANCH   6   8
ENDBRANCH   3   6
ENDBRANCH   1   2
BRANCH   1  12
HETATM   12  C           1     -27.472  -8.255 -20.919  0.00  0.00     0.196 C 
HETATM   13  O           1     -28.531  -8.868 -20.664  0.00  0.00    -0.646 OA
HETATM   14  O           1     -26.623  -8.764 -21.681  0.00  0.00    -0.646 OA
ENDBRANCH   1  12
BRANCH   1  15
HETATM   15  C           1     -25.747  -6.542 -20.450  0.00  0.00     0.038 C 
BRANCH  15  16
HETATM   16  C           1     -25.005  -6.913 -19.173  0.00  0.00     0.023 C 
BRANCH  16  17
HETATM   17  C           1     -23.684  -7.584 -19.529  0.00  0.00     0.138 C 
BRANCH  17  18
HETATM   18  N           1     -23.811  -8.259 -20.829  0.00  0.00    -0.227 N 
HETATM   19  H           1     -24.755  -8.364 -21.276  0.00  0.00     0.177 HD
HETATM   20  C           1     -22.781  -8.713 -21.409  0.00  0.00     0.665 C 
HETATM   21  N           1     -21.643  -8.586 -20.870  0.00  0.00    -0.235 N 
HETATM   22  N           1     -22.893  -9.309 -22.559  0.00  0.00    -0.235 N 
HETATM   23  H           1     -20.788  -8.963 -21.351  0.00  0.00     0.174 HD
HETATM   24  H           1     -21.552  -8.105 -19.941  0.00  0.00     0.174 HD
HETATM   25  H           1     -22.043  -9.684 -23.038  0.00  0.00     0.174 HD
HETATM   26  H           1     -23.832  -9.414 -23.003  0.00  0.00     0.174 HD
ENDBRANCH  17  18
ENDBRANCH  16  17
ENDBRANCH  15  16
ENDBRANCH   1  15
TORSDOF 8
ENDMDL
MODEL 3
REMARK VINA RESULT:      -6.1     11.587     13.385
REMARK  8 active torsions:
REMARK  status: ('A' for Active; 'I' for Inactive)
REMARK    1  A    between atoms: N_7  and  C_9 
REMARK    2  A    between atoms: C_9  and  C_10 
REMARK       I    between atoms: C_10  and  N_11 
REMARK    3  A    between atoms: N_11  and  C_21 
REMARK    4  A    between atoms: C_14  and  C_21 
REMARK       I    between atoms: N_18  and  C_20 
REMARK    5  A    between atoms: N_18  and  C_24 
REMARK       I    between atoms: N_19  and  C_20 
REMARK    6  A    between atoms: C_21  and  C_22 
REMARK    7  A    between atoms: C_22  and  C_23 
REMARK    8  A    between atoms: C_23  and  C_24 
ROOT
HETATM    1  C           1     -20.897  -5.104  -6.374  0.00  0.00     0.185 C 
ENDROOT
BRANCH   1   2
HETATM    2  N           1     -20.745  -5.292  -4.944  0.00  0.00    -0.345 N 
HETATM    3  C           1     -21.460  -6.266  -4.301  0.00  0.00     0.248 C 
HETATM    4  O           1     -22.217  -6.971  -4.925  0.00  0.00    -0.271 OA
HETATM    5  H           1     -20.111  -4.702  -4.421  0.00  0.00     0.163 HD
BRANCH   3   6
HETATM    6  C           1     -21.302  -6.461  -2.813  0.00  0.00     0.270 C 
HETATM    7  C           1     -21.216  -7.948  -2.502  0.00  0.00     0.050 C 
BRANCH   6   8
HETATM    8  N           1     -22.483  -5.869  -2.104  0.00  0.00    -0.067 N 
HETATM    9  H           1     -23.123  -5.426  -2.801  0.00  0.00     0.275 HD
HETATM   10  H           1     -22.994  -6.621  -1.591  0.00  0.00     0.275 HD
HETATM   11  H           1     -22.154  -5.145  -1.424  0.00  0.00     0.275 HD
ENDBRANCH   6   8
ENDBRANCH   3   6
ENDBRANCH   1   2
BRANCH   1  12
HETATM   12  C           1     -19.614  -5.492  -7.069  0.00  0.00     0.196 C 
HETATM   13  O           1     -18.763  -4.618  -7.342  0.00  0.00    -0.646 OA
HETATM   14  O           1     -19.404  -6.686  -7.373  0.00  0.00    -0.646 OA
ENDBRANCH   1  12
BRANCH   1  15
HETATM   15  C           1     -21.210  -3.643  -6.663  0.00  0.00     0.038 C 
BRANCH  15  16
HETATM   16  C           1     -21.727  -3.506  -8.089  0.00  0.00     0.023 C 
BRANCH  16  17
HETATM   17  C           1     -22.785  -4.571  -8.351  0.00  0.00     0.138 C 
BRANCH  17  18
HETATM   18  N           1     -24.095  -3.928  -8.531  0.00  0.00    -0.227 N 
HETATM   19  H           1     -24.559  -3.446  -7.722  0.00  0.00     0.177 HD
HETATM   20  C           1     -24.664  -3.956  -9.662  0.00  0.00     0.665 C 
HETATM   21  N           1     -24.104  -4.537 -10.637  0.00  0.00    -0.235 N 
HETATM   22  N           1     -25.822  -3.387  -9.821  0.00  0.00    -0.235 N 
HETATM   23  H           1     -24.576  -4.560 -11.576  0.00  0.00     0.174 HD
HETATM   24  H           1     -23.169  -4.996 -10.509  0.00  0.00     0.174 HD
HETATM   25  H           1     -26.291  -3.410 -10.754  0.00  0.00     0.174 HD
HETATM   26  H           1     -26.283  -2.908  -9.016  0.00  0.00     0.174 HD
ENDBRANCH  17  18
ENDBRANCH  16  17
ENDBRANCH  15  16
ENDBRANCH   1  15
TORSDOF 8
ENDMDL
MODEL 4
REMARK VINA RESULT:      -5.9     10.580     12.631
REMARK  8 active torsions:
REMARK  status: ('A' for Active; 'I' for Inactive)
REMARK    1  A    between atoms: N_7  and  C_9 
REMARK    2  A    between atoms: C_9  and  C_10 
REMARK       I    between atoms: C_10  and  N_11 
REMARK    3  A    between atoms: N_11  and  C_21 
REMARK    4  A    between atoms: C_14  and  C_21 
REMARK       I    between atoms: N_18  and  C_20 
REMARK    5  A    between atoms: N_18  and  C_24 
REMARK       I    between atoms: N_19  and  C_20 
REMARK    6  A    between atoms: C_21  and  C_22 
REMARK    7  A    between atoms: C_22  and  C_23 
REMARK    8  A    between atoms: C_23  and  C_24 
ROOT
HETATM    1  C           1     -21.281  -5.023  -7.564  0.00  0.00     0.185 C 
ENDROOT
BRANCH   1   2
HETATM    2  N           1     -21.149  -5.190  -6.129  0.00  0.00    -0.345 N 
HETATM    3  C           1     -21.151  -6.445  -5.582  0.00  0.00     0.248 C 
HETATM    4  O           1     -21.262  -7.414  -6.294  0.00  0.00    -0.271 OA
HETATM    5  H           1     -21.056  -4.378  -5.532  0.00  0.00     0.163 HD
BRANCH   3   6
HETATM    6  C           1     -21.014  -6.618  -4.089  0.00  0.00     0.270 C 
HETATM    7  C           1     -20.785  -8.088  -3.767  0.00  0.00     0.050 C 
BRANCH   6   8
HETATM    8  N           1     -22.267  -6.147  -3.414  0.00  0.00    -0.067 N 
HETATM    9  H           1     -22.476  -6.763  -2.598  0.00  0.00     0.275 HD
HETATM   10  H           1     -22.137  -5.164  -3.085  0.00  0.00     0.275 HD
HETATM   11  H           1     -23.063  -6.185  -4.093  0.00  0.00     0.275 HD
ENDBRANCH   6   8
ENDBRANCH   3   6
ENDBRANCH   1   2
BRANCH   1  12
HETATM   12  C           1     -19.919  -4.784  -8.168  0.00  0.00     0.196 C 
HETATM   13  O           1     -18.949  -4.504  -7.431  0.00  0.00    -0.646 OA
HETATM   14  O           1     -19.761  -4.865  -9.405  0.00  0.00    -0.646 OA
ENDBRANCH   1  12
BRANCH   1  15
HETATM   15  C           1     -22.183  -3.831  -7.854  0.00  0.00     0.038 C 
BRANCH  15  16
HETATM   16  C           1     -23.475  -4.316  -8.498  0.00  0.00     0.023 C 
BRANCH  16  17
HETATM   17  C           1     -23.666  -3.621  -9.840  0.00  0.00     0.138 C 
BRANCH  17  18
HETATM   18  N           1     -22.355  -3.368 -10.454  0.00  0.00    -0.227 N 
HETATM   19  H           1     -21.696  -2.676 -10.019  0.00  0.00     0.177 HD
HETATM   20  C           1     -22.020  -3.985 -11.508  0.00  0.00     0.665 C 
HETATM   21  N           1     -22.814  -4.819 -12.033  0.00  0.00    -0.235 N 
HETATM   22  N           1     -20.860  -3.762 -12.051  0.00  0.00    -0.235 N 
HETATM   23  H           1     -22.537  -5.331 -12.907  0.00  0.00     0.174 HD
HETATM   24  H           1     -23.751  -4.999 -11.595  0.00  0.00     0.174 HD
HETATM   25  H           1     -20.584  -4.271 -12.921  0.00  0.00     0.174 HD
HETATM   26  H           1     -20.205  -3.073 -11.618  0.00  0.00     0.174 HD
ENDBRANCH  17  18
ENDBRANCH  16  17
ENDBRANCH  15  16
ENDBRANCH   1  15
TORSDOF 8
ENDMDL
MODEL 5
REMARK VINA RESULT:      -5.8     11.414     13.180
REMARK  8 active torsions:
REMARK  status: ('A' for Active; 'I' for Inactive)
REMARK    1  A    between atoms: N_7  and  C_9 
REMARK    2  A    between atoms: C_9  and  C_10 
REMARK       I    between atoms: C_10  and  N_11 
REMARK    3  A    between atoms: N_11  and  C_21 
REMARK    4  A    between atoms: C_14  and  C_21 
REMARK       I    between atoms: N_18  and  C_20 
REMARK    5  A    between atoms: N_18  and  C_24 
REMARK       I    between atoms: N_19  and  C_20 
REMARK    6  A    between atoms: C_21  and  C_22 
REMARK    7  A    between atoms: C_22  and  C_23 
REMARK    8  A    between atoms: C_23  and  C_24 
ROOT
HETATM    1  C           1     -21.150  -4.369  -7.450  0.00  0.00     0.185 C 
ENDROOT
BRANCH   1   2
HETATM    2  N           1     -22.200  -4.970  -8.250  0.00  0.00    -0.345 N 
HETATM    3  C           1     -22.987  -4.186  -9.049  0.00  0.00     0.248 C 
HETATM    4  O           1     -22.807  -2.992  -9.089  0.00  0.00    -0.271 OA
HETATM    5  H           1     -22.351  -5.970  -8.217  0.00  0.00     0.163 HD
BRANCH   3   6
HETATM    6  C           1     -24.079  -4.811  -9.881  0.00  0.00     0.270 C 
HETATM    7  C           1     -23.628  -4.891 -11.333  0.00  0.00     0.050 C 
BRANCH   6   8
HETATM    8  N           1     -25.320  -3.975  -9.788  0.00  0.00    -0.067 N 
HETATM    9  H           1     -25.991  -4.262 -10.534  0.00  0.00     0.275 HD
HETATM   10  H           1     -25.761  -4.110  -8.851  0.00  0.00     0.275 HD
HETATM   11  H           1     -25.070  -2.967  -9.913  0.00  0.00     0.275 HD
ENDBRANCH   6   8
ENDBRANCH   3   6
ENDBRANCH   1   2
BRANCH   1  12
HETATM   12  C           1     -19.830  -4.510  -8.167  0.00  0.00     0.196 C 
HETATM   13  O           1     -18.764  -4.245  -7.571  0.00  0.00    -0.646 OA
HETATM   14  O           1     -19.802  -4.891  -9.357  0.00  0.00    -0.646 OA
ENDBRANCH   1  12
BRANCH   1  15
HETATM   15  C           1     -21.074  -5.073  -6.102  0.00  0.00     0.038 C 
BRANCH  15  16
HETATM   16  C           1     -21.047  -6.580  -6.317  0.00  0.00     0.023 C 
BRANCH  16  17
HETATM   17  C           1     -21.616  -7.280  -5.088  0.00  0.00     0.138 C 
BRANCH  17  18
HETATM   18  N           1     -22.005  -6.275  -4.088  0.00  0.00    -0.227 N 
HETATM   19  H           1     -22.374  -5.342  -4.396  0.00  0.00     0.177 HD
HETATM   20  C           1     -21.894  -6.536  -2.853  0.00  0.00     0.665 C 
HETATM   21  N           1     -21.448  -7.661  -2.481  0.00  0.00    -0.235 N 
HETATM   22  N           1     -22.238  -5.648  -1.968  0.00  0.00    -0.235 N 
HETATM   23  H           1     -21.356  -7.877  -1.457  0.00  0.00     0.174 HD
HETATM   24  H           1     -21.171  -8.378  -3.196  0.00  0.00     0.174 HD
HETATM   25  H           1     -22.146  -5.863  -0.950  0.00  0.00     0.174 HD
HETATM   26  H           1     -22.605  -4.719  -2.276  0.00  0.00     0.174 HD
ENDBRANCH  17  18
ENDBRANCH  16  17
ENDBRANCH  15  16
ENDBRANCH   1  15
TORSDOF 8
ENDMDL
MODEL 6
REMARK VINA RESULT:      -5.8     11.930     13.669
REMARK  8 active torsions:
REMARK  status: ('A' for Active; 'I' for Inactive)
REMARK    1  A    between atoms: N_7  and  C_9 
REMARK    2  A    between atoms: C_9  and  C_10 
REMARK       I    between atoms: C_10  and  N_11 
REMARK    3  A    between atoms: N_11  and  C_21 
REMARK    4  A    between atoms: C_14  and  C_21 
REMARK       I    between atoms: N_18  and  C_20 
REMARK    5  A    between atoms: N_18  and  C_24 
REMARK       I    between atoms: N_19  and  C_20 
REMARK    6  A    between atoms: C_21  and  C_22 
REMARK    7  A    between atoms: C_22  and  C_23 
REMARK    8  A    between atoms: C_23  and  C_24 
ROOT
HETATM    1  C           1     -20.761  -6.793  -5.440  0.00  0.00     0.185 C 
ENDROOT
BRANCH   1   2
HETATM    2  N           1     -20.846  -8.222  -5.674  0.00  0.00    -0.345 N 
HETATM    3  C           1     -20.078  -9.084  -4.939  0.00  0.00     0.248 C 
HETATM    4  O           1     -19.329  -8.655  -4.093  0.00  0.00    -0.271 OA
HETATM    5  H           1     -21.473  -8.582  -6.382  0.00  0.00     0.163 HD
BRANCH   3   6
HETATM    6  C           1     -20.167 -10.570  -5.182  0.00  0.00     0.270 C 
HETATM    7  C           1     -18.791 -11.108  -5.551  0.00  0.00     0.050 C 
BRANCH   6   8
HETATM    8  N           1     -21.125 -10.836  -6.305  0.00  0.00    -0.067 N 
HETATM    9  H           1     -20.878 -11.739  -6.768  0.00  0.00     0.275 HD
HETATM   10  H           1     -22.097 -10.893  -5.927  0.00  0.00     0.275 HD
HETATM   11  H           1     -21.067 -10.059  -7.003  0.00  0.00     0.275 HD
ENDBRANCH   6   8
ENDBRANCH   3   6
ENDBRANCH   1   2
BRANCH   1  12
HETATM   12  C           1     -22.007  -6.327  -4.729  0.00  0.00     0.196 C 
HETATM   13  O           1     -23.022  -6.013  -5.388  0.00  0.00    -0.646 OA
HETATM   14  O           1     -22.024  -6.253  -3.481  0.00  0.00    -0.646 OA
ENDBRANCH   1  12
BRANCH   1  15
HETATM   15  C           1     -20.634  -6.069  -6.773  0.00  0.00     0.038 C 
BRANCH  15  16
HETATM   16  C           1     -20.092  -4.665  -6.539  0.00  0.00     0.023 C 
BRANCH  16  17
HETATM   17  C           1     -20.718  -3.704  -7.542  0.00  0.00     0.138 C 
BRANCH  17  18
HETATM   18  N           1     -22.183  -3.803  -7.470  0.00  0.00    -0.227 N 
HETATM   19  H           1     -22.658  -3.884  -6.538  0.00  0.00     0.177 HD
HETATM   20  C           1     -22.871  -3.791  -8.533  0.00  0.00     0.665 C 
HETATM   21  N           1     -22.298  -3.693  -9.657  0.00  0.00    -0.235 N 
HETATM   22  N           1     -24.167  -3.879  -8.469  0.00  0.00    -0.235 N 
HETATM   23  H           1     -22.869  -3.683 -10.539  0.00  0.00     0.174 HD
HETATM   24  H           1     -21.252  -3.622  -9.709  0.00  0.00     0.174 HD
HETATM   25  H           1     -24.734  -3.869  -9.346  0.00  0.00     0.174 HD
HETATM   26  H           1     -24.639  -3.960  -7.541  0.00  0.00     0.174 HD
ENDBRANCH  17  18
ENDBRANCH  16  17
ENDBRANCH  15  16
ENDBRANCH   1  15
TORSDOF 8
ENDMDL
MODEL 7
REMARK VINA RESULT:      -5.7      3.248      5.766
REMARK  8 active torsions:
REMARK  status: ('A' for Active; 'I' for Inactive)
REMARK    1  A    between atoms: N_7  and  C_9 
REMARK    2  A    between atoms: C_9  and  C_10 
REMARK       I    between atoms: C_10  and  N_11 
REMARK    3  A    between atoms: N_11  and  C_21 
REMARK    4  A    between atoms: C_14  and  C_21 
REMARK       I    between atoms: N_18  and  C_20 
REMARK    5  A    between atoms: N_18  and  C_24 
REMARK       I    between atoms: N_19  and  C_20 
REMARK    6  A    between atoms: C_21  and  C_22 
REMARK    7  A    between atoms: C_22  and  C_23 
REMARK    8  A    between atoms: C_23  and  C_24 
ROOT
HETATM    1  C           1     -27.337  -6.975 -20.352  0.00  0.00     0.185 C 
ENDROOT
BRANCH   1   2
HETATM    2  N           1     -27.762  -7.082 -18.969  0.00  0.00    -0.345 N 
HETATM    3  C           1     -28.456  -6.058 -18.384  0.00  0.00     0.248 C 
HETATM    4  O           1     -28.716  -5.064 -19.019  0.00  0.00    -0.271 OA
HETATM    5  H           1     -27.544  -7.915 -18.437  0.00  0.00     0.163 HD
BRANCH   3   6
HETATM    6  C           1     -28.897  -6.171 -16.946  0.00  0.00     0.270 C 
HETATM    7  C           1     -28.298  -5.026 -16.139  0.00  0.00     0.050 C 
BRANCH   6   8
HETATM    8  N           1     -28.430  -7.479 -16.380  0.00  0.00    -0.067 N 
HETATM    9  H           1     -28.396  -7.416 -15.339  0.00  0.00     0.275 HD
HETATM   10  H           1     -29.091  -8.236 -16.663  0.00  0.00     0.275 HD
HETATM   11  H           1     -27.475  -7.694 -16.748  0.00  0.00     0.275 HD
ENDBRANCH   6   8
ENDBRANCH   3   6
ENDBRANCH   1   2
BRANCH   1  12
HETATM   12  C           1     -27.429  -8.329 -21.011  0.00  0.00     0.196 C 
HETATM   13  O           1     -28.394  -9.082 -20.757  0.00  0.00    -0.646 OA
HETATM   14  O           1     -26.542  -8.698 -21.810  0.00  0.00    -0.646 OA
ENDBRANCH   1  12
BRANCH   1  15
HETATM   15  C           1     -25.898  -6.482 -20.403  0.00  0.00     0.038 C 
BRANCH  15  16
HETATM   16  C           1     -24.955  -7.627 -20.056  0.00  0.00     0.023 C 
BRANCH  16  17
HETATM   17  C           1     -23.999  -7.183 -18.956  0.00  0.00     0.138 C 
BRANCH  17  18
HETATM   18  N           1     -24.768  -6.781 -17.770  0.00  0.00    -0.227 N 
HETATM   19  H           1     -25.532  -6.066 -17.857  0.00  0.00     0.177 HD
HETATM   20  C           1     -24.508  -7.297 -16.642  0.00  0.00     0.665 C 
HETATM   21  N           1     -23.587  -8.158 -16.537  0.00  0.00    -0.235 N 
HETATM   22  N           1     -25.189  -6.941 -15.593  0.00  0.00    -0.235 N 
HETATM   23  H           1     -23.372  -8.586 -15.602  0.00  0.00     0.174 HD
HETATM   24  H           1     -23.038  -8.446 -17.385  0.00  0.00     0.174 HD
HETATM   25  H           1     -24.974  -7.367 -14.663  0.00  0.00     0.174 HD
HETATM   26  H           1     -25.949  -6.230 -15.680  0.00  0.00     0.174 HD
ENDBRANCH  17  18
ENDBRANCH  16  17
ENDBRANCH  15  16
ENDBRANCH   1  15
TORSDOF 8
ENDMDL
MODEL 8
REMARK VINA RESULT:      -5.6     14.052     15.721
REMARK  8 active torsions:
REMARK  status: ('A' for Active; 'I' for Inactive)
REMARK    1  A    between atoms: N_7  and  C_9 
REMARK    2  A    between atoms: C_9  and  C_10 
REMARK       I    between atoms: C_10  and  N_11 
REMARK    3  A    between atoms: N_11  and  C_21 
REMARK    4  A    between atoms: C_14  and  C_21 
REMARK       I    between atoms: N_18  and  C_20 
REMARK    5  A    between atoms: N_18  and  C_24 
REMARK       I    between atoms: N_19  and  C_20 
REMARK    6  A    between atoms: C_21  and  C_22 
REMARK    7  A    between atoms: C_22  and  C_23 
REMARK    8  A    between atoms: C_23  and  C_24 
ROOT
HETATM    1  C           1     -20.857  -6.877  -4.571  0.00  0.00     0.185 C 
ENDROOT
BRANCH   1   2
HETATM    2  N           1     -21.231  -6.395  -5.887  0.00  0.00    -0.345 N 
HETATM    3  C           1     -20.759  -5.190  -6.334  0.00  0.00     0.248 C 
HETATM    4  O           1     -20.030  -4.529  -5.634  0.00  0.00    -0.271 OA
HETATM    5  H           1     -21.842  -6.948  -6.474  0.00  0.00     0.163 HD
BRANCH   3   6
HETATM    6  C           1     -21.149  -4.688  -7.703  0.00  0.00     0.270 C 
HETATM    7  C           1     -19.926  -4.101  -8.396  0.00  0.00     0.050 C 
BRANCH   6   8
HETATM    8  N           1     -22.202  -3.630  -7.566  0.00  0.00    -0.067 N 
HETATM    9  H           1     -22.856  -3.887  -6.793  0.00  0.00     0.275 HD
HETATM   10  H           1     -21.749  -2.714  -7.349  0.00  0.00     0.275 HD
HETATM   11  H           1     -22.736  -3.552  -8.462  0.00  0.00     0.275 HD
ENDBRANCH   6   8
ENDBRANCH   3   6
ENDBRANCH   1   2
BRANCH   1  12
HETATM   12  C           1     -20.446  -8.326  -4.668  0.00  0.00     0.196 C 
HETATM   13  O           1     -19.758  -8.717  -5.636  0.00  0.00    -0.646 OA
HETATM   14  O           1     -20.793  -9.135  -3.781  0.00  0.00    -0.646 OA
ENDBRANCH   1  12
BRANCH   1  15
HETATM   15  C           1     -22.044  -6.747  -3.627  0.00  0.00     0.038 C 
BRANCH  15  16
HETATM   16  C           1     -21.610  -6.018  -2.363  0.00  0.00     0.023 C 
BRANCH  16  17
HETATM   17  C           1     -22.323  -6.621  -1.158  0.00  0.00     0.138 C 
BRANCH  17  18
HETATM   18  N           1     -22.057  -8.065  -1.102  0.00  0.00    -0.227 N 
HETATM   19  H           1     -21.361  -8.497  -1.759  0.00  0.00     0.177 HD
HETATM   20  C           1     -22.667  -8.789  -0.260  0.00  0.00     0.665 C 
HETATM   21  N           1     -23.506  -8.268   0.532  0.00  0.00    -0.235 N 
HETATM   22  N           1     -22.431 -10.066  -0.210  0.00  0.00    -0.235 N 
HETATM   23  H           1     -24.012  -8.868   1.230  0.00  0.00     0.174 HD
HETATM   24  H           1     -23.696  -7.236   0.492  0.00  0.00     0.174 HD
HETATM   25  H           1     -22.935 -10.663   0.484  0.00  0.00     0.174 HD
HETATM   26  H           1     -21.739 -10.495  -0.864  0.00  0.00     0.174 HD
ENDBRANCH  17  18
ENDBRANCH  16  17
ENDBRANCH  15  16
ENDBRANCH   1  15
TORSDOF 8
ENDMDL
MODEL 9
REMARK VINA RESULT:      -5.5     18.762     20.419
REMARK  8 active torsions:
REMARK  status: ('A' for Active; 'I' for Inactive)
REMARK    1  A    between atoms: N_7  and  C_9 
REMARK    2  A    between atoms: C_9  and  C_10 
REMARK       I    between atoms: C_10  and  N_11 
REMARK    3  A    between atoms: N_11  and  C_21 
REMARK    4  A    between atoms: C_14  and  C_21 
REMARK       I    between atoms: N_18  and  C_20 
REMARK    5  A    between atoms: N_18  and  C_24 
REMARK       I    between atoms: N_19  and  C_20 
REMARK    6  A    between atoms: C_21  and  C_22 
REMARK    7  A    between atoms: C_22  and  C_23 
REMARK    8  A    between atoms: C_23  and  C_24 
ROOT
HETATM    1  C           1     -10.434   5.169 -20.698  0.00  0.00     0.185 C 
ENDROOT
BRANCH   1   2
HETATM    2  N           1     -11.681   4.813 -21.348  0.00  0.00    -0.345 N 
HETATM    3  C           1     -12.017   3.496 -21.511  0.00  0.00     0.248 C 
HETATM    4  O           1     -11.276   2.630 -21.112  0.00  0.00    -0.271 OA
HETATM    5  H           1     -12.301   5.539 -21.682  0.00  0.00     0.163 HD
BRANCH   3   6
HETATM    6  C           1     -13.314   3.127 -22.187  0.00  0.00     0.270 C 
HETATM    7  C           1     -14.271   4.310 -22.133  0.00  0.00     0.050 C 
BRANCH   6   8
HETATM    8  N           1     -13.929   1.954 -21.483  0.00  0.00    -0.067 N 
HETATM    9  H           1     -13.808   2.065 -20.451  0.00  0.00     0.275 HD
HETATM   10  H           1     -14.947   1.906 -21.711  0.00  0.00     0.275 HD
HETATM   11  H           1     -13.458   1.075 -21.796  0.00  0.00     0.275 HD
ENDBRANCH   6   8
ENDBRANCH   3   6
ENDBRANCH   1   2
BRANCH   1  12
HETATM   12  C           1     -10.691   5.444 -19.236  0.00  0.00     0.196 C 
HETATM   13  O           1      -9.779   5.908 -18.519  0.00  0.00    -0.646 OA
HETATM   14  O           1     -11.814   5.206 -18.744  0.00  0.00    -0.646 OA
ENDBRANCH   1  12
BRANCH   1  15
HETATM   15  C           1      -9.857   6.415 -21.356  0.00  0.00     0.038 C 
BRANCH  15  16
HETATM   16  C           1     -10.988   7.257 -21.929  0.00  0.00     0.023 C 
BRANCH  16  17
HETATM   17  C           1     -10.818   8.706 -21.487  0.00  0.00     0.138 C 
BRANCH  17  18
HETATM   18  N           1     -10.054   8.749 -20.232  0.00  0.00    -0.227 N 
HETATM   19  H           1      -9.026   8.537 -20.236  0.00  0.00     0.177 HD
HETATM   20  C           1     -10.636   9.044 -19.146  0.00  0.00     0.665 C 
HETATM   21  N           1     -11.875   9.300 -19.141  0.00  0.00    -0.235 N 
HETATM   22  N           1      -9.960   9.082 -18.036  0.00  0.00    -0.235 N 
HETATM   23  H           1     -12.358   9.544 -18.241  0.00  0.00     0.174 HD
HETATM   24  H           1     -12.421   9.269 -20.038  0.00  0.00     0.174 HD
HETATM   25  H           1     -10.440   9.325 -17.141  0.00  0.00     0.174 HD
HETATM   26  H           1      -8.937   8.871 -18.041  0.00  0.00     0.174 HD
ENDBRANCH  17  18
ENDBRANCH  16  17
ENDBRANCH  15  16
ENDBRANCH   1  15
TORSDOF 8
ENDMDL
