MODEL 1
REMARK VINA RESULT:      -6.2      0.000      0.000
REMARK  11 active torsions:
REMARK  status: ('A' for Active; 'I' for Inactive)
REMARK    1  A    between atoms: N_1  and  C_23 
REMARK    2  A    between atoms: C_6  and  C_7 
REMARK    3  A    between atoms: C_7  and  C_28 
REMARK    4  A    between atoms: C_10  and  C_19 
REMARK    5  A    between atoms: C_10  and  N_14 
REMARK    6  A    between atoms: C_19  and  C_25 
REMARK    7  A    between atoms: N_21  and  C_28 
REMARK       I    between atoms: N_21  and  C_22 
REMARK    8  A    between atoms: C_22  and  C_23 
REMARK    9  A    between atoms: C_23  and  C_24 
REMARK   10  A    between atoms: C_24  and  C_25 
REMARK   11  A    between atoms: C_26  and  C_28 
ROOT
HETATM    1  O           1     -19.736  -7.411  -6.161  0.00  0.00    -0.271 OA
HETATM    2  H           1     -20.105  -4.610  -5.998  0.00  0.00     0.163 HD
HETATM    3  N           1     -20.563  -5.365  -6.494  0.00  0.00    -0.344 N 
HETATM    4  C           1     -20.617  -6.615  -5.940  0.00  0.00     0.249 C 
ENDROOT
BRANCH   4   5
HETATM    5  C           1     -21.777  -6.998  -5.055  0.00  0.00     0.274 C 
BRANCH   5   6
HETATM    6  N           1     -21.699  -8.462  -4.735  0.00  0.00    -0.067 N 
HETATM    7  H           1     -22.403  -8.696  -3.998  0.00  0.00     0.275 HD
HETATM    8  H           1     -21.900  -9.017  -5.597  0.00  0.00     0.275 HD
HETATM    9  H           1     -20.742  -8.691  -4.387  0.00  0.00     0.275 HD
ENDBRANCH   5   6
BRANCH   5  10
HETATM   10  C           1     -21.719  -6.193  -3.763  0.00  0.00     0.043 C 
BRANCH  10  11
HETATM   11  C           1     -21.482  -7.134  -2.588  0.00  0.00     0.006 C 
BRANCH  11  12
HETATM   12  C           1     -22.291  -6.662  -1.388  0.00  0.00     0.421 C 
BRANCH  12  13
HETATM   13  C           1     -22.117  -7.646  -0.238  0.00  0.00     0.231 C 
BRANCH  13  14
HETATM   14  N           1     -23.443  -7.886   0.421  0.00  0.00    -0.079 N 
HETATM   15  H           1     -24.160  -7.255  -0.003  0.00  0.00     0.274 HD
HETATM   16  H           1     -23.365  -7.686   1.444  0.00  0.00     0.274 HD
HETATM   17  H           1     -23.726  -8.882   0.281  0.00  0.00     0.274 HD
ENDBRANCH  13  14
ENDBRANCH  12  13
ENDBRANCH  11  12
ENDBRANCH  10  11
ENDBRANCH   5  10
ENDBRANCH   4   5
BRANCH   3  18
HETATM   18  C           1     -21.163  -5.120  -7.791  0.00  0.00     0.191 C 
BRANCH  18  19
HETATM   19  C           1     -22.367  -4.200  -7.628  0.00  0.00     0.094 C 
BRANCH  19  20
HETATM   20  C           1     -23.178  -4.212  -8.886  0.00  0.00     0.034 A 
HETATM   21  C           1     -24.245  -3.382  -9.135  0.00  0.00     0.212 A 
HETATM   22  N           1     -24.683  -3.732 -10.383  0.00  0.00    -0.073 N 
HETATM   23  C           1     -23.880  -4.741 -10.832  0.00  0.00     0.277 A 
HETATM   24  H           1     -25.490  -3.303 -10.901  0.00  0.00     0.272 HD
HETATM   25  N           1     -22.961  -5.052  -9.947  0.00  0.00    -0.349 N 
ATOM     26  HN          1     -22.238  -5.768 -10.031  1.00  0.00     0.166 HD
ENDBRANCH  19  20
ENDBRANCH  18  19
BRANCH  18  27
HETATM   27  C           1     -20.149  -4.465  -8.698  0.00  0.00     0.197 C 
HETATM   28  O           1     -19.449  -3.522  -8.273  0.00  0.00    -0.646 OA
HETATM   29  O           1     -20.011  -4.866  -9.874  0.00  0.00    -0.646 OA
ENDBRANCH  18  27
ENDBRANCH   3  18
TORSDOF 11
ENDMDL
MODEL 2
REMARK VINA RESULT:      -6.1      2.922      7.120
REMARK  11 active torsions:
REMARK  status: ('A' for Active; 'I' for Inactive)
REMARK    1  A    between atoms: N_1  and  C_23 
REMARK    2  A    between atoms: C_6  and  C_7 
REMARK    3  A    between atoms: C_7  and  C_28 
REMARK    4  A    between atoms: C_10  and  C_19 
REMARK    5  A    between atoms: C_10  and  N_14 
REMARK    6  A    between atoms: C_19  and  C_25 
REMARK    7  A    between atoms: N_21  and  C_28 
REMARK       I    between atoms: N_21  and  C_22 
REMARK    8  A    between atoms: C_22  and  C_23 
REMARK    9  A    between atoms: C_23  and  C_24 
REMARK   10  A    between atoms: C_24  and  C_25 
REMARK   11  A    between atoms: C_26  and  C_28 
ROOT
HETATM    1  O           1     -22.735  -6.019  -4.793  0.00  0.00    -0.271 OA
HETATM    2  H           1     -21.164  -5.721  -2.458  0.00  0.00     0.163 HD
HETATM    3  N           1     -21.373  -6.486  -3.087  0.00  0.00    -0.344 N 
HETATM    4  C           1     -21.610  -6.239  -4.412  0.00  0.00     0.249 C 
ENDROOT
BRANCH   4   5
HETATM    5  C           1     -20.467  -6.241  -5.396  0.00  0.00     0.274 C 
BRANCH   5   6
HETATM    6  N           1     -20.898  -6.920  -6.662  0.00  0.00    -0.067 N 
HETATM    7  H           1     -21.808  -7.409  -6.503  0.00  0.00     0.275 HD
HETATM    8  H           1     -21.014  -6.206  -7.417  0.00  0.00     0.275 HD
HETATM    9  H           1     -20.174  -7.617  -6.947  0.00  0.00     0.275 HD
ENDBRANCH   5   6
BRANCH   5  10
HETATM   10  C           1     -20.059  -4.806  -5.705  0.00  0.00     0.043 C 
BRANCH  10  11
HETATM   11  C           1     -20.301  -4.515  -7.180  0.00  0.00     0.006 C 
BRANCH  11  12
HETATM   12  C           1     -21.477  -3.558  -7.323  0.00  0.00     0.421 C 
BRANCH  12  13
HETATM   13  C           1     -22.399  -4.048  -8.432  0.00  0.00     0.231 C 
BRANCH  13  14
HETATM   14  N           1     -23.814  -4.070  -7.933  0.00  0.00    -0.079 N 
HETATM   15  H           1     -24.321  -4.874  -8.366  0.00  0.00     0.274 HD
HETATM   16  H           1     -24.289  -3.177  -8.194  0.00  0.00     0.274 HD
HETATM   17  H           1     -23.814  -4.174  -6.894  0.00  0.00     0.274 HD
ENDBRANCH  13  14
ENDBRANCH  12  13
ENDBRANCH  11  12
ENDBRANCH  10  11
ENDBRANCH   5  10
ENDBRANCH   4   5
BRANCH   3  18
HETATM   18  C           1     -21.420  -7.845  -2.583  0.00  0.00     0.191 C 
BRANCH  18  19
HETATM   19  C           1     -20.006  -8.405  -2.501  0.00  0.00     0.094 C 
BRANCH  19  20
HETATM   20  C           1     -19.687  -9.143  -3.764  0.00  0.00     0.034 A 
HETATM   21  C           1     -20.592  -9.883  -4.487  0.00  0.00     0.212 A 
HETATM   22  N           1     -19.882 -10.374  -5.548  0.00  0.00    -0.073 N 
HETATM   23  C           1     -18.599  -9.921  -5.428  0.00  0.00     0.277 A 
HETATM   24  H           1     -20.255 -10.988  -6.314  0.00  0.00     0.272 HD
HETATM   25  N           1     -18.452  -9.174  -4.358  0.00  0.00    -0.349 N 
ATOM     26  HN          1     -17.599  -8.714  -4.037  1.00  0.00     0.166 HD
ENDBRANCH  19  20
ENDBRANCH  18  19
BRANCH  18  27
HETATM   27  C           1     -22.044  -7.851  -1.209  0.00  0.00     0.197 C 
HETATM   28  O           1     -21.931  -8.857  -0.477  0.00  0.00    -0.646 OA
HETATM   29  O           1     -22.672  -6.850  -0.803  0.00  0.00    -0.646 OA
ENDBRANCH  18  27
ENDBRANCH   3  18
TORSDOF 11
ENDMDL
MODEL 3
REMARK VINA RESULT:      -6.0      1.795      6.928
REMARK  11 active torsions:
REMARK  status: ('A' for Active; 'I' for Inactive)
REMARK    1  A    between atoms: N_1  and  C_23 
REMARK    2  A    between atoms: C_6  and  C_7 
REMARK    3  A    between atoms: C_7  and  C_28 
REMARK    4  A    between atoms: C_10  and  C_19 
REMARK    5  A    between atoms: C_10  and  N_14 
REMARK    6  A    between atoms: C_19  and  C_25 
REMARK    7  A    between atoms: N_21  and  C_28 
REMARK       I    between atoms: N_21  and  C_22 
REMARK    8  A    between atoms: C_22  and  C_23 
REMARK    9  A    between atoms: C_23  and  C_24 
REMARK   10  A    between atoms: C_24  and  C_25 
REMARK   11  A    between atoms: C_26  and  C_28 
ROOT
HETATM    1  O           1     -19.361  -6.489  -7.425  0.00  0.00    -0.271 OA
HETATM    2  H           1     -21.457  -8.140  -6.482  0.00  0.00     0.163 HD
HETATM    3  N           1     -20.738  -7.576  -6.045  0.00  0.00    -0.344 N 
HETATM    4  C           1     -20.294  -6.437  -6.659  0.00  0.00     0.249 C 
ENDROOT
BRANCH   4   5
HETATM    5  C           1     -20.969  -5.117  -6.379  0.00  0.00     0.274 C 
BRANCH   5   6
HETATM    6  N           1     -20.173  -4.355  -5.361  0.00  0.00    -0.067 N 
HETATM    7  H           1     -20.110  -4.913  -4.480  0.00  0.00     0.275 HD
HETATM    8  H           1     -19.212  -4.179  -5.731  0.00  0.00     0.275 HD
HETATM    9  H           1     -20.644  -3.444  -5.162  0.00  0.00     0.275 HD
ENDBRANCH   5   6
BRANCH   5  10
HETATM   10  C           1     -21.053  -4.305  -7.667  0.00  0.00     0.043 C 
BRANCH  10  11
HETATM   11  C           1     -22.230  -4.796  -8.500  0.00  0.00     0.006 C 
BRANCH  11  12
HETATM   12  C           1     -22.834  -3.625  -9.264  0.00  0.00     0.421 C 
BRANCH  12  13
HETATM   13  C           1     -23.946  -4.131 -10.174  0.00  0.00     0.231 C 
BRANCH  13  14
HETATM   14  N           1     -25.273  -3.671  -9.646  0.00  0.00    -0.079 N 
HETATM   15  H           1     -25.795  -4.489  -9.260  0.00  0.00     0.274 HD
HETATM   16  H           1     -25.825  -3.239 -10.421  0.00  0.00     0.274 HD
HETATM   17  H           1     -25.121  -2.964  -8.892  0.00  0.00     0.274 HD
ENDBRANCH  13  14
ENDBRANCH  12  13
ENDBRANCH  11  12
ENDBRANCH  10  11
ENDBRANCH   5  10
ENDBRANCH   4   5
BRANCH   3  18
HETATM   18  C           1     -20.180  -7.976  -4.768  0.00  0.00     0.191 C 
BRANCH  18  19
HETATM   19  C           1     -21.269  -8.620  -3.919  0.00  0.00     0.094 C 
BRANCH  19  20
HETATM   20  C           1     -21.688  -7.671  -2.840  0.00  0.00     0.034 A 
HETATM   21  C           1     -21.947  -6.335  -3.032  0.00  0.00     0.212 A 
HETATM   22  N           1     -22.291  -5.859  -1.796  0.00  0.00    -0.073 N 
HETATM   23  C           1     -22.226  -6.906  -0.921  0.00  0.00     0.277 A 
HETATM   24  H           1     -22.555  -4.870  -1.563  0.00  0.00     0.272 HD
HETATM   25  N           1     -21.864  -8.014  -1.524  0.00  0.00    -0.349 N 
ATOM     26  HN          1     -21.740  -8.936  -1.104  1.00  0.00     0.166 HD
ENDBRANCH  19  20
ENDBRANCH  18  19
BRANCH  18  27
HETATM   27  C           1     -19.066  -8.968  -4.994  0.00  0.00     0.197 C 
HETATM   28  O           1     -18.959  -9.546  -6.097  0.00  0.00    -0.646 OA
HETATM   29  O           1     -18.251  -9.213  -4.079  0.00  0.00    -0.646 OA
ENDBRANCH  18  27
ENDBRANCH   3  18
TORSDOF 11
ENDMDL
MODEL 4
REMARK VINA RESULT:      -5.8      1.862      2.372
REMARK  11 active torsions:
REMARK  status: ('A' for Active; 'I' for Inactive)
REMARK    1  A    between atoms: N_1  and  C_23 
REMARK    2  A    between atoms: C_6  and  C_7 
REMARK    3  A    between atoms: C_7  and  C_28 
REMARK    4  A    between atoms: C_10  and  C_19 
REMARK    5  A    between atoms: C_10  and  N_14 
REMARK    6  A    between atoms: C_19  and  C_25 
REMARK    7  A    between atoms: N_21  and  C_28 
REMARK       I    between atoms: N_21  and  C_22 
REMARK    8  A    between atoms: C_22  and  C_23 
REMARK    9  A    between atoms: C_23  and  C_24 
REMARK   10  A    between atoms: C_24  and  C_25 
REMARK   11  A    between atoms: C_26  and  C_28 
ROOT
HETATM    1  O           1     -23.497  -6.123  -4.861  0.00  0.00    -0.271 OA
HETATM    2  H           1     -21.916  -7.935  -6.353  0.00  0.00     0.163 HD
HETATM    3  N           1     -21.859  -6.948  -6.134  0.00  0.00    -0.344 N 
HETATM    4  C           1     -22.346  -6.481  -4.943  0.00  0.00     0.249 C 
ENDROOT
BRANCH   4   5
HETATM    5  C           1     -21.446  -6.415  -3.734  0.00  0.00     0.274 C 
BRANCH   5   6
HETATM    6  N           1     -22.221  -5.888  -2.563  0.00  0.00    -0.067 N 
HETATM    7  H           1     -21.577  -5.757  -1.750  0.00  0.00     0.275 HD
HETATM    8  H           1     -22.652  -4.970  -2.816  0.00  0.00     0.275 HD
HETATM    9  H           1     -22.970  -6.568  -2.308  0.00  0.00     0.275 HD
ENDBRANCH   5   6
BRANCH   5  10
HETATM   10  C           1     -20.925  -7.810  -3.411  0.00  0.00     0.043 C 
BRANCH  10  11
HETATM   11  C           1     -20.508  -7.870  -1.947  0.00  0.00     0.006 C 
BRANCH  11  12
HETATM   12  C           1     -20.998  -9.173  -1.332  0.00  0.00     0.421 C 
BRANCH  12  13
HETATM   13  C           1     -22.358  -8.951  -0.685  0.00  0.00     0.231 C 
BRANCH  13  14
HETATM   14  N           1     -23.090 -10.257  -0.595  0.00  0.00    -0.079 N 
HETATM   15  H           1     -24.118 -10.085  -0.662  0.00  0.00     0.274 HD
HETATM   16  H           1     -22.873 -10.716   0.318  0.00  0.00     0.274 HD
HETATM   17  H           1     -22.788 -10.880  -1.378  0.00  0.00     0.274 HD
ENDBRANCH  13  14
ENDBRANCH  12  13
ENDBRANCH  11  12
ENDBRANCH  10  11
ENDBRANCH   5  10
ENDBRANCH   4   5
BRANCH   3  18
HETATM   18  C           1     -21.261  -6.029  -7.083  0.00  0.00     0.191 C 
BRANCH  18  19
HETATM   19  C           1     -21.833  -4.634  -6.867  0.00  0.00     0.094 C 
BRANCH  19  20
HETATM   20  C           1     -22.565  -4.198  -8.098  0.00  0.00     0.034 A 
HETATM   21  C           1     -21.976  -3.981  -9.321  0.00  0.00     0.212 A 
HETATM   22  N           1     -23.000  -3.601 -10.145  0.00  0.00    -0.073 N 
HETATM   23  C           1     -24.146  -3.602  -9.402  0.00  0.00     0.277 A 
HETATM   24  H           1     -22.919  -3.353 -11.162  0.00  0.00     0.272 HD
HETATM   25  N           1     -23.913  -3.959  -8.160  0.00  0.00    -0.349 N 
ATOM     26  HN          1     -24.591  -4.041  -7.402  1.00  0.00     0.166 HD
ENDBRANCH  19  20
ENDBRANCH  18  19
BRANCH  18  27
HETATM   27  C           1     -19.766  -5.997  -6.877  0.00  0.00     0.197 C 
HETATM   28  O           1     -19.148  -7.054  -6.630  0.00  0.00    -0.646 OA
HETATM   29  O           1     -19.147  -4.914  -6.955  0.00  0.00    -0.646 OA
ENDBRANCH  18  27
ENDBRANCH   3  18
TORSDOF 11
ENDMDL
MODEL 5
REMARK VINA RESULT:      -5.6      2.583      7.301
REMARK  11 active torsions:
REMARK  status: ('A' for Active; 'I' for Inactive)
REMARK    1  A    between atoms: N_1  and  C_23 
REMARK    2  A    between atoms: C_6  and  C_7 
REMARK    3  A    between atoms: C_7  and  C_28 
REMARK    4  A    between atoms: C_10  and  C_19 
REMARK    5  A    between atoms: C_10  and  N_14 
REMARK    6  A    between atoms: C_19  and  C_25 
REMARK    7  A    between atoms: N_21  and  C_28 
REMARK       I    between atoms: N_21  and  C_22 
REMARK    8  A    between atoms: C_22  and  C_23 
REMARK    9  A    between atoms: C_23  and  C_24 
REMARK   10  A    between atoms: C_24  and  C_25 
REMARK   11  A    between atoms: C_26  and  C_28 
ROOT
HETATM    1  O           1     -20.665  -4.340  -6.069  0.00  0.00    -0.271 OA
HETATM    2  H           1     -19.855  -6.863  -7.063  0.00  0.00     0.163 HD
HETATM    3  N           1     -20.674  -6.513  -6.581  0.00  0.00    -0.344 N 
HETATM    4  C           1     -21.086  -5.223  -6.778  0.00  0.00     0.249 C 
ENDROOT
BRANCH   4   5
HETATM    5  C           1     -22.063  -4.904  -7.882  0.00  0.00     0.274 C 
BRANCH   5   6
HETATM    6  N           1     -23.337  -4.383  -7.286  0.00  0.00    -0.067 N 
HETATM    7  H           1     -24.119  -4.513  -7.967  0.00  0.00     0.275 HD
HETATM    8  H           1     -23.550  -4.908  -6.408  0.00  0.00     0.275 HD
HETATM    9  H           1     -23.230  -3.367  -7.069  0.00  0.00     0.275 HD
ENDBRANCH   5   6
BRANCH   5  10
HETATM   10  C           1     -21.464  -3.846  -8.801  0.00  0.00     0.043 C 
BRANCH  10  11
HETATM   11  C           1     -20.182  -4.381  -9.425  0.00  0.00     0.006 C 
BRANCH  11  12
HETATM   12  C           1     -20.334  -4.427 -10.939  0.00  0.00     0.421 C 
BRANCH  12  13
HETATM   13  C           1     -21.642  -3.758 -11.339  0.00  0.00     0.231 C 
BRANCH  13  14
HETATM   14  N           1     -22.433  -4.686 -12.213  0.00  0.00    -0.079 N 
HETATM   15  H           1     -22.327  -4.398 -13.211  0.00  0.00     0.274 HD
HETATM   16  H           1     -23.442  -4.644 -11.943  0.00  0.00     0.274 HD
HETATM   17  H           1     -22.081  -5.662 -12.091  0.00  0.00     0.274 HD
ENDBRANCH  13  14
ENDBRANCH  12  13
ENDBRANCH  11  12
ENDBRANCH  10  11
ENDBRANCH   5  10
ENDBRANCH   4   5
BRANCH   3  18
HETATM   18  C           1     -21.412  -7.381  -5.683  0.00  0.00     0.191 C 
BRANCH  18  19
HETATM   19  C           1     -20.450  -8.353  -5.013  0.00  0.00     0.094 C 
BRANCH  19  20
HETATM   20  C           1     -21.139  -9.663  -4.789  0.00  0.00     0.034 A 
HETATM   21  C           1     -21.070 -10.738  -5.643  0.00  0.00     0.212 A 
HETATM   22  N           1     -21.838 -11.707  -5.057  0.00  0.00    -0.073 N 
HETATM   23  C           1     -22.333 -11.189  -3.894  0.00  0.00     0.277 A 
HETATM   24  H           1     -22.014 -12.671  -5.432  0.00  0.00     0.272 HD
HETATM   25  N           1     -21.927  -9.954  -3.706  0.00  0.00    -0.349 N 
ATOM     26  HN          1     -22.150  -9.342  -2.921  1.00  0.00     0.166 HD
ENDBRANCH  19  20
ENDBRANCH  18  19
BRANCH  18  27
HETATM   27  C           1     -22.098  -6.546  -4.630  0.00  0.00     0.197 C 
HETATM   28  O           1     -21.494  -6.250  -3.577  0.00  0.00    -0.646 OA
HETATM   29  O           1     -23.270  -6.152  -4.810  0.00  0.00    -0.646 OA
ENDBRANCH  18  27
ENDBRANCH   3  18
TORSDOF 11
ENDMDL
MODEL 6
REMARK VINA RESULT:      -5.5      2.176      7.712
REMARK  11 active torsions:
REMARK  status: ('A' for Active; 'I' for Inactive)
REMARK    1  A    between atoms: N_1  and  C_23 
REMARK    2  A    between atoms: C_6  and  C_7 
REMARK    3  A    between atoms: C_7  and  C_28 
REMARK    4  A    between atoms: C_10  and  C_19 
REMARK    5  A    between atoms: C_10  and  N_14 
REMARK    6  A    between atoms: C_19  and  C_25 
REMARK    7  A    between atoms: N_21  and  C_28 
REMARK       I    between atoms: N_21  and  C_22 
REMARK    8  A    between atoms: C_22  and  C_23 
REMARK    9  A    between atoms: C_23  and  C_24 
REMARK   10  A    between atoms: C_24  and  C_25 
REMARK   11  A    between atoms: C_26  and  C_28 
ROOT
HETATM    1  O           1     -19.700  -7.679  -6.024  0.00  0.00    -0.271 OA
HETATM    2  H           1     -21.852  -9.160  -4.937  0.00  0.00     0.163 HD
HETATM    3  N           1     -21.152  -8.533  -4.560  0.00  0.00    -0.344 N 
HETATM    4  C           1     -20.669  -7.506  -5.325  0.00  0.00     0.249 C 
ENDROOT
BRANCH   4   5
HETATM    5  C           1     -21.349  -6.159  -5.295  0.00  0.00     0.274 C 
BRANCH   5   6
HETATM    6  N           1     -21.949  -5.933  -3.939  0.00  0.00    -0.067 N 
HETATM    7  H           1     -21.202  -5.996  -3.211  0.00  0.00     0.275 HD
HETATM    8  H           1     -22.387  -4.984  -3.907  0.00  0.00     0.275 HD
HETATM    9  H           1     -22.676  -6.660  -3.755  0.00  0.00     0.275 HD
ENDBRANCH   5   6
BRANCH   5  10
HETATM   10  C           1     -20.326  -5.067  -5.585  0.00  0.00     0.043 C 
BRANCH  10  11
HETATM   11  C           1     -20.865  -4.141  -6.668  0.00  0.00     0.006 C 
BRANCH  11  12
HETATM   12  C           1     -22.041  -4.809  -7.367  0.00  0.00     0.421 C 
BRANCH  12  13
HETATM   13  C           1     -22.558  -3.898  -8.473  0.00  0.00     0.231 C 
BRANCH  13  14
HETATM   14  N           1     -24.059  -3.907  -8.469  0.00  0.00    -0.079 N 
HETATM   15  H           1     -24.408  -3.203  -7.781  0.00  0.00     0.274 HD
HETATM   16  H           1     -24.401  -4.857  -8.199  0.00  0.00     0.274 HD
HETATM   17  H           1     -24.411  -3.669  -9.423  0.00  0.00     0.274 HD
ENDBRANCH  13  14
ENDBRANCH  12  13
ENDBRANCH  11  12
ENDBRANCH  10  11
ENDBRANCH   5  10
ENDBRANCH   4   5
BRANCH   3  18
HETATM   18  C           1     -20.663  -8.723  -3.208  0.00  0.00     0.191 C 
BRANCH  18  19
HETATM   19  C           1     -21.712  -9.462  -2.388  0.00  0.00     0.094 C 
BRANCH  19  20
HETATM   20  C           1     -21.657  -8.993  -0.967  0.00  0.00     0.034 A 
HETATM   21  C           1     -22.252  -7.846  -0.500  0.00  0.00     0.212 A 
HETATM   22  N           1     -21.951  -7.808   0.835  0.00  0.00    -0.073 N 
HETATM   23  C           1     -21.199  -8.913   1.116  0.00  0.00     0.277 A 
HETATM   24  H           1     -22.244  -7.066   1.517  0.00  0.00     0.272 HD
HETATM   25  N           1     -21.006  -9.648   0.045  0.00  0.00    -0.349 N 
ATOM     26  HN          1     -20.482 -10.522  -0.020  1.00  0.00     0.166 HD
ENDBRANCH  19  20
ENDBRANCH  18  19
BRANCH  18  27
HETATM   27  C           1     -19.390  -9.532  -3.243  0.00  0.00     0.197 C 
HETATM   28  O           1     -19.356 -10.615  -3.866  0.00  0.00    -0.646 OA
HETATM   29  O           1     -18.370  -9.121  -2.650  0.00  0.00    -0.646 OA
ENDBRANCH  18  27
ENDBRANCH   3  18
TORSDOF 11
ENDMDL
MODEL 7
REMARK VINA RESULT:      -5.4      3.593      8.758
REMARK  11 active torsions:
REMARK  status: ('A' for Active; 'I' for Inactive)
REMARK    1  A    between atoms: N_1  and  C_23 
REMARK    2  A    between atoms: C_6  and  C_7 
REMARK    3  A    between atoms: C_7  and  C_28 
REMARK    4  A    between atoms: C_10  and  C_19 
REMARK    5  A    between atoms: C_10  and  N_14 
REMARK    6  A    between atoms: C_19  and  C_25 
REMARK    7  A    between atoms: N_21  and  C_28 
REMARK       I    between atoms: N_21  and  C_22 
REMARK    8  A    between atoms: C_22  and  C_23 
REMARK    9  A    between atoms: C_23  and  C_24 
REMARK   10  A    between atoms: C_24  and  C_25 
REMARK   11  A    between atoms: C_26  and  C_28 
ROOT
HETATM    1  O           1     -22.053  -5.694  -2.357  0.00  0.00    -0.271 OA
HETATM    2  H           1     -20.075  -7.638  -1.792  0.00  0.00     0.163 HD
HETATM    3  N           1     -21.073  -7.661  -1.963  0.00  0.00    -0.344 N 
HETATM    4  C           1     -21.646  -6.742  -2.800  0.00  0.00     0.249 C 
ENDROOT
BRANCH   4   5
HETATM    5  C           1     -21.769  -7.038  -4.274  0.00  0.00     0.274 C 
BRANCH   5   6
HETATM    6  N           1     -22.883  -6.220  -4.856  0.00  0.00    -0.067 N 
HETATM    7  H           1     -23.713  -6.259  -4.222  0.00  0.00     0.275 HD
HETATM    8  H           1     -22.569  -5.228  -4.958  0.00  0.00     0.275 HD
HETATM    9  H           1     -23.142  -6.602  -5.793  0.00  0.00     0.275 HD
ENDBRANCH   5   6
BRANCH   5  10
HETATM   10  C           1     -20.462  -6.687  -4.974  0.00  0.00     0.043 C 
BRANCH  10  11
HETATM   11  C           1     -20.523  -5.249  -5.472  0.00  0.00     0.006 C 
BRANCH  11  12
HETATM   12  C           1     -19.989  -5.182  -6.896  0.00  0.00     0.421 C 
BRANCH  12  13
HETATM   13  C           1     -21.108  -4.755  -7.839  0.00  0.00     0.231 C 
BRANCH  13  14
HETATM   14  N           1     -21.784  -3.532  -7.293  0.00  0.00    -0.079 N 
HETATM   15  H           1     -22.208  -2.991  -8.079  0.00  0.00     0.274 HD
HETATM   16  H           1     -21.081  -2.937  -6.799  0.00  0.00     0.274 HD
HETATM   17  H           1     -22.531  -3.819  -6.621  0.00  0.00     0.274 HD
ENDBRANCH  13  14
ENDBRANCH  12  13
ENDBRANCH  11  12
ENDBRANCH  10  11
ENDBRANCH   5  10
ENDBRANCH   4   5
BRANCH   3  18
HETATM   18  C           1     -21.894  -8.669  -1.320  0.00  0.00     0.191 C 
BRANCH  18  19
HETATM   19  C           1     -21.135  -9.988  -1.276  0.00  0.00     0.094 C 
BRANCH  19  20
HETATM   20  C           1     -21.935 -10.999  -0.514  0.00  0.00     0.034 A 
HETATM   21  C           1     -21.425 -11.830   0.455  0.00  0.00     0.212 A 
HETATM   22  N           1     -22.490 -12.577   0.878  0.00  0.00    -0.073 N 
HETATM   23  C           1     -23.581 -12.178   0.160  0.00  0.00     0.277 A 
HETATM   24  H           1     -22.471 -13.322   1.618  0.00  0.00     0.272 HD
HETATM   25  N           1     -23.275 -11.225  -0.690  0.00  0.00    -0.349 N 
ATOM     26  HN          1     -23.902 -10.753  -1.342  1.00  0.00     0.166 HD
ENDBRANCH  19  20
ENDBRANCH  18  19
BRANCH  18  27
HETATM   27  C           1     -22.222  -8.229   0.086  0.00  0.00     0.197 C 
HETATM   28  O           1     -23.414  -8.092   0.434  0.00  0.00    -0.646 OA
HETATM   29  O           1     -21.302  -8.002   0.900  0.00  0.00    -0.646 OA
ENDBRANCH  18  27
ENDBRANCH   3  18
TORSDOF 11
ENDMDL
MODEL 8
REMARK VINA RESULT:      -5.4      2.571      3.759
REMARK  11 active torsions:
REMARK  status: ('A' for Active; 'I' for Inactive)
REMARK    1  A    between atoms: N_1  and  C_23 
REMARK    2  A    between atoms: C_6  and  C_7 
REMARK    3  A    between atoms: C_7  and  C_28 
REMARK    4  A    between atoms: C_10  and  C_19 
REMARK    5  A    between atoms: C_10  and  N_14 
REMARK    6  A    between atoms: C_19  and  C_25 
REMARK    7  A    between atoms: N_21  and  C_28 
REMARK       I    between atoms: N_21  and  C_22 
REMARK    8  A    between atoms: C_22  and  C_23 
REMARK    9  A    between atoms: C_23  and  C_24 
REMARK   10  A    between atoms: C_24  and  C_25 
REMARK   11  A    between atoms: C_26  and  C_28 
ROOT
HETATM    1  O           1     -21.232  -5.324  -2.676  0.00  0.00    -0.271 OA
HETATM    2  H           1     -23.396  -6.273  -4.233  0.00  0.00     0.163 HD
HETATM    3  N           1     -22.409  -6.491  -4.171  0.00  0.00    -0.344 N 
HETATM    4  C           1     -21.755  -6.371  -2.974  0.00  0.00     0.249 C 
ENDROOT
BRANCH   4   5
HETATM    5  C           1     -21.688  -7.545  -2.030  0.00  0.00     0.274 C 
BRANCH   5   6
HETATM    6  N           1     -20.253  -7.870  -1.739  0.00  0.00    -0.067 N 
HETATM    7  H           1     -19.633  -7.212  -2.262  0.00  0.00     0.275 HD
HETATM    8  H           1     -20.076  -7.773  -0.713  0.00  0.00     0.275 HD
HETATM    9  H           1     -20.051  -8.850  -2.037  0.00  0.00     0.275 HD
ENDBRANCH   5   6
BRANCH   5  10
HETATM   10  C           1     -22.402  -7.195  -0.730  0.00  0.00     0.043 C 
BRANCH  10  11
HETATM   11  C           1     -22.172  -8.302   0.290  0.00  0.00     0.006 C 
BRANCH  11  12
HETATM   12  C           1     -23.033  -9.506  -0.064  0.00  0.00     0.421 C 
BRANCH  12  13
HETATM   13  C           1     -22.209 -10.780   0.078  0.00  0.00     0.231 C 
BRANCH  13  14
HETATM   14  N           1     -20.897 -10.457   0.730  0.00  0.00    -0.079 N 
HETATM   15  H           1     -20.371 -11.341   0.907  0.00  0.00     0.274 HD
HETATM   16  H           1     -21.069  -9.966   1.636  0.00  0.00     0.274 HD
HETATM   17  H           1     -20.339  -9.838   0.100  0.00  0.00     0.274 HD
ENDBRANCH  13  14
ENDBRANCH  12  13
ENDBRANCH  11  12
ENDBRANCH  10  11
ENDBRANCH   5  10
ENDBRANCH   4   5
BRANCH   3  18
HETATM   18  C           1     -21.690  -6.932  -5.350  0.00  0.00     0.191 C 
BRANCH  18  19
HETATM   19  C           1     -20.728  -5.838  -5.795  0.00  0.00     0.094 C 
BRANCH  19  20
HETATM   20  C           1     -21.310  -5.109  -6.966  0.00  0.00     0.034 A 
HETATM   21  C           1     -22.534  -4.483  -6.967  0.00  0.00     0.212 A 
HETATM   22  N           1     -22.661  -3.955  -8.222  0.00  0.00    -0.073 N 
HETATM   23  C           1     -21.531  -4.276  -8.919  0.00  0.00     0.277 A 
HETATM   24  H           1     -23.479  -3.404  -8.584  0.00  0.00     0.272 HD
HETATM   25  N           1     -20.696  -4.974  -8.184  0.00  0.00    -0.349 N 
ATOM     26  HN          1     -19.784  -5.338  -8.460  1.00  0.00     0.166 HD
ENDBRANCH  19  20
ENDBRANCH  18  19
BRANCH  18  27
HETATM   27  C           1     -20.911  -8.184  -5.025  0.00  0.00     0.197 C 
HETATM   28  O           1     -19.679  -8.120  -4.830  0.00  0.00    -0.646 OA
HETATM   29  O           1     -21.499  -9.284  -4.950  0.00  0.00    -0.646 OA
ENDBRANCH  18  27
ENDBRANCH   3  18
TORSDOF 11
ENDMDL
MODEL 9
REMARK VINA RESULT:      -5.4      3.783      5.793
REMARK  11 active torsions:
REMARK  status: ('A' for Active; 'I' for Inactive)
REMARK    1  A    between atoms: N_1  and  C_23 
REMARK    2  A    between atoms: C_6  and  C_7 
REMARK    3  A    between atoms: C_7  and  C_28 
REMARK    4  A    between atoms: C_10  and  C_19 
REMARK    5  A    between atoms: C_10  and  N_14 
REMARK    6  A    between atoms: C_19  and  C_25 
REMARK    7  A    between atoms: N_21  and  C_28 
REMARK       I    between atoms: N_21  and  C_22 
REMARK    8  A    between atoms: C_22  and  C_23 
REMARK    9  A    between atoms: C_23  and  C_24 
REMARK   10  A    between atoms: C_24  and  C_25 
REMARK   11  A    between atoms: C_26  and  C_28 
ROOT
HETATM    1  O           1     -21.844  -5.671  -2.290  0.00  0.00    -0.271 OA
HETATM    2  H           1     -22.728  -7.449  -4.307  0.00  0.00     0.163 HD
HETATM    3  N           1     -21.835  -7.241  -3.877  0.00  0.00    -0.344 N 
HETATM    4  C           1     -21.780  -6.845  -2.568  0.00  0.00     0.249 C 
ENDROOT
BRANCH   4   5
HETATM    5  C           1     -21.641  -7.874  -1.474  0.00  0.00     0.274 C 
BRANCH   5   6
HETATM    6  N           1     -20.186  -8.127  -1.208  0.00  0.00    -0.067 N 
HETATM    7  H           1     -19.796  -7.344  -0.636  0.00  0.00     0.275 HD
HETATM    8  H           1     -20.080  -9.026  -0.686  0.00  0.00     0.275 HD
HETATM    9  H           1     -19.672  -8.186  -2.115  0.00  0.00     0.275 HD
ENDBRANCH   5   6
BRANCH   5  10
HETATM   10  C           1     -22.307  -7.359  -0.203  0.00  0.00     0.043 C 
BRANCH  10  11
HETATM   11  C           1     -23.247  -8.425   0.345  0.00  0.00     0.006 C 
BRANCH  11  12
HETATM   12  C           1     -22.955  -9.757  -0.333  0.00  0.00     0.421 C 
BRANCH  12  13
HETATM   13  C           1     -24.105 -10.722  -0.073  0.00  0.00     0.231 C 
BRANCH  13  14
HETATM   14  N           1     -23.555 -12.084   0.233  0.00  0.00    -0.079 N 
HETATM   15  H           1     -23.954 -12.778  -0.438  0.00  0.00     0.274 HD
HETATM   16  H           1     -23.815 -12.354   1.209  0.00  0.00     0.274 HD
HETATM   17  H           1     -22.514 -12.068   0.142  0.00  0.00     0.274 HD
ENDBRANCH  13  14
ENDBRANCH  12  13
ENDBRANCH  11  12
ENDBRANCH  10  11
ENDBRANCH   5  10
ENDBRANCH   4   5
BRANCH   3  18
HETATM   18  C           1     -20.613  -7.365  -4.649  0.00  0.00     0.191 C 
BRANCH  18  19
HETATM   19  C           1     -20.489  -8.788  -5.176  0.00  0.00     0.094 C 
BRANCH  19  20
HETATM   20  C           1     -19.053  -9.209  -5.146  0.00  0.00     0.034 A 
HETATM   21  C           1     -18.338  -9.468  -4.001  0.00  0.00     0.212 A 
HETATM   22  N           1     -17.087  -9.813  -4.433  0.00  0.00    -0.073 N 
HETATM   23  C           1     -17.093  -9.749  -5.797  0.00  0.00     0.277 A 
HETATM   24  H           1     -16.272 -10.078  -3.827  0.00  0.00     0.272 HD
HETATM   25  N           1     -18.268  -9.385  -6.256  0.00  0.00    -0.349 N 
ATOM     26  HN          1     -18.541  -9.262  -7.232  1.00  0.00     0.166 HD
ENDBRANCH  19  20
ENDBRANCH  18  19
BRANCH  18  27
HETATM   27  C           1     -20.652  -6.400  -5.809  0.00  0.00     0.197 C 
HETATM   28  O           1     -20.263  -6.767  -6.938  0.00  0.00    -0.646 OA
HETATM   29  O           1     -21.072  -5.236  -5.640  0.00  0.00    -0.646 OA
ENDBRANCH  18  27
ENDBRANCH   3  18
TORSDOF 11
ENDMDL
