MODEL 1
REMARK VINA RESULT:      -5.1      0.000      0.000
REMARK  7 active torsions:
REMARK  status: ('A' for Active; 'I' for Inactive)
REMARK    1  A    between atoms: N_1  and  C_6 
REMARK    2  A    between atoms: C_3  and  C_16 
REMARK    3  A    between atoms: C_3  and  N_4 
REMARK       I    between atoms: N_4  and  C_5 
REMARK    4  A    between atoms: C_5  and  C_6 
REMARK    5  A    between atoms: C_6  and  C_7 
REMARK    6  A    between atoms: C_7  and  C_8 
REMARK    7  A    between atoms: C_8  and  Se_9 
ROOT
HETATM    1  C           1     -24.554  -6.755 -17.262  0.00  0.00     0.274 C 
ENDROOT
BRANCH   1   2
HETATM    2  N           1     -23.544  -7.845 -17.057  0.00  0.00    -0.067 N 
HETATM    3  H           1     -23.353  -7.955 -16.035  0.00  0.00     0.275 HD
HETATM    4  H           1     -23.916  -8.742 -17.440  0.00  0.00     0.275 HD
HETATM    5  H           1     -22.657  -7.595 -17.551  0.00  0.00     0.275 HD
ENDBRANCH   1   2
BRANCH   1   6
HETATM    6  C           1     -25.679  -6.920 -16.271  0.00  0.00     0.248 C 
HETATM    7  O           1     -25.433  -7.143 -15.109  0.00  0.00    -0.271 OA
HETATM    8  N           1     -26.979  -6.817 -16.687  0.00  0.00    -0.349 N 
HETATM    9  H           1     -27.186  -6.631 -17.660  0.00  0.00     0.163 HD
BRANCH   8  10
HETATM   10  C           1     -28.061  -6.976 -15.735  0.00  0.00     0.235 C 
BRANCH  10  11
HETATM   11  C           1     -28.771  -5.657 -15.553  0.00  0.00     0.191 C 
HETATM   12  O           1     -28.110  -4.606 -15.405  0.00  0.00    -0.647 OA
HETATM   13  O           1     -30.020  -5.615 -15.551  0.00  0.00    -0.647 OA
ENDBRANCH  10  11
ENDBRANCH   8  10
ENDBRANCH   1   6
BRANCH   1  14
HETATM   14  C           1     -25.107  -6.836 -18.678  0.00  0.00     0.042 C 
BRANCH  14  15
HETATM   15  C           1     -24.081  -7.498 -19.588  0.00  0.00     0.003 C 
BRANCH  15  16
HETATM   16 Se           1     -24.901  -7.898 -21.310  0.00  0.00     0.000 Se
HETATM   17  C           1     -23.216  -8.290 -22.206  0.00  0.00     0.000 C 
ENDBRANCH  15  16
ENDBRANCH  14  15
ENDBRANCH   1  14
TORSDOF 7
ENDMDL
MODEL 2
REMARK VINA RESULT:      -5.1      3.449      4.626
REMARK  7 active torsions:
REMARK  status: ('A' for Active; 'I' for Inactive)
REMARK    1  A    between atoms: N_1  and  C_6 
REMARK    2  A    between atoms: C_3  and  C_16 
REMARK    3  A    between atoms: C_3  and  N_4 
REMARK       I    between atoms: N_4  and  C_5 
REMARK    4  A    between atoms: C_5  and  C_6 
REMARK    5  A    between atoms: C_6  and  C_7 
REMARK    6  A    between atoms: C_7  and  C_8 
REMARK    7  A    between atoms: C_8  and  Se_9 
ROOT
HETATM    1  C           1     -28.881  -6.852 -17.097  0.00  0.00     0.274 C 
ENDROOT
BRANCH   1   2
HETATM    2  N           1     -29.491  -8.110 -17.641  0.00  0.00    -0.067 N 
HETATM    3  H           1     -29.702  -7.984 -18.657  0.00  0.00     0.275 HD
HETATM    4  H           1     -28.822  -8.902 -17.520  0.00  0.00     0.275 HD
HETATM    5  H           1     -30.377  -8.318 -17.125  0.00  0.00     0.275 HD
ENDBRANCH   1   2
BRANCH   1   6
HETATM    6  C           1     -29.965  -5.985 -16.503  0.00  0.00     0.248 C 
HETATM    7  O           1     -29.843  -5.548 -15.383  0.00  0.00    -0.271 OA
HETATM    8  N           1     -31.086  -5.694 -17.232  0.00  0.00    -0.349 N 
HETATM    9  H           1     -31.188  -6.059 -18.170  0.00  0.00     0.163 HD
BRANCH   8  10
HETATM   10  C           1     -32.127  -4.861 -16.662  0.00  0.00     0.235 C 
BRANCH  10  11
HETATM   11  C           1     -32.105  -3.504 -17.320  0.00  0.00     0.191 C 
HETATM   12  O           1     -31.014  -2.944 -17.562  0.00  0.00    -0.647 OA
HETATM   13  O           1     -33.178  -2.939 -17.623  0.00  0.00    -0.647 OA
ENDBRANCH  10  11
ENDBRANCH   8  10
ENDBRANCH   1   6
BRANCH   1  14
HETATM   14  C           1     -28.186  -6.097 -18.221  0.00  0.00     0.042 C 
BRANCH  14  15
HETATM   15  C           1     -26.677  -6.214 -18.055  0.00  0.00     0.003 C 
BRANCH  15  16
HETATM   16 Se           1     -26.249  -6.504 -16.176  0.00  0.00     0.000 Se
HETATM   17  C           1     -24.550  -7.391 -16.531  0.00  0.00     0.000 C 
ENDBRANCH  15  16
ENDBRANCH  14  15
ENDBRANCH   1  14
TORSDOF 7
ENDMDL
MODEL 3
REMARK VINA RESULT:      -5.0     10.740     12.070
REMARK  7 active torsions:
REMARK  status: ('A' for Active; 'I' for Inactive)
REMARK    1  A    between atoms: N_1  and  C_6 
REMARK    2  A    between atoms: C_3  and  C_16 
REMARK    3  A    between atoms: C_3  and  N_4 
REMARK       I    between atoms: N_4  and  C_5 
REMARK    4  A    between atoms: C_5  and  C_6 
REMARK    5  A    between atoms: C_6  and  C_7 
REMARK    6  A    between atoms: C_7  and  C_8 
REMARK    7  A    between atoms: C_8  and  Se_9 
ROOT
HETATM    1  C           1     -21.265  -5.798  -6.997  0.00  0.00     0.274 C 
ENDROOT
BRANCH   1   2
HETATM    2  N           1     -19.907  -6.135  -7.539  0.00  0.00    -0.067 N 
HETATM    3  H           1     -19.997  -6.454  -8.531  0.00  0.00     0.275 HD
HETATM    4  H           1     -19.297  -5.288  -7.500  0.00  0.00     0.275 HD
HETATM    5  H           1     -19.483  -6.899  -6.965  0.00  0.00     0.275 HD
ENDBRANCH   1   2
BRANCH   1   6
HETATM    6  C           1     -21.762  -4.527  -7.642  0.00  0.00     0.248 C 
HETATM    7  O           1     -21.476  -3.455  -7.163  0.00  0.00    -0.271 OA
HETATM    8  N           1     -22.536  -4.589  -8.769  0.00  0.00    -0.349 N 
HETATM    9  H           1     -22.776  -5.486  -9.170  0.00  0.00     0.163 HD
BRANCH   8  10
HETATM   10  C           1     -23.014  -3.368  -9.388  0.00  0.00     0.235 C 
BRANCH  10  11
HETATM   11  C           1     -24.186  -3.682 -10.286  0.00  0.00     0.191 C 
HETATM   12  O           1     -25.331  -3.288  -9.979  0.00  0.00    -0.647 OA
HETATM   13  O           1     -24.010  -4.336 -11.336  0.00  0.00    -0.647 OA
ENDBRANCH  10  11
ENDBRANCH   8  10
ENDBRANCH   1   6
BRANCH   1  14
HETATM   14  C           1     -21.176  -5.603  -5.491  0.00  0.00     0.042 C 
BRANCH  14  15
HETATM   15  C           1     -22.166  -6.530  -4.798  0.00  0.00     0.003 C 
BRANCH  15  16
HETATM   16 Se           1     -21.304  -7.377  -3.268  0.00  0.00     0.000 Se
HETATM   17  C           1     -22.165  -6.235  -1.944  0.00  0.00     0.000 C 
ENDBRANCH  15  16
ENDBRANCH  14  15
ENDBRANCH   1  14
TORSDOF 7
ENDMDL
MODEL 4
REMARK VINA RESULT:      -5.0      3.927      6.121
REMARK  7 active torsions:
REMARK  status: ('A' for Active; 'I' for Inactive)
REMARK    1  A    between atoms: N_1  and  C_6 
REMARK    2  A    between atoms: C_3  and  C_16 
REMARK    3  A    between atoms: C_3  and  N_4 
REMARK       I    between atoms: N_4  and  C_5 
REMARK    4  A    between atoms: C_5  and  C_6 
REMARK    5  A    between atoms: C_6  and  C_7 
REMARK    6  A    between atoms: C_7  and  C_8 
REMARK    7  A    between atoms: C_8  and  Se_9 
ROOT
HETATM    1  C           1     -28.904  -6.588 -17.902  0.00  0.00     0.274 C 
ENDROOT
BRANCH   1   2
HETATM    2  N           1     -29.337  -8.013 -18.078  0.00  0.00    -0.067 N 
HETATM    3  H           1     -29.478  -8.453 -17.141  0.00  0.00     0.275 HD
HETATM    4  H           1     -30.232  -8.041 -18.614  0.00  0.00     0.275 HD
HETATM    5  H           1     -28.599  -8.538 -18.601  0.00  0.00     0.275 HD
ENDBRANCH   1   2
BRANCH   1   6
HETATM    6  C           1     -27.495  -6.423 -18.419  0.00  0.00     0.248 C 
HETATM    7  O           1     -26.651  -5.913 -17.721  0.00  0.00    -0.271 OA
HETATM    8  N           1     -27.174  -6.853 -19.678  0.00  0.00    -0.349 N 
HETATM    9  H           1     -27.880  -7.281 -20.263  0.00  0.00     0.163 HD
BRANCH   8  10
HETATM   10  C           1     -25.821  -6.695 -20.175  0.00  0.00     0.235 C 
BRANCH  10  11
HETATM   11  C           1     -25.447  -7.894 -21.010  0.00  0.00     0.191 C 
HETATM   12  O           1     -24.244  -8.153 -21.230  0.00  0.00    -0.647 OA
HETATM   13  O           1     -26.341  -8.630 -21.483  0.00  0.00    -0.647 OA
ENDBRANCH  10  11
ENDBRANCH   8  10
ENDBRANCH   1   6
BRANCH   1  14
HETATM   14  C           1     -28.949  -6.223 -16.425  0.00  0.00     0.042 C 
BRANCH  14  15
HETATM   15  C           1     -30.170  -5.355 -16.152  0.00  0.00     0.003 C 
BRANCH  15  16
HETATM   16 Se           1     -30.397  -4.075 -17.604  0.00  0.00     0.000 Se
HETATM   17  C           1     -28.796  -3.052 -17.170  0.00  0.00     0.000 C 
ENDBRANCH  15  16
ENDBRANCH  14  15
ENDBRANCH   1  14
TORSDOF 7
ENDMDL
MODEL 5
REMARK VINA RESULT:      -4.9      9.750     10.886
REMARK  7 active torsions:
REMARK  status: ('A' for Active; 'I' for Inactive)
REMARK    1  A    between atoms: N_1  and  C_6 
REMARK    2  A    between atoms: C_3  and  C_16 
REMARK    3  A    between atoms: C_3  and  N_4 
REMARK       I    between atoms: N_4  and  C_5 
REMARK    4  A    between atoms: C_5  and  C_6 
REMARK    5  A    between atoms: C_6  and  C_7 
REMARK    6  A    between atoms: C_7  and  C_8 
REMARK    7  A    between atoms: C_8  and  Se_9 
ROOT
HETATM    1  C           1     -20.694  -3.990  -8.244  0.00  0.00     0.274 C 
ENDROOT
BRANCH   1   2
HETATM    2  N           1     -21.364  -3.324  -7.079  0.00  0.00    -0.067 N 
HETATM    3  H           1     -21.099  -2.313  -7.056  0.00  0.00     0.275 HD
HETATM    4  H           1     -22.400  -3.409  -7.177  0.00  0.00     0.275 HD
HETATM    5  H           1     -21.057  -3.784  -6.192  0.00  0.00     0.275 HD
ENDBRANCH   1   2
BRANCH   1   6
HETATM    6  C           1     -21.708  -4.230  -9.336  0.00  0.00     0.248 C 
HETATM    7  O           1     -21.379  -4.143 -10.495  0.00  0.00    -0.271 OA
HETATM    8  N           1     -23.000  -4.545  -9.013  0.00  0.00    -0.349 N 
HETATM    9  H           1     -23.277  -4.618  -8.042  0.00  0.00     0.163 HD
BRANCH   8  10
HETATM   10  C           1     -23.975  -4.775 -10.062  0.00  0.00     0.235 C 
BRANCH  10  11
HETATM   11  C           1     -24.833  -3.546 -10.232  0.00  0.00     0.191 C 
HETATM   12  O           1     -25.304  -3.264 -11.355  0.00  0.00    -0.647 OA
HETATM   13  O           1     -25.072  -2.810  -9.251  0.00  0.00    -0.647 OA
ENDBRANCH  10  11
ENDBRANCH   8  10
ENDBRANCH   1   6
BRANCH   1  14
HETATM   14  C           1     -20.104  -5.320  -7.798  0.00  0.00     0.042 C 
BRANCH  14  15
HETATM   15  C           1     -19.919  -5.313  -6.286  0.00  0.00     0.003 C 
BRANCH  15  16
HETATM   16 Se           1     -20.484  -7.028  -5.553  0.00  0.00     0.000 Se
HETATM   17  C           1     -22.239  -6.395  -4.991  0.00  0.00     0.000 C 
ENDBRANCH  15  16
ENDBRANCH  14  15
ENDBRANCH   1  14
TORSDOF 7
ENDMDL
MODEL 6
REMARK VINA RESULT:      -4.7     10.185     11.399
REMARK  7 active torsions:
REMARK  status: ('A' for Active; 'I' for Inactive)
REMARK    1  A    between atoms: N_1  and  C_6 
REMARK    2  A    between atoms: C_3  and  C_16 
REMARK    3  A    between atoms: C_3  and  N_4 
REMARK       I    between atoms: N_4  and  C_5 
REMARK    4  A    between atoms: C_5  and  C_6 
REMARK    5  A    between atoms: C_6  and  C_7 
REMARK    6  A    between atoms: C_7  and  C_8 
REMARK    7  A    between atoms: C_8  and  Se_9 
ROOT
HETATM    1  C           1     -22.201  -4.679  -6.671  0.00  0.00     0.274 C 
ENDROOT
BRANCH   1   2
HETATM    2  N           1     -23.641  -4.982  -6.381  0.00  0.00    -0.067 N 
HETATM    3  H           1     -24.170  -5.054  -7.280  0.00  0.00     0.275 HD
HETATM    4  H           1     -23.710  -5.887  -5.864  0.00  0.00     0.275 HD
HETATM    5  H           1     -24.047  -4.214  -5.799  0.00  0.00     0.275 HD
ENDBRANCH   1   2
BRANCH   1   6
HETATM    6  C           1     -22.038  -4.377  -8.141  0.00  0.00     0.248 C 
HETATM    7  O           1     -21.103  -4.839  -8.753  0.00  0.00    -0.271 OA
HETATM    8  N           1     -22.948  -3.580  -8.781  0.00  0.00    -0.349 N 
HETATM    9  H           1     -23.731  -3.193  -8.270  0.00  0.00     0.163 HD
BRANCH   8  10
HETATM   10  C           1     -22.792  -3.290 -10.193  0.00  0.00     0.235 C 
BRANCH  10  11
HETATM   11  C           1     -23.998  -3.792 -10.948  0.00  0.00     0.191 C 
HETATM   12  O           1     -25.117  -3.272 -10.755  0.00  0.00    -0.647 OA
HETATM   13  O           1     -23.876  -4.727 -11.768  0.00  0.00    -0.647 OA
ENDBRANCH  10  11
ENDBRANCH   8  10
ENDBRANCH   1   6
BRANCH   1  14
HETATM   14  C           1     -21.345  -5.882  -6.302  0.00  0.00     0.042 C 
BRANCH  14  15
HETATM   15  C           1     -21.448  -6.140  -4.804  0.00  0.00     0.003 C 
BRANCH  15  16
HETATM   16 Se           1     -21.567  -8.058  -4.481  0.00  0.00     0.000 Se
HETATM   17  C           1     -19.704  -8.414  -4.930  0.00  0.00     0.000 C 
ENDBRANCH  15  16
ENDBRANCH  14  15
ENDBRANCH   1  14
TORSDOF 7
ENDMDL
MODEL 7
REMARK VINA RESULT:      -4.7     10.965     12.187
REMARK  7 active torsions:
REMARK  status: ('A' for Active; 'I' for Inactive)
REMARK    1  A    between atoms: N_1  and  C_6 
REMARK    2  A    between atoms: C_3  and  C_16 
REMARK    3  A    between atoms: C_3  and  N_4 
REMARK       I    between atoms: N_4  and  C_5 
REMARK    4  A    between atoms: C_5  and  C_6 
REMARK    5  A    between atoms: C_6  and  C_7 
REMARK    6  A    between atoms: C_7  and  C_8 
REMARK    7  A    between atoms: C_8  and  Se_9 
ROOT
HETATM    1  C           1     -20.970  -4.178  -7.319  0.00  0.00     0.274 C 
ENDROOT
BRANCH   1   2
HETATM    2  N           1     -19.758  -4.260  -8.199  0.00  0.00    -0.067 N 
HETATM    3  H           1     -19.552  -5.261  -8.417  0.00  0.00     0.275 HD
HETATM    4  H           1     -19.937  -3.740  -9.087  0.00  0.00     0.275 HD
HETATM    5  H           1     -18.940  -3.836  -7.704  0.00  0.00     0.275 HD
ENDBRANCH   1   2
BRANCH   1   6
HETATM    6  C           1     -21.179  -5.504  -6.628  0.00  0.00     0.248 C 
HETATM    7  O           1     -20.710  -6.512  -7.102  0.00  0.00    -0.271 OA
HETATM    8  N           1     -21.899  -5.564  -5.466  0.00  0.00    -0.349 N 
HETATM    9  H           1     -22.291  -4.720  -5.069  0.00  0.00     0.163 HD
BRANCH   8  10
HETATM   10  C           1     -22.099  -6.838  -4.802  0.00  0.00     0.235 C 
BRANCH  10  11
HETATM   11  C           1     -21.766  -6.701  -3.337  0.00  0.00     0.191 C 
HETATM   12  O           1     -20.810  -7.343  -2.851  0.00  0.00    -0.647 OA
HETATM   13  O           1     -22.447  -5.946  -2.609  0.00  0.00    -0.647 OA
ENDBRANCH  10  11
ENDBRANCH   8  10
ENDBRANCH   1   6
BRANCH   1  14
HETATM   14  C           1     -22.191  -3.849  -8.166  0.00  0.00     0.042 C 
BRANCH  14  15
HETATM   15  C           1     -21.902  -4.175  -9.625  0.00  0.00     0.003 C 
BRANCH  15  16
HETATM   16 Se           1     -23.543  -4.757 -10.499  0.00  0.00     0.000 Se
HETATM   17  C           1     -24.648  -3.351  -9.726  0.00  0.00     0.000 C 
ENDBRANCH  15  16
ENDBRANCH  14  15
ENDBRANCH   1  14
TORSDOF 7
ENDMDL
MODEL 8
REMARK VINA RESULT:      -4.7     12.954     14.020
REMARK  7 active torsions:
REMARK  status: ('A' for Active; 'I' for Inactive)
REMARK    1  A    between atoms: N_1  and  C_6 
REMARK    2  A    between atoms: C_3  and  C_16 
REMARK    3  A    between atoms: C_3  and  N_4 
REMARK       I    between atoms: N_4  and  C_5 
REMARK    4  A    between atoms: C_5  and  C_6 
REMARK    5  A    between atoms: C_6  and  C_7 
REMARK    6  A    between atoms: C_7  and  C_8 
REMARK    7  A    between atoms: C_8  and  Se_9 
ROOT
HETATM    1  C           1     -20.479  -6.318  -5.351  0.00  0.00     0.274 C 
ENDROOT
BRANCH   1   2
HETATM    2  N           1     -20.889  -7.285  -6.422  0.00  0.00    -0.067 N 
HETATM    3  H           1     -21.914  -7.479  -6.343  0.00  0.00     0.275 HD
HETATM    4  H           1     -20.684  -6.875  -7.360  0.00  0.00     0.275 HD
HETATM    5  H           1     -20.357  -8.178  -6.306  0.00  0.00     0.275 HD
ENDBRANCH   1   2
BRANCH   1   6
HETATM    6  C           1     -21.558  -6.249  -4.297  0.00  0.00     0.248 C 
HETATM    7  O           1     -22.719  -6.191  -4.624  0.00  0.00    -0.271 OA
HETATM    8  N           1     -21.220  -6.253  -2.971  0.00  0.00    -0.349 N 
HETATM    9  H           1     -20.247  -6.301  -2.696  0.00  0.00     0.163 HD
BRANCH   8  10
HETATM   10  C           1     -22.255  -6.187  -1.958  0.00  0.00     0.235 C 
BRANCH  10  11
HETATM   11  C           1     -22.043  -7.286  -0.947  0.00  0.00     0.191 C 
HETATM   12  O           1     -20.980  -7.943  -0.952  0.00  0.00    -0.647 OA
HETATM   13  O           1     -22.931  -7.540  -0.104  0.00  0.00    -0.647 OA
ENDBRANCH  10  11
ENDBRANCH   8  10
ENDBRANCH   1   6
BRANCH   1  14
HETATM   14  C           1     -20.278  -4.939  -5.963  0.00  0.00     0.042 C 
BRANCH  14  15
HETATM   15  C           1     -20.498  -5.013  -7.468  0.00  0.00     0.003 C 
BRANCH  15  16
HETATM   16 Se           1     -22.161  -4.107  -7.928  0.00  0.00     0.000 Se
HETATM   17  C           1     -21.867  -4.194  -9.853  0.00  0.00     0.000 C 
ENDBRANCH  15  16
ENDBRANCH  14  15
ENDBRANCH   1  14
TORSDOF 7
ENDMDL
MODEL 9
REMARK VINA RESULT:      -4.6      1.981      2.338
REMARK  7 active torsions:
REMARK  status: ('A' for Active; 'I' for Inactive)
REMARK    1  A    between atoms: N_1  and  C_6 
REMARK    2  A    between atoms: C_3  and  C_16 
REMARK    3  A    between atoms: C_3  and  N_4 
REMARK       I    between atoms: N_4  and  C_5 
REMARK    4  A    between atoms: C_5  and  C_6 
REMARK    5  A    between atoms: C_6  and  C_7 
REMARK    6  A    between atoms: C_7  and  C_8 
REMARK    7  A    between atoms: C_8  and  Se_9 
ROOT
HETATM    1  C           1     -25.451  -6.418 -17.410  0.00  0.00     0.274 C 
ENDROOT
BRANCH   1   2
HETATM    2  N           1     -24.717  -7.523 -16.708  0.00  0.00    -0.067 N 
HETATM    3  H           1     -24.023  -7.112 -16.042  0.00  0.00     0.275 HD
HETATM    4  H           1     -25.398  -8.113 -16.180  0.00  0.00     0.275 HD
HETATM    5  H           1     -24.217  -8.111 -17.413  0.00  0.00     0.275 HD
ENDBRANCH   1   2
BRANCH   1   6
HETATM    6  C           1     -26.809  -6.237 -16.778  0.00  0.00     0.248 C 
HETATM    7  O           1     -26.912  -5.658 -15.723  0.00  0.00    -0.271 OA
HETATM    8  N           1     -27.925  -6.729 -17.400  0.00  0.00    -0.349 N 
HETATM    9  H           1     -27.839  -7.215 -18.283  0.00  0.00     0.163 HD
BRANCH   8  10
HETATM   10  C           1     -29.230  -6.555 -16.793  0.00  0.00     0.235 C 
BRANCH  10  11
HETATM   11  C           1     -30.267  -7.290 -17.606  0.00  0.00     0.191 C 
HETATM   12  O           1     -31.475  -6.987 -17.499  0.00  0.00    -0.647 OA
HETATM   13  O           1     -29.918  -8.201 -18.387  0.00  0.00    -0.647 OA
ENDBRANCH  10  11
ENDBRANCH   8  10
ENDBRANCH   1   6
BRANCH   1  14
HETATM   14  C           1     -25.618  -6.774 -18.880  0.00  0.00     0.042 C 
BRANCH  14  15
HETATM   15  C           1     -24.284  -7.247 -19.444  0.00  0.00     0.003 C 
BRANCH  15  16
HETATM   16 Se           1     -24.544  -7.914 -21.257  0.00  0.00     0.000 Se
HETATM   17  C           1     -26.470  -8.142 -21.072  0.00  0.00     0.000 C 
ENDBRANCH  15  16
ENDBRANCH  14  15
ENDBRANCH   1  14
TORSDOF 7
ENDMDL
