MODEL 1
REMARK VINA RESULT:      -6.0      0.000      0.000
REMARK  5 active torsions:
REMARK  status: ('A' for Active; 'I' for Inactive)
REMARK    1  A    between atoms: C_1  and  C_12 
REMARK    2  A    between atoms: C_1  and  C_2 
REMARK    3  A    between atoms: C_1  and  N_6 
REMARK       I    between atoms: N_6  and  C_7 
REMARK    4  A    between atoms: C_7  and  C_8 
REMARK    5  A    between atoms: C_12  and  O_17 
ROOT
HETATM    1  H           1     -21.077  -5.329  -9.892  0.00  0.00     0.163 HD
HETATM    2  N           1     -21.740  -4.696  -9.462  0.00  0.00    -0.343 N 
HETATM    3  C           1     -22.012  -4.797  -8.123  0.00  0.00     0.251 C 
HETATM    4  O           1     -22.802  -4.041  -7.609  0.00  0.00    -0.271 OA
ENDROOT
BRANCH   2   5
HETATM    5  C           1     -22.401  -3.684 -10.261  0.00  0.00     0.209 C 
BRANCH   5   6
HETATM    6  C           1     -21.473  -3.232 -11.381  0.00  0.00     0.200 C 
BRANCH   6   7
HETATM    7  O           1     -21.852  -3.851 -12.581  0.00  0.00    -0.398 OA
HETATM    8  H           1     -21.963  -3.166 -13.218  0.00  0.00     0.209 HD
ENDBRANCH   6   7
ENDBRANCH   5   6
BRANCH   5   9
HETATM    9  C           1     -23.663  -4.260 -10.857  0.00  0.00     0.198 C 
HETATM   10  O           1     -23.727  -5.480 -11.122  0.00  0.00    -0.646 OA
HETATM   11  O           1     -24.642  -3.518 -11.085  0.00  0.00    -0.646 OA
ENDBRANCH   5   9
ENDBRANCH   2   5
BRANCH   3  12
HETATM   12  C           1     -21.323  -5.850  -7.290  0.00  0.00     0.311 C 
HETATM   13  N           1     -19.901  -5.922  -7.617  0.00  0.00     0.097 N 
HETATM   14  H           1     -19.495  -6.792  -7.272  0.00  0.00     0.317 HD
HETATM   15  C           1     -19.295  -4.790  -6.922  0.00  0.00     0.271 C 
HETATM   16  C           1     -20.005  -4.769  -5.578  0.00  0.00     0.033 C 
HETATM   17  C           1     -21.336  -5.470  -5.820  0.00  0.00     0.047 C 
ENDBRANCH   3  12
TORSDOF 5
ENDMDL
MODEL 2
REMARK VINA RESULT:      -5.9      1.314      2.203
REMARK  5 active torsions:
REMARK  status: ('A' for Active; 'I' for Inactive)
REMARK    1  A    between atoms: C_1  and  C_12 
REMARK    2  A    between atoms: C_1  and  C_2 
REMARK    3  A    between atoms: C_1  and  N_6 
REMARK       I    between atoms: N_6  and  C_7 
REMARK    4  A    between atoms: C_7  and  C_8 
REMARK    5  A    between atoms: C_12  and  O_17 
ROOT
HETATM    1  H           1     -21.577  -3.715  -9.608  0.00  0.00     0.163 HD
HETATM    2  N           1     -22.379  -4.060  -9.096  0.00  0.00    -0.343 N 
HETATM    3  C           1     -22.327  -4.163  -7.731  0.00  0.00     0.251 C 
HETATM    4  O           1     -23.285  -4.574  -7.120  0.00  0.00    -0.271 OA
ENDROOT
BRANCH   2   5
HETATM    5  C           1     -23.582  -4.446  -9.807  0.00  0.00     0.209 C 
BRANCH   5   6
HETATM    6  C           1     -24.612  -3.328  -9.709  0.00  0.00     0.200 C 
BRANCH   6   7
HETATM    7  O           1     -25.212  -3.134 -10.962  0.00  0.00    -0.398 OA
HETATM    8  H           1     -26.091  -3.466 -10.898  0.00  0.00     0.209 HD
ENDBRANCH   6   7
ENDBRANCH   5   6
BRANCH   5   9
HETATM    9  C           1     -23.250  -4.697 -11.257  0.00  0.00     0.198 C 
HETATM   10  O           1     -22.383  -4.001 -11.829  0.00  0.00    -0.646 OA
HETATM   11  O           1     -23.840  -5.601 -11.886  0.00  0.00    -0.646 OA
ENDBRANCH   5   9
ENDBRANCH   2   5
BRANCH   3  12
HETATM   12  C           1     -21.075  -3.761  -6.992  0.00  0.00     0.311 C 
HETATM   13  N           1     -20.809  -4.677  -5.885  0.00  0.00     0.097 N 
HETATM   14  H           1     -20.142  -4.267  -5.230  0.00  0.00     0.317 HD
HETATM   15  C           1     -20.218  -5.859  -6.506  0.00  0.00     0.271 C 
HETATM   16  C           1     -19.291  -5.286  -7.566  0.00  0.00     0.033 C 
HETATM   17  C           1     -19.852  -3.906  -7.881  0.00  0.00     0.047 C 
ENDBRANCH   3  12
TORSDOF 5
ENDMDL
MODEL 3
REMARK VINA RESULT:      -5.9     13.007     14.234
REMARK  5 active torsions:
REMARK  status: ('A' for Active; 'I' for Inactive)
REMARK    1  A    between atoms: C_1  and  C_12 
REMARK    2  A    between atoms: C_1  and  C_2 
REMARK    3  A    between atoms: C_1  and  N_6 
REMARK       I    between atoms: N_6  and  C_7 
REMARK    4  A    between atoms: C_7  and  C_8 
REMARK    5  A    between atoms: C_12  and  O_17 
ROOT
HETATM    1  H           1     -33.788  -1.091 -12.570  0.00  0.00     0.163 HD
HETATM    2  N           1     -34.789  -1.046 -12.433  0.00  0.00    -0.343 N 
HETATM    3  C           1     -35.393  -1.863 -11.514  0.00  0.00     0.251 C 
HETATM    4  O           1     -36.588  -1.808 -11.351  0.00  0.00    -0.271 OA
ENDROOT
BRANCH   2   5
HETATM    5  C           1     -35.587  -0.117 -13.210  0.00  0.00     0.209 C 
BRANCH   5   6
HETATM    6  C           1     -34.748   1.106 -13.559  0.00  0.00     0.200 C 
BRANCH   6   7
HETATM    7  O           1     -35.286   1.733 -14.693  0.00  0.00    -0.398 OA
HETATM    8  H           1     -35.080   2.649 -14.621  0.00  0.00     0.209 HD
ENDBRANCH   6   7
ENDBRANCH   5   6
BRANCH   5   9
HETATM    9  C           1     -36.046  -0.790 -14.481  0.00  0.00     0.198 C 
HETATM   10  O           1     -37.249  -0.734 -14.817  0.00  0.00    -0.646 OA
HETATM   11  O           1     -35.225  -1.401 -15.196  0.00  0.00    -0.646 OA
ENDBRANCH   5   9
ENDBRANCH   2   5
BRANCH   3  12
HETATM   12  C           1     -34.563  -2.830 -10.705  0.00  0.00     0.311 C 
HETATM   13  N           1     -35.074  -4.191 -10.839  0.00  0.00     0.097 N 
HETATM   14  H           1     -34.703  -4.790 -10.101  0.00  0.00     0.317 HD
HETATM   15  C           1     -34.584  -4.653 -12.135  0.00  0.00     0.271 C 
HETATM   16  C           1     -33.164  -4.116 -12.198  0.00  0.00     0.033 C 
HETATM   17  C           1     -33.150  -2.920 -11.255  0.00  0.00     0.047 C 
ENDBRANCH   3  12
TORSDOF 5
ENDMDL
MODEL 4
REMARK VINA RESULT:      -5.8     12.195     13.987
REMARK  5 active torsions:
REMARK  status: ('A' for Active; 'I' for Inactive)
REMARK    1  A    between atoms: C_1  and  C_12 
REMARK    2  A    between atoms: C_1  and  C_2 
REMARK    3  A    between atoms: C_1  and  N_6 
REMARK       I    between atoms: N_6  and  C_7 
REMARK    4  A    between atoms: C_7  and  C_8 
REMARK    5  A    between atoms: C_12  and  O_17 
ROOT
HETATM    1  H           1     -34.773  -0.895 -11.401  0.00  0.00     0.163 HD
HETATM    2  N           1     -34.928  -1.408 -12.259  0.00  0.00    -0.343 N 
HETATM    3  C           1     -34.247  -2.572 -12.495  0.00  0.00     0.251 C 
HETATM    4  O           1     -34.433  -3.185 -13.519  0.00  0.00    -0.271 OA
ENDROOT
BRANCH   2   5
HETATM    5  C           1     -35.873  -0.911 -13.241  0.00  0.00     0.209 C 
BRANCH   5   6
HETATM    6  C           1     -37.038  -0.236 -12.530  0.00  0.00     0.200 C 
BRANCH   6   7
HETATM    7  O           1     -37.824   0.450 -13.468  0.00  0.00    -0.398 OA
HETATM    8  H           1     -37.549   0.158 -14.320  0.00  0.00     0.209 HD
ENDBRANCH   6   7
ENDBRANCH   5   6
BRANCH   5   9
HETATM    9  C           1     -35.185   0.090 -14.138  0.00  0.00     0.198 C 
HETATM   10  O           1     -34.873   1.216 -13.693  0.00  0.00    -0.646 OA
HETATM   11  O           1     -34.926  -0.208 -15.323  0.00  0.00    -0.646 OA
ENDBRANCH   5   9
ENDBRANCH   2   5
BRANCH   3  12
HETATM   12  C           1     -33.264  -3.090 -11.473  0.00  0.00     0.311 C 
HETATM   13  N           1     -33.951  -3.481 -10.245  0.00  0.00     0.097 N 
HETATM   14  H           1     -33.289  -3.569  -9.473  0.00  0.00     0.317 HD
HETATM   15  C           1     -34.534  -4.788 -10.537  0.00  0.00     0.271 C 
HETATM   16  C           1     -33.454  -5.495 -11.339  0.00  0.00     0.033 C 
HETATM   17  C           1     -32.617  -4.379 -11.950  0.00  0.00     0.047 C 
ENDBRANCH   3  12
TORSDOF 5
ENDMDL
MODEL 5
REMARK VINA RESULT:      -5.6      1.331      1.684
REMARK  5 active torsions:
REMARK  status: ('A' for Active; 'I' for Inactive)
REMARK    1  A    between atoms: C_1  and  C_12 
REMARK    2  A    between atoms: C_1  and  C_2 
REMARK    3  A    between atoms: C_1  and  N_6 
REMARK       I    between atoms: N_6  and  C_7 
REMARK    4  A    between atoms: C_7  and  C_8 
REMARK    5  A    between atoms: C_12  and  O_17 
ROOT
HETATM    1  H           1     -22.604  -5.610  -8.960  0.00  0.00     0.163 HD
HETATM    2  N           1     -22.027  -4.846  -9.289  0.00  0.00    -0.343 N 
HETATM    3  C           1     -20.756  -4.690  -8.804  0.00  0.00     0.251 C 
HETATM    4  O           1     -20.067  -3.779  -9.198  0.00  0.00    -0.271 OA
ENDROOT
BRANCH   2   5
HETATM    5  C           1     -22.545  -3.917 -10.275  0.00  0.00     0.209 C 
BRANCH   5   6
HETATM    6  C           1     -22.080  -4.336 -11.663  0.00  0.00     0.200 C 
BRANCH   6   7
HETATM    7  O           1     -23.182  -4.773 -12.413  0.00  0.00    -0.398 OA
HETATM    8  H           1     -23.446  -5.602 -12.052  0.00  0.00     0.209 HD
ENDBRANCH   6   7
ENDBRANCH   5   6
BRANCH   5   9
HETATM    9  C           1     -24.054  -3.926 -10.228  0.00  0.00     0.198 C 
HETATM   10  O           1     -24.697  -2.928 -10.619  0.00  0.00    -0.646 OA
HETATM   11  O           1     -24.660  -4.931  -9.799  0.00  0.00    -0.646 OA
ENDBRANCH   5   9
ENDBRANCH   2   5
BRANCH   3  12
HETATM   12  C           1     -20.216  -5.657  -7.779  0.00  0.00     0.311 C 
HETATM   13  N           1     -19.461  -4.952  -6.747  0.00  0.00     0.097 N 
HETATM   14  H           1     -18.876  -5.601  -6.220  0.00  0.00     0.317 HD
HETATM   15  C           1     -20.473  -4.379  -5.864  0.00  0.00     0.271 C 
HETATM   16  C           1     -21.520  -5.475  -5.753  0.00  0.00     0.033 C 
HETATM   17  C           1     -21.348  -6.317  -7.011  0.00  0.00     0.047 C 
ENDBRANCH   3  12
TORSDOF 5
ENDMDL
MODEL 6
REMARK VINA RESULT:      -5.4      1.592      2.468
REMARK  5 active torsions:
REMARK  status: ('A' for Active; 'I' for Inactive)
REMARK    1  A    between atoms: C_1  and  C_12 
REMARK    2  A    between atoms: C_1  and  C_2 
REMARK    3  A    between atoms: C_1  and  N_6 
REMARK       I    between atoms: N_6  and  C_7 
REMARK    4  A    between atoms: C_7  and  C_8 
REMARK    5  A    between atoms: C_12  and  O_17 
ROOT
HETATM    1  H           1     -23.003  -3.774  -8.738  0.00  0.00     0.163 HD
HETATM    2  N           1     -22.203  -4.272  -9.108  0.00  0.00    -0.343 N 
HETATM    3  C           1     -21.171  -4.621  -8.278  0.00  0.00     0.251 C 
HETATM    4  O           1     -20.217  -5.216  -8.720  0.00  0.00    -0.271 OA
ENDROOT
BRANCH   2   5
HETATM    5  C           1     -22.149  -4.615 -10.516  0.00  0.00     0.209 C 
BRANCH   5   6
HETATM    6  C           1     -23.564  -4.743 -11.063  0.00  0.00     0.200 C 
BRANCH   6   7
HETATM    7  O           1     -23.524  -4.755 -12.465  0.00  0.00    -0.398 OA
HETATM    8  H           1     -24.342  -5.116 -12.759  0.00  0.00     0.209 HD
ENDBRANCH   6   7
ENDBRANCH   5   6
BRANCH   5   9
HETATM    9  C           1     -21.416  -3.531 -11.268  0.00  0.00     0.198 C 
HETATM   10  O           1     -22.009  -2.474 -11.576  0.00  0.00    -0.646 OA
HETATM   11  O           1     -20.218  -3.689 -11.583  0.00  0.00    -0.646 OA
ENDBRANCH   5   9
ENDBRANCH   2   5
BRANCH   3  12
HETATM   12  C           1     -21.228  -4.265  -6.813  0.00  0.00     0.311 C 
HETATM   13  N           1     -22.307  -4.987  -6.145  0.00  0.00     0.097 N 
HETATM   14  H           1     -22.525  -4.558  -5.245  0.00  0.00     0.317 HD
HETATM   15  C           1     -21.786  -6.334  -5.931  0.00  0.00     0.271 C 
HETATM   16  C           1     -20.343  -6.102  -5.517  0.00  0.00     0.033 C 
HETATM   17  C           1     -19.977  -4.740  -6.093  0.00  0.00     0.047 C 
ENDBRANCH   3  12
TORSDOF 5
ENDMDL
MODEL 7
REMARK VINA RESULT:      -5.4     12.806     14.327
REMARK  5 active torsions:
REMARK  status: ('A' for Active; 'I' for Inactive)
REMARK    1  A    between atoms: C_1  and  C_12 
REMARK    2  A    between atoms: C_1  and  C_2 
REMARK    3  A    between atoms: C_1  and  N_6 
REMARK       I    between atoms: N_6  and  C_7 
REMARK    4  A    between atoms: C_7  and  C_8 
REMARK    5  A    between atoms: C_12  and  O_17 
ROOT
HETATM    1  H           1     -34.775  -0.855 -11.033  0.00  0.00     0.163 HD
HETATM    2  N           1     -35.579  -1.467 -11.077  0.00  0.00    -0.343 N 
HETATM    3  C           1     -35.454  -2.787 -10.735  0.00  0.00     0.251 C 
HETATM    4  O           1     -36.415  -3.518 -10.788  0.00  0.00    -0.271 OA
ENDROOT
BRANCH   2   5
HETATM    5  C           1     -36.864  -0.947 -11.503  0.00  0.00     0.209 C 
BRANCH   5   6
HETATM    6  C           1     -37.321   0.137 -10.536  0.00  0.00     0.200 C 
BRANCH   6   7
HETATM    7  O           1     -36.205   0.845 -10.066  0.00  0.00    -0.398 OA
HETATM    8  H           1     -35.795   1.238 -10.818  0.00  0.00     0.209 HD
ENDBRANCH   6   7
ENDBRANCH   5   6
BRANCH   5   9
HETATM    9  C           1     -36.734  -0.361 -12.888  0.00  0.00     0.198 C 
HETATM   10  O           1     -37.521  -0.715 -13.793  0.00  0.00    -0.646 OA
HETATM   11  O           1     -35.841   0.479 -13.130  0.00  0.00    -0.646 OA
ENDBRANCH   5   9
ENDBRANCH   2   5
BRANCH   3  12
HETATM   12  C           1     -34.117  -3.328 -10.291  0.00  0.00     0.311 C 
HETATM   13  N           1     -34.107  -4.787 -10.338  0.00  0.00     0.097 N 
HETATM   14  H           1     -33.328  -5.160  -9.793  0.00  0.00     0.317 HD
HETATM   15  C           1     -33.918  -5.119 -11.747  0.00  0.00     0.271 C 
HETATM   16  C           1     -32.894  -4.104 -12.225  0.00  0.00     0.033 C 
HETATM   17  C           1     -33.023  -2.928 -11.265  0.00  0.00     0.047 C 
ENDBRANCH   3  12
TORSDOF 5
ENDMDL
MODEL 8
REMARK VINA RESULT:      -5.3     17.657     19.499
REMARK  5 active torsions:
REMARK  status: ('A' for Active; 'I' for Inactive)
REMARK    1  A    between atoms: C_1  and  C_12 
REMARK    2  A    between atoms: C_1  and  C_2 
REMARK    3  A    between atoms: C_1  and  N_6 
REMARK       I    between atoms: N_6  and  C_7 
REMARK    4  A    between atoms: C_7  and  C_8 
REMARK    5  A    between atoms: C_12  and  O_17 
ROOT
HETATM    1  H           1     -10.574   6.195 -19.467  0.00  0.00     0.163 HD
HETATM    2  N           1     -11.292   6.729 -19.940  0.00  0.00    -0.343 N 
HETATM    3  C           1     -12.472   6.128 -20.290  0.00  0.00     0.251 C 
HETATM    4  O           1     -13.329   6.765 -20.853  0.00  0.00    -0.271 OA
ENDROOT
BRANCH   2   5
HETATM    5  C           1     -11.072   8.128 -20.248  0.00  0.00     0.209 C 
BRANCH   5   6
HETATM    6  C           1     -11.316   8.969 -19.001  0.00  0.00     0.200 C 
BRANCH   6   7
HETATM    7  O           1     -10.203   8.879 -18.152  0.00  0.00    -0.398 OA
HETATM    8  H           1      -9.520   8.455 -18.642  0.00  0.00     0.209 HD
ENDBRANCH   6   7
ENDBRANCH   5   6
BRANCH   5   9
HETATM    9  C           1      -9.649   8.322 -20.713  0.00  0.00     0.198 C 
HETATM   10  O           1      -8.860   7.353 -20.730  0.00  0.00    -0.646 OA
HETATM   11  O           1      -9.261   9.451 -21.081  0.00  0.00    -0.646 OA
ENDBRANCH   5   9
ENDBRANCH   2   5
BRANCH   3  12
HETATM   12  C           1     -12.701   4.671 -19.968  0.00  0.00     0.311 C 
HETATM   13  N           1     -13.420   4.008 -21.052  0.00  0.00     0.097 N 
HETATM   14  H           1     -13.812   3.120 -20.735  0.00  0.00     0.317 HD
HETATM   15  C           1     -12.410   3.757 -22.077  0.00  0.00     0.271 C 
HETATM   16  C           1     -11.189   3.322 -21.284  0.00  0.00     0.033 C 
HETATM   17  C           1     -11.383   3.921 -19.896  0.00  0.00     0.047 C 
ENDBRANCH   3  12
TORSDOF 5
ENDMDL
MODEL 9
REMARK VINA RESULT:      -5.1     12.554     14.529
REMARK  5 active torsions:
REMARK  status: ('A' for Active; 'I' for Inactive)
REMARK    1  A    between atoms: C_1  and  C_12 
REMARK    2  A    between atoms: C_1  and  C_2 
REMARK    3  A    between atoms: C_1  and  N_6 
REMARK       I    between atoms: N_6  and  C_7 
REMARK    4  A    between atoms: C_7  and  C_8 
REMARK    5  A    between atoms: C_12  and  O_17 
ROOT
HETATM    1  H           1     -36.376  -0.515 -12.553  0.00  0.00     0.163 HD
HETATM    2  N           1     -35.874  -0.965 -13.308  0.00  0.00    -0.343 N 
HETATM    3  C           1     -35.214  -2.144 -13.084  0.00  0.00     0.251 C 
HETATM    4  O           1     -34.616  -2.681 -13.986  0.00  0.00    -0.271 OA
ENDROOT
BRANCH   2   5
HETATM    5  C           1     -35.853  -0.362 -14.626  0.00  0.00     0.209 C 
BRANCH   5   6
HETATM    6  C           1     -37.278  -0.230 -15.148  0.00  0.00     0.200 C 
BRANCH   6   7
HETATM    7  O           1     -37.268  -0.279 -16.550  0.00  0.00    -0.398 OA
HETATM    8  H           1     -37.280   0.612 -16.855  0.00  0.00     0.209 HD
ENDBRANCH   6   7
ENDBRANCH   5   6
BRANCH   5   9
HETATM    9  C           1     -35.222   1.007 -14.542  0.00  0.00     0.198 C 
HETATM   10  O           1     -34.468   1.289 -13.586  0.00  0.00    -0.646 OA
HETATM   11  O           1     -35.451   1.856 -15.429  0.00  0.00    -0.646 OA
ENDBRANCH   5   9
ENDBRANCH   2   5
BRANCH   3  12
HETATM   12  C           1     -35.236  -2.772 -11.712  0.00  0.00     0.311 C 
HETATM   13  N           1     -34.364  -3.943 -11.664  0.00  0.00     0.097 N 
HETATM   14  H           1     -34.579  -4.519 -10.849  0.00  0.00     0.317 HD
HETATM   15  C           1     -33.014  -3.404 -11.537  0.00  0.00     0.271 C 
HETATM   16  C           1     -33.175  -2.246 -10.566  0.00  0.00     0.033 C 
HETATM   17  C           1     -34.638  -1.834 -10.679  0.00  0.00     0.047 C 
ENDBRANCH   3  12
TORSDOF 5
ENDMDL
