MODEL 1
REMARK VINA RESULT:      -7.2      0.000      0.000
REMARK  12 active torsions:
REMARK  status: ('A' for Active; 'I' for Inactive)
REMARK    1  A    between atoms: C_2  and  C_4 
REMARK    2  A    between atoms: C_4  and  C_5 
REMARK    3  A    between atoms: C_4  and  N_11 
REMARK    4  A    between atoms: C_5  and  O_6 
REMARK    5  A    between atoms: O_6  and  P_7 
REMARK    6  A    between atoms: P_7  and  O_9 
REMARK       I    between atoms: N_11  and  C_12 
REMARK    7  A    between atoms: C_12  and  C_13 
REMARK    8  A    between atoms: C_13  and  C_14 
REMARK    9  A    between atoms: C_13  and  N_20 
REMARK   10  A    between atoms: C_14  and  O_15 
REMARK   11  A    between atoms: O_15  and  P_16 
REMARK   12  A    between atoms: P_16  and  O_17 
ROOT
HETATM    1  N           1     -31.249  -4.968 -16.373  0.00  0.00    -0.343 N 
HETATM    2  C           1     -32.141  -4.041 -16.841  0.00  0.00     0.251 C 
HETATM    3  O           1     -31.773  -3.176 -17.600  0.00  0.00    -0.271 OA
HETATM    4  H           1     -31.558  -5.693 -15.738  0.00  0.00     0.163 HD
ENDROOT
BRANCH   2   5
HETATM    5  C           1     -33.585  -4.098 -16.407  0.00  0.00     0.298 C 
BRANCH   5   6
HETATM    6  C           1     -34.282  -2.798 -16.786  0.00  0.00     0.224 C 
BRANCH   6   7
HETATM    7  O           1     -35.095  -2.376 -15.724  0.00  0.00    -0.287 OA
BRANCH   7   8
HETATM    8  P           1     -35.763  -0.915 -15.880  0.00  0.00     0.406 P 
HETATM    9  O           1     -34.763   0.123 -15.544  0.00  0.00    -0.624 OA
HETATM   10  O           1     -36.921  -0.802 -14.966  0.00  0.00    -0.624 OA
BRANCH   8  11
HETATM   11  O           1     -36.260  -0.709 -17.403  0.00  0.00    -0.300 OA
HETATM   12  H           1     -35.838   0.081 -17.693  0.00  0.00     0.223 HD
ENDBRANCH   8  11
ENDBRANCH   7   8
ENDBRANCH   6   7
ENDBRANCH   5   6
BRANCH   5  13
HETATM   13  N           1     -33.653  -4.288 -14.921  0.00  0.00    -0.064 N 
HETATM   14  H           1     -32.695  -4.187 -14.513  0.00  0.00     0.275 HD
HETATM   15  H           1     -34.285  -3.566 -14.507  0.00  0.00     0.275 HD
HETATM   16  H           1     -34.024  -5.241 -14.708  0.00  0.00     0.275 HD
ENDBRANCH   5  13
ENDBRANCH   2   5
BRANCH   1  17
HETATM   17  C           1     -29.861  -4.913 -16.790  0.00  0.00     0.210 C 
BRANCH  17  18
HETATM   18  C           1     -29.696  -5.670 -18.086  0.00  0.00     0.198 C 
HETATM   19  O           1     -30.293  -6.755 -18.256  0.00  0.00    -0.646 OA
HETATM   20  O           1     -28.961  -5.212 -18.988  0.00  0.00    -0.646 OA
ENDBRANCH  17  18
BRANCH  17  21
HETATM   21  C           1     -28.984  -5.543 -15.717  0.00  0.00     0.217 C 
BRANCH  21  22
HETATM   22  O           1     -27.660  -5.110 -15.881  0.00  0.00    -0.287 OA
BRANCH  22  23
HETATM   23  P           1     -26.565  -6.265 -16.154  0.00  0.00     0.406 P 
HETATM   24  O           1     -26.926  -7.478 -15.387  0.00  0.00    -0.624 OA
HETATM   25  O           1     -25.231  -5.791 -15.726  0.00  0.00    -0.624 OA
BRANCH  23  26
HETATM   26  O           1     -26.534  -6.614 -17.730  0.00  0.00    -0.300 OA
HETATM   27  H           1     -26.285  -7.522 -17.774  0.00  0.00     0.223 HD
ENDBRANCH  23  26
ENDBRANCH  22  23
ENDBRANCH  21  22
ENDBRANCH  17  21
ENDBRANCH   1  17
TORSDOF 12
ENDMDL
MODEL 2
REMARK VINA RESULT:      -6.7      4.952      6.686
REMARK  12 active torsions:
REMARK  status: ('A' for Active; 'I' for Inactive)
REMARK    1  A    between atoms: C_2  and  C_4 
REMARK    2  A    between atoms: C_4  and  C_5 
REMARK    3  A    between atoms: C_4  and  N_11 
REMARK    4  A    between atoms: C_5  and  O_6 
REMARK    5  A    between atoms: O_6  and  P_7 
REMARK    6  A    between atoms: P_7  and  O_9 
REMARK       I    between atoms: N_11  and  C_12 
REMARK    7  A    between atoms: C_12  and  C_13 
REMARK    8  A    between atoms: C_13  and  C_14 
REMARK    9  A    between atoms: C_13  and  N_20 
REMARK   10  A    between atoms: C_14  and  O_15 
REMARK   11  A    between atoms: O_15  and  P_16 
REMARK   12  A    between atoms: P_16  and  O_17 
ROOT
HETATM    1  N           1     -35.043  -2.252 -12.304  0.00  0.00    -0.343 N 
HETATM    2  C           1     -36.026  -1.490 -11.732  0.00  0.00     0.251 C 
HETATM    3  O           1     -36.759  -1.973 -10.901  0.00  0.00    -0.271 OA
HETATM    4  H           1     -34.429  -1.848 -12.999  0.00  0.00     0.163 HD
ENDROOT
BRANCH   2   5
HETATM    5  C           1     -36.196  -0.048 -12.140  0.00  0.00     0.298 C 
BRANCH   5   6
HETATM    6  C           1     -37.237   0.049 -13.247  0.00  0.00     0.224 C 
BRANCH   6   7
HETATM    7  O           1     -36.769  -0.616 -14.389  0.00  0.00    -0.287 OA
BRANCH   7   8
HETATM    8  P           1     -36.724   0.256 -15.748  0.00  0.00     0.406 P 
HETATM    9  O           1     -35.774   1.377 -15.583  0.00  0.00    -0.624 OA
HETATM   10  O           1     -38.075   0.788 -16.036  0.00  0.00    -0.624 OA
BRANCH   8  11
HETATM   11  O           1     -36.244  -0.681 -16.973  0.00  0.00    -0.300 OA
HETATM   12  H           1     -36.351  -0.150 -17.743  0.00  0.00     0.223 HD
ENDBRANCH   8  11
ENDBRANCH   7   8
ENDBRANCH   6   7
ENDBRANCH   5   6
BRANCH   5  13
HETATM   13  N           1     -34.886   0.488 -12.637  0.00  0.00    -0.064 N 
HETATM   14  H           1     -35.020   0.911 -13.584  0.00  0.00     0.275 HD
HETATM   15  H           1     -34.536   1.218 -11.977  0.00  0.00     0.275 HD
HETATM   16  H           1     -34.193  -0.291 -12.698  0.00  0.00     0.275 HD
ENDBRANCH   5  13
ENDBRANCH   2   5
BRANCH   1  17
HETATM   17  C           1     -34.881  -3.639 -11.911  0.00  0.00     0.210 C 
BRANCH  17  18
HETATM   18  C           1     -33.720  -3.757 -10.953  0.00  0.00     0.198 C 
HETATM   19  O           1     -32.829  -2.880 -10.940  0.00  0.00    -0.646 OA
HETATM   20  O           1     -33.651  -4.731 -10.172  0.00  0.00    -0.646 OA
ENDBRANCH  17  18
BRANCH  17  21
HETATM   21  C           1     -34.607  -4.487 -13.147  0.00  0.00     0.217 C 
BRANCH  21  22
HETATM   22  O           1     -33.836  -3.751 -14.058  0.00  0.00    -0.287 OA
BRANCH  22  23
HETATM   23  P           1     -34.096  -4.064 -15.621  0.00  0.00     0.406 P 
HETATM   24  O           1     -32.801  -4.287 -16.302  0.00  0.00    -0.624 OA
HETATM   25  O           1     -34.790  -2.916 -16.245  0.00  0.00    -0.624 OA
BRANCH  23  26
HETATM   26  O           1     -35.010  -5.389 -15.759  0.00  0.00    -0.300 OA
HETATM   27  H           1     -34.845  -5.709 -16.630  0.00  0.00     0.223 HD
ENDBRANCH  23  26
ENDBRANCH  22  23
ENDBRANCH  21  22
ENDBRANCH  17  21
ENDBRANCH   1  17
TORSDOF 12
ENDMDL
MODEL 3
REMARK VINA RESULT:      -6.2      5.556      7.007
REMARK  12 active torsions:
REMARK  status: ('A' for Active; 'I' for Inactive)
REMARK    1  A    between atoms: C_2  and  C_4 
REMARK    2  A    between atoms: C_4  and  C_5 
REMARK    3  A    between atoms: C_4  and  N_11 
REMARK    4  A    between atoms: C_5  and  O_6 
REMARK    5  A    between atoms: O_6  and  P_7 
REMARK    6  A    between atoms: P_7  and  O_9 
REMARK       I    between atoms: N_11  and  C_12 
REMARK    7  A    between atoms: C_12  and  C_13 
REMARK    8  A    between atoms: C_13  and  C_14 
REMARK    9  A    between atoms: C_13  and  N_20 
REMARK   10  A    between atoms: C_14  and  O_15 
REMARK   11  A    between atoms: O_15  and  P_16 
REMARK   12  A    between atoms: P_16  and  O_17 
ROOT
HETATM    1  N           1     -35.077  -2.331 -12.022  0.00  0.00    -0.343 N 
HETATM    2  C           1     -35.386  -1.256 -11.232  0.00  0.00     0.251 C 
HETATM    3  O           1     -35.028  -1.230 -10.078  0.00  0.00    -0.271 OA
HETATM    4  H           1     -35.377  -2.351 -12.988  0.00  0.00     0.163 HD
ENDROOT
BRANCH   2   5
HETATM    5  C           1     -36.175  -0.103 -11.802  0.00  0.00     0.298 C 
BRANCH   5   6
HETATM    6  C           1     -36.945  -0.571 -13.030  0.00  0.00     0.224 C 
BRANCH   6   7
HETATM    7  O           1     -36.682   0.293 -14.103  0.00  0.00    -0.287 OA
BRANCH   7   8
HETATM    8  P           1     -35.639  -0.250 -15.210  0.00  0.00     0.406 P 
HETATM    9  O           1     -34.395   0.549 -15.148  0.00  0.00    -0.624 OA
HETATM   10  O           1     -36.241  -0.125 -16.557  0.00  0.00    -0.624 OA
BRANCH   8  11
HETATM   11  O           1     -35.298  -1.800 -14.916  0.00  0.00    -0.300 OA
HETATM   12  H           1     -35.227  -2.200 -15.765  0.00  0.00     0.223 HD
ENDBRANCH   8  11
ENDBRANCH   7   8
ENDBRANCH   6   7
ENDBRANCH   5   6
BRANCH   5  13
HETATM   13  N           1     -35.236   1.001 -12.190  0.00  0.00    -0.064 N 
HETATM   14  H           1     -34.440   0.604 -12.740  0.00  0.00     0.275 HD
HETATM   15  H           1     -35.746   1.702 -12.774  0.00  0.00     0.275 HD
HETATM   16  H           1     -34.868   1.463 -11.329  0.00  0.00     0.275 HD
ENDBRANCH   5  13
ENDBRANCH   2   5
BRANCH   1  17
HETATM   17  C           1     -34.319  -3.438 -11.473  0.00  0.00     0.210 C 
BRANCH  17  18
HETATM   18  C           1     -33.351  -3.948 -12.513  0.00  0.00     0.198 C 
HETATM   19  O           1     -33.653  -3.899 -13.725  0.00  0.00    -0.646 OA
HETATM   20  O           1     -32.247  -4.418 -12.162  0.00  0.00    -0.646 OA
ENDBRANCH  17  18
BRANCH  17  21
HETATM   21  C           1     -35.273  -4.557 -11.075  0.00  0.00     0.217 C 
BRANCH  21  22
HETATM   22  O           1     -34.636  -5.414 -10.166  0.00  0.00    -0.287 OA
BRANCH  22  23
HETATM   23  P           1     -34.553  -6.968 -10.595  0.00  0.00     0.406 P 
HETATM   24  O           1     -35.335  -7.786  -9.641  0.00  0.00    -0.624 OA
HETATM   25  O           1     -33.141  -7.410 -10.580  0.00  0.00    -0.624 OA
BRANCH  23  26
HETATM   26  O           1     -35.160  -7.149 -12.081  0.00  0.00    -0.300 OA
HETATM   27  H           1     -36.044  -6.826 -12.024  0.00  0.00     0.223 HD
ENDBRANCH  23  26
ENDBRANCH  22  23
ENDBRANCH  21  22
ENDBRANCH  17  21
ENDBRANCH   1  17
TORSDOF 12
ENDMDL
MODEL 4
REMARK VINA RESULT:      -6.2     12.111     15.060
REMARK  12 active torsions:
REMARK  status: ('A' for Active; 'I' for Inactive)
REMARK    1  A    between atoms: C_2  and  C_4 
REMARK    2  A    between atoms: C_4  and  C_5 
REMARK    3  A    between atoms: C_4  and  N_11 
REMARK    4  A    between atoms: C_5  and  O_6 
REMARK    5  A    between atoms: O_6  and  P_7 
REMARK    6  A    between atoms: P_7  and  O_9 
REMARK       I    between atoms: N_11  and  C_12 
REMARK    7  A    between atoms: C_12  and  C_13 
REMARK    8  A    between atoms: C_13  and  C_14 
REMARK    9  A    between atoms: C_13  and  N_20 
REMARK   10  A    between atoms: C_14  and  O_15 
REMARK   11  A    between atoms: O_15  and  P_16 
REMARK   12  A    between atoms: P_16  and  O_17 
ROOT
HETATM    1  N           1     -21.543  -5.598  -5.738  0.00  0.00    -0.343 N 
HETATM    2  C           1     -20.787  -4.733  -6.483  0.00  0.00     0.251 C 
HETATM    3  O           1     -19.603  -4.622  -6.264  0.00  0.00    -0.271 OA
HETATM    4  H           1     -22.534  -5.691  -5.922  0.00  0.00     0.163 HD
ENDROOT
BRANCH   2   5
HETATM    5  C           1     -21.431  -3.918  -7.577  0.00  0.00     0.298 C 
BRANCH   5   6
HETATM    6  C           1     -22.701  -4.613  -8.049  0.00  0.00     0.224 C 
BRANCH   6   7
HETATM    7  O           1     -23.555  -3.673  -8.643  0.00  0.00    -0.287 OA
BRANCH   7   8
HETATM    8  P           1     -23.790  -3.833 -10.233  0.00  0.00     0.406 P 
HETATM    9  O           1     -22.661  -3.214 -10.962  0.00  0.00    -0.624 OA
HETATM   10  O           1     -25.053  -3.164 -10.614  0.00  0.00    -0.624 OA
BRANCH   8  11
HETATM   11  O           1     -23.878  -5.401 -10.609  0.00  0.00    -0.300 OA
HETATM   12  H           1     -23.165  -5.804 -10.145  0.00  0.00     0.223 HD
ENDBRANCH   8  11
ENDBRANCH   7   8
ENDBRANCH   6   7
ENDBRANCH   5   6
BRANCH   5  13
HETATM   13  N           1     -20.477  -3.783  -8.726  0.00  0.00    -0.064 N 
HETATM   14  H           1     -19.682  -3.163  -8.449  0.00  0.00     0.275 HD
HETATM   15  H           1     -20.108  -4.725  -8.985  0.00  0.00     0.275 HD
HETATM   16  H           1     -20.975  -3.365  -9.544  0.00  0.00     0.275 HD
ENDBRANCH   5  13
ENDBRANCH   2   5
BRANCH   1  17
HETATM   17  C           1     -20.924  -6.381  -4.686  0.00  0.00     0.210 C 
BRANCH  17  18
HETATM   18  C           1     -20.682  -7.785  -5.183  0.00  0.00     0.198 C 
HETATM   19  O           1     -21.508  -8.689  -4.931  0.00  0.00    -0.646 OA
HETATM   20  O           1     -19.655  -8.045  -5.848  0.00  0.00    -0.646 OA
ENDBRANCH  17  18
BRANCH  17  21
HETATM   21  C           1     -21.845  -6.422  -3.475  0.00  0.00     0.217 C 
BRANCH  21  22
HETATM   22  O           1     -21.091  -6.676  -2.320  0.00  0.00    -0.287 OA
BRANCH  22  23
HETATM   23  P           1     -21.724  -7.734  -1.278  0.00  0.00     0.406 P 
HETATM   24  O           1     -22.895  -7.127  -0.607  0.00  0.00    -0.624 OA
HETATM   25  O           1     -20.708  -8.096  -0.265  0.00  0.00    -0.624 OA
BRANCH  23  26
HETATM   26  O           1     -22.189  -9.060  -2.075  0.00  0.00    -0.300 OA
HETATM   27  H           1     -21.619  -9.107  -2.825  0.00  0.00     0.223 HD
ENDBRANCH  23  26
ENDBRANCH  22  23
ENDBRANCH  21  22
ENDBRANCH  17  21
ENDBRANCH   1  17
TORSDOF 12
ENDMDL
MODEL 5
REMARK VINA RESULT:      -6.1     11.734     15.540
REMARK  12 active torsions:
REMARK  status: ('A' for Active; 'I' for Inactive)
REMARK    1  A    between atoms: C_2  and  C_4 
REMARK    2  A    between atoms: C_4  and  C_5 
REMARK    3  A    between atoms: C_4  and  N_11 
REMARK    4  A    between atoms: C_5  and  O_6 
REMARK    5  A    between atoms: O_6  and  P_7 
REMARK    6  A    between atoms: P_7  and  O_9 
REMARK       I    between atoms: N_11  and  C_12 
REMARK    7  A    between atoms: C_12  and  C_13 
REMARK    8  A    between atoms: C_13  and  C_14 
REMARK    9  A    between atoms: C_13  and  N_20 
REMARK   10  A    between atoms: C_14  and  O_15 
REMARK   11  A    between atoms: O_15  and  P_16 
REMARK   12  A    between atoms: P_16  and  O_17 
ROOT
HETATM    1  N           1     -21.330  -5.017  -6.507  0.00  0.00    -0.343 N 
HETATM    2  C           1     -21.176  -6.271  -5.980  0.00  0.00     0.251 C 
HETATM    3  O           1     -21.213  -7.240  -6.701  0.00  0.00    -0.271 OA
HETATM    4  H           1     -21.298  -4.206  -5.902  0.00  0.00     0.163 HD
ENDROOT
BRANCH   2   5
HETATM    5  C           1     -20.962  -6.445  -4.496  0.00  0.00     0.298 C 
BRANCH   5   6
HETATM    6  C           1     -20.544  -7.880  -4.207  0.00  0.00     0.224 C 
BRANCH   6   7
HETATM    7  O           1     -21.569  -8.533  -3.507  0.00  0.00    -0.287 OA
BRANCH   7   8
HETATM    8  P           1     -21.233  -8.949  -1.983  0.00  0.00     0.406 P 
HETATM    9  O           1     -21.122  -7.729  -1.153  0.00  0.00    -0.624 OA
HETATM   10  O           1     -19.954  -9.693  -1.945  0.00  0.00    -0.624 OA
BRANCH   8  11
HETATM   11  O           1     -22.416  -9.886  -1.407  0.00  0.00    -0.300 OA
HETATM   12  H           1     -22.792  -9.396  -0.696  0.00  0.00     0.223 HD
ENDBRANCH   8  11
ENDBRANCH   7   8
ENDBRANCH   6   7
ENDBRANCH   5   6
BRANCH   5  13
HETATM   13  N           1     -22.237  -6.138  -3.769  0.00  0.00    -0.064 N 
HETATM   14  H           1     -22.085  -6.244  -2.739  0.00  0.00     0.275 HD
HETATM   15  H           1     -22.530  -5.157  -3.977  0.00  0.00     0.275 HD
HETATM   16  H           1     -22.983  -6.800  -4.080  0.00  0.00     0.275 HD
ENDBRANCH   5  13
ENDBRANCH   2   5
BRANCH   1  17
HETATM   17  C           1     -21.535  -4.851  -7.933  0.00  0.00     0.210 C 
BRANCH  17  18
HETATM   18  C           1     -20.210  -4.579  -8.603  0.00  0.00     0.198 C 
HETATM   19  O           1     -20.096  -4.714  -9.840  0.00  0.00    -0.646 OA
HETATM   20  O           1     -19.227  -4.220  -7.920  0.00  0.00    -0.646 OA
ENDBRANCH  17  18
BRANCH  17  21
HETATM   21  C           1     -22.478  -3.680  -8.176  0.00  0.00     0.217 C 
BRANCH  21  22
HETATM   22  O           1     -23.666  -4.147  -8.756  0.00  0.00    -0.287 OA
BRANCH  22  23
HETATM   23  P           1     -23.787  -3.979 -10.357  0.00  0.00     0.406 P 
HETATM   24  O           1     -25.033  -3.248 -10.684  0.00  0.00    -0.624 OA
HETATM   25  O           1     -23.820  -5.314 -10.992  0.00  0.00    -0.624 OA
BRANCH  23  26
HETATM   26  O           1     -22.517  -3.148 -10.908  0.00  0.00    -0.300 OA
HETATM   27  H           1     -22.765  -2.243 -10.830  0.00  0.00     0.223 HD
ENDBRANCH  23  26
ENDBRANCH  22  23
ENDBRANCH  21  22
ENDBRANCH  17  21
ENDBRANCH   1  17
TORSDOF 12
ENDMDL
MODEL 6
REMARK VINA RESULT:      -5.6     12.116     15.156
REMARK  12 active torsions:
REMARK  status: ('A' for Active; 'I' for Inactive)
REMARK    1  A    between atoms: C_2  and  C_4 
REMARK    2  A    between atoms: C_4  and  C_5 
REMARK    3  A    between atoms: C_4  and  N_11 
REMARK    4  A    between atoms: C_5  and  O_6 
REMARK    5  A    between atoms: O_6  and  P_7 
REMARK    6  A    between atoms: P_7  and  O_9 
REMARK       I    between atoms: N_11  and  C_12 
REMARK    7  A    between atoms: C_12  and  C_13 
REMARK    8  A    between atoms: C_13  and  C_14 
REMARK    9  A    between atoms: C_13  and  N_20 
REMARK   10  A    between atoms: C_14  and  O_15 
REMARK   11  A    between atoms: O_15  and  P_16 
REMARK   12  A    between atoms: P_16  and  O_17 
ROOT
HETATM    1  N           1     -20.999  -6.428  -5.038  0.00  0.00    -0.343 N 
HETATM    2  C           1     -21.798  -5.640  -5.822  0.00  0.00     0.251 C 
HETATM    3  O           1     -23.000  -5.734  -5.748  0.00  0.00    -0.271 OA
HETATM    4  H           1     -19.992  -6.348  -5.101  0.00  0.00     0.163 HD
ENDROOT
BRANCH   2   5
HETATM    5  C           1     -21.177  -4.652  -6.779  0.00  0.00     0.298 C 
BRANCH   5   6
HETATM    6  C           1     -21.837  -4.786  -8.146  0.00  0.00     0.224 C 
BRANCH   6   7
HETATM    7  O           1     -22.607  -3.644  -8.407  0.00  0.00    -0.287 OA
BRANCH   7   8
HETATM    8  P           1     -23.551  -3.709  -9.715  0.00  0.00     0.406 P 
HETATM    9  O           1     -23.923  -5.116  -9.984  0.00  0.00    -0.624 OA
HETATM   10  O           1     -22.821  -3.159 -10.879  0.00  0.00    -0.624 OA
BRANCH   8  11
HETATM   11  O           1     -24.888  -2.840  -9.460  0.00  0.00    -0.300 OA
HETATM   12  H           1     -25.342  -3.287  -8.767  0.00  0.00     0.223 HD
ENDBRANCH   8  11
ENDBRANCH   7   8
ENDBRANCH   6   7
ENDBRANCH   5   6
BRANCH   5  13
HETATM   13  N           1     -19.709  -4.932  -6.902  0.00  0.00    -0.064 N 
HETATM   14  H           1     -19.283  -4.981  -5.949  0.00  0.00     0.275 HD
HETATM   15  H           1     -19.568  -5.843  -7.393  0.00  0.00     0.275 HD
HETATM   16  H           1     -19.254  -4.166  -7.448  0.00  0.00     0.275 HD
ENDBRANCH   5  13
ENDBRANCH   2   5
BRANCH   1  17
HETATM   17  C           1     -21.596  -7.377  -4.118  0.00  0.00     0.210 C 
BRANCH  17  18
HETATM   18  C           1     -21.571  -6.805  -2.722  0.00  0.00     0.198 C 
HETATM   19  O           1     -20.776  -7.262  -1.873  0.00  0.00    -0.646 OA
HETATM   20  O           1     -22.347  -5.874  -2.414  0.00  0.00    -0.646 OA
ENDBRANCH  17  18
BRANCH  17  21
HETATM   21  C           1     -20.806  -8.678  -4.148  0.00  0.00     0.217 C 
BRANCH  21  22
HETATM   22  O           1     -19.546  -8.449  -4.722  0.00  0.00    -0.287 OA
BRANCH  22  23
HETATM   23  P           1     -18.841  -9.724  -5.416  0.00  0.00     0.406 P 
HETATM   24  O           1     -17.892  -9.260  -6.453  0.00  0.00    -0.624 OA
HETATM   25  O           1     -19.874 -10.579  -6.042  0.00  0.00    -0.624 OA
BRANCH  23  26
HETATM   26  O           1     -18.042 -10.572  -4.298  0.00  0.00    -0.300 OA
HETATM   27  H           1     -18.511 -10.419  -3.495  0.00  0.00     0.223 HD
ENDBRANCH  23  26
ENDBRANCH  22  23
ENDBRANCH  21  22
ENDBRANCH  17  21
ENDBRANCH   1  17
TORSDOF 12
ENDMDL
MODEL 7
REMARK VINA RESULT:      -5.6     13.831     16.757
REMARK  12 active torsions:
REMARK  status: ('A' for Active; 'I' for Inactive)
REMARK    1  A    between atoms: C_2  and  C_4 
REMARK    2  A    between atoms: C_4  and  C_5 
REMARK    3  A    between atoms: C_4  and  N_11 
REMARK    4  A    between atoms: C_5  and  O_6 
REMARK    5  A    between atoms: O_6  and  P_7 
REMARK    6  A    between atoms: P_7  and  O_9 
REMARK       I    between atoms: N_11  and  C_12 
REMARK    7  A    between atoms: C_12  and  C_13 
REMARK    8  A    between atoms: C_13  and  C_14 
REMARK    9  A    between atoms: C_13  and  N_20 
REMARK   10  A    between atoms: C_14  and  O_15 
REMARK   11  A    between atoms: O_15  and  P_16 
REMARK   12  A    between atoms: P_16  and  O_17 
ROOT
HETATM    1  N           1     -21.665  -8.730  -3.626  0.00  0.00    -0.343 N 
HETATM    2  C           1     -21.415  -8.212  -4.869  0.00  0.00     0.251 C 
HETATM    3  O           1     -20.820  -8.868  -5.690  0.00  0.00    -0.271 OA
HETATM    4  H           1     -22.164  -8.180  -2.939  0.00  0.00     0.163 HD
ENDROOT
BRANCH   2   5
HETATM    5  C           1     -21.883  -6.819  -5.212  0.00  0.00     0.298 C 
BRANCH   5   6
HETATM    6  C           1     -20.858  -6.147  -6.118  0.00  0.00     0.224 C 
BRANCH   6   7
HETATM    7  O           1     -21.423  -5.930  -7.382  0.00  0.00    -0.287 OA
BRANCH   7   8
HETATM    8  P           1     -21.980  -4.441  -7.664  0.00  0.00     0.406 P 
HETATM    9  O           1     -21.856  -4.133  -9.106  0.00  0.00    -0.624 OA
HETATM   10  O           1     -21.192  -3.464  -6.879  0.00  0.00    -0.624 OA
BRANCH   8  11
HETATM   11  O           1     -23.532  -4.353  -7.227  0.00  0.00    -0.300 OA
HETATM   12  H           1     -23.958  -5.047  -7.698  0.00  0.00     0.223 HD
ENDBRANCH   8  11
ENDBRANCH   7   8
ENDBRANCH   6   7
ENDBRANCH   5   6
BRANCH   5  13
HETATM   13  N           1     -22.038  -6.019  -3.953  0.00  0.00    -0.064 N 
HETATM   14  H           1     -23.047  -5.989  -3.682  0.00  0.00     0.275 HD
HETATM   15  H           1     -21.485  -6.465  -3.187  0.00  0.00     0.275 HD
HETATM   16  H           1     -21.691  -5.047  -4.113  0.00  0.00     0.275 HD
ENDBRANCH   5  13
ENDBRANCH   2   5
BRANCH   1  17
HETATM   17  C           1     -21.215 -10.069  -3.297  0.00  0.00     0.210 C 
BRANCH  17  18
HETATM   18  C           1     -22.343 -11.047  -3.523  0.00  0.00     0.198 C 
HETATM   19  O           1     -23.213 -11.213  -2.641  0.00  0.00    -0.646 OA
HETATM   20  O           1     -22.406 -11.690  -4.593  0.00  0.00    -0.646 OA
ENDBRANCH  17  18
BRANCH  17  21
HETATM   21  C           1     -20.789 -10.115  -1.835  0.00  0.00     0.217 C 
BRANCH  21  22
HETATM   22  O           1     -20.692  -8.809  -1.334  0.00  0.00    -0.287 OA
BRANCH  22  23
HETATM   23  P           1     -21.915  -8.315  -0.402  0.00  0.00     0.406 P 
HETATM   24  O           1     -22.494  -7.074  -0.963  0.00  0.00    -0.624 OA
HETATM   25  O           1     -21.417  -8.052   0.966  0.00  0.00    -0.624 OA
BRANCH  23  26
HETATM   26  O           1     -23.050  -9.463  -0.352  0.00  0.00    -0.300 OA
HETATM   27  H           1     -22.950  -9.869   0.493  0.00  0.00     0.223 HD
ENDBRANCH  23  26
ENDBRANCH  22  23
ENDBRANCH  21  22
ENDBRANCH  17  21
ENDBRANCH   1  17
TORSDOF 12
ENDMDL
MODEL 8
REMARK VINA RESULT:      -5.4     11.966     15.574
REMARK  12 active torsions:
REMARK  status: ('A' for Active; 'I' for Inactive)
REMARK    1  A    between atoms: C_2  and  C_4 
REMARK    2  A    between atoms: C_4  and  C_5 
REMARK    3  A    between atoms: C_4  and  N_11 
REMARK    4  A    between atoms: C_5  and  O_6 
REMARK    5  A    between atoms: O_6  and  P_7 
REMARK    6  A    between atoms: P_7  and  O_9 
REMARK       I    between atoms: N_11  and  C_12 
REMARK    7  A    between atoms: C_12  and  C_13 
REMARK    8  A    between atoms: C_13  and  C_14 
REMARK    9  A    between atoms: C_13  and  N_20 
REMARK   10  A    between atoms: C_14  and  O_15 
REMARK   11  A    between atoms: O_15  and  P_16 
REMARK   12  A    between atoms: P_16  and  O_17 
ROOT
HETATM    1  N           1     -21.424  -6.523  -6.378  0.00  0.00    -0.343 N 
HETATM    2  C           1     -20.606  -7.526  -5.931  0.00  0.00     0.251 C 
HETATM    3  O           1     -19.455  -7.576  -6.296  0.00  0.00    -0.271 OA
HETATM    4  H           1     -22.388  -6.481  -6.072  0.00  0.00     0.163 HD
ENDROOT
BRANCH   2   5
HETATM    5  C           1     -21.143  -8.571  -4.984  0.00  0.00     0.298 C 
BRANCH   5   6
HETATM    6  C           1     -20.515  -8.382  -3.609  0.00  0.00     0.224 C 
BRANCH   6   7
HETATM    7  O           1     -21.515  -8.071  -2.677  0.00  0.00    -0.287 OA
BRANCH   7   8
HETATM    8  P           1     -21.951  -6.518  -2.597  0.00  0.00     0.406 P 
HETATM    9  O           1     -22.501  -6.229  -1.254  0.00  0.00    -0.624 OA
HETATM   10  O           1     -22.981  -6.242  -3.624  0.00  0.00    -0.624 OA
BRANCH   8  11
HETATM   11  O           1     -20.663  -5.581  -2.864  0.00  0.00    -0.300 OA
HETATM   12  H           1     -21.016  -4.737  -3.086  0.00  0.00     0.223 HD
ENDBRANCH   8  11
ENDBRANCH   7   8
ENDBRANCH   6   7
ENDBRANCH   5   6
BRANCH   5  13
HETATM   13  N           1     -20.806  -9.937  -5.504  0.00  0.00    -0.064 N 
HETATM   14  H           1     -20.022 -10.341  -4.942  0.00  0.00     0.275 HD
HETATM   15  H           1     -21.644 -10.556  -5.426  0.00  0.00     0.275 HD
HETATM   16  H           1     -20.516  -9.866  -6.505  0.00  0.00     0.275 HD
ENDBRANCH   5  13
ENDBRANCH   2   5
BRANCH   1  17
HETATM   17  C           1     -20.908  -5.520  -7.288  0.00  0.00     0.210 C 
BRANCH  17  18
HETATM   18  C           1     -19.840  -4.712  -6.592  0.00  0.00     0.198 C 
HETATM   19  O           1     -19.991  -4.373  -5.398  0.00  0.00    -0.646 OA
HETATM   20  O           1     -18.804  -4.381  -7.208  0.00  0.00    -0.646 OA
ENDBRANCH  17  18
BRANCH  17  21
HETATM   21  C           1     -22.040  -4.598  -7.722  0.00  0.00     0.217 C 
BRANCH  21  22
HETATM   22  O           1     -21.998  -4.428  -9.114  0.00  0.00    -0.287 OA
BRANCH  22  23
HETATM   23  P           1     -23.407  -4.093  -9.829  0.00  0.00     0.406 P 
HETATM   24  O           1     -23.949  -5.321 -10.451  0.00  0.00    -0.624 OA
HETATM   25  O           1     -23.198  -3.064 -10.871  0.00  0.00    -0.624 OA
BRANCH  23  26
HETATM   26  O           1     -24.451  -3.542  -8.727  0.00  0.00    -0.300 OA
HETATM   27  H           1     -25.204  -3.264  -9.222  0.00  0.00     0.223 HD
ENDBRANCH  23  26
ENDBRANCH  22  23
ENDBRANCH  21  22
ENDBRANCH  17  21
ENDBRANCH   1  17
TORSDOF 12
ENDMDL
MODEL 9
REMARK VINA RESULT:      -5.3      2.187      2.729
REMARK  12 active torsions:
REMARK  status: ('A' for Active; 'I' for Inactive)
REMARK    1  A    between atoms: C_2  and  C_4 
REMARK    2  A    between atoms: C_4  and  C_5 
REMARK    3  A    between atoms: C_4  and  N_11 
REMARK    4  A    between atoms: C_5  and  O_6 
REMARK    5  A    between atoms: O_6  and  P_7 
REMARK    6  A    between atoms: P_7  and  O_9 
REMARK       I    between atoms: N_11  and  C_12 
REMARK    7  A    between atoms: C_12  and  C_13 
REMARK    8  A    between atoms: C_13  and  C_14 
REMARK    9  A    between atoms: C_13  and  N_20 
REMARK   10  A    between atoms: C_14  and  O_15 
REMARK   11  A    between atoms: O_15  and  P_16 
REMARK   12  A    between atoms: P_16  and  O_17 
ROOT
HETATM    1  N           1     -31.226  -4.923 -16.879  0.00  0.00    -0.343 N 
HETATM    2  C           1     -32.014  -3.837 -17.153  0.00  0.00     0.251 C 
HETATM    3  O           1     -31.785  -3.153 -18.123  0.00  0.00    -0.271 OA
HETATM    4  H           1     -31.418  -5.495 -16.067  0.00  0.00     0.163 HD
ENDROOT
BRANCH   2   5
HETATM    5  C           1     -33.167  -3.493 -16.243  0.00  0.00     0.298 C 
BRANCH   5   6
HETATM    6  C           1     -33.697  -4.763 -15.592  0.00  0.00     0.224 C 
BRANCH   6   7
HETATM    7  O           1     -34.676  -4.429 -14.644  0.00  0.00    -0.287 OA
BRANCH   7   8
HETATM    8  P           1     -34.136  -4.062 -13.167  0.00  0.00     0.406 P 
HETATM    9  O           1     -34.952  -4.768 -12.155  0.00  0.00    -0.624 OA
HETATM   10  O           1     -34.239  -2.601 -12.954  0.00  0.00    -0.624 OA
BRANCH   8  11
HETATM   11  O           1     -32.593  -4.517 -13.028  0.00  0.00    -0.300 OA
HETATM   12  H           1     -32.138  -3.751 -12.725  0.00  0.00     0.223 HD
ENDBRANCH   8  11
ENDBRANCH   7   8
ENDBRANCH   6   7
ENDBRANCH   5   6
BRANCH   5  13
HETATM   13  N           1     -34.259  -2.847 -17.043  0.00  0.00    -0.064 N 
HETATM   14  H           1     -34.643  -3.537 -17.729  0.00  0.00     0.275 HD
HETATM   15  H           1     -35.022  -2.534 -16.401  0.00  0.00     0.275 HD
HETATM   16  H           1     -33.873  -2.023 -17.556  0.00  0.00     0.275 HD
ENDBRANCH   5  13
ENDBRANCH   2   5
BRANCH   1  17
HETATM   17  C           1     -30.118  -5.252 -17.754  0.00  0.00     0.210 C 
BRANCH  17  18
HETATM   18  C           1     -30.072  -6.746 -17.965  0.00  0.00     0.198 C 
HETATM   19  O           1     -29.257  -7.239 -18.775  0.00  0.00    -0.646 OA
HETATM   20  O           1     -30.851  -7.491 -17.331  0.00  0.00    -0.646 OA
ENDBRANCH  17  18
BRANCH  17  21
HETATM   21  C           1     -28.814  -4.789 -17.117  0.00  0.00     0.217 C 
BRANCH  21  22
HETATM   22  O           1     -28.459  -5.669 -16.084  0.00  0.00    -0.287 OA
BRANCH  22  23
HETATM   23  P           1     -26.990  -6.331 -16.191  0.00  0.00     0.406 P 
HETATM   24  O           1     -26.930  -7.539 -15.337  0.00  0.00    -0.624 OA
HETATM   25  O           1     -25.976  -5.355 -15.736  0.00  0.00    -0.624 OA
BRANCH  23  26
HETATM   26  O           1     -26.696  -6.742 -17.724  0.00  0.00    -0.300 OA
HETATM   27  H           1     -26.141  -6.057 -18.058  0.00  0.00     0.223 HD
ENDBRANCH  23  26
ENDBRANCH  22  23
ENDBRANCH  21  22
ENDBRANCH  17  21
ENDBRANCH   1  17
TORSDOF 12
ENDMDL
