MODEL 1
REMARK VINA RESULT:      -5.7      0.000      0.000
REMARK  9 active torsions:
REMARK  status: ('A' for Active; 'I' for Inactive)
REMARK    1  A    between atoms: N_1  and  C_8 
REMARK       I    between atoms: N_1  and  C_3 
REMARK    2  A    between atoms: C_2  and  C_13 
REMARK    3  A    between atoms: C_2  and  C_8 
REMARK    4  A    between atoms: C_3  and  C_7 
REMARK    5  A    between atoms: O_4  and  C_11 
REMARK    6  A    between atoms: C_7  and  C_11 
REMARK    7  A    between atoms: C_7  and  N_18 
REMARK    8  A    between atoms: C_8  and  C_20 
REMARK    9  A    between atoms: C_13  and  Se_14 
ROOT
HETATM    1  N           1     -26.522  -6.542 -18.292  0.00  0.00    -0.345 N 
HETATM    2  C           1     -25.381  -6.747 -19.020  0.00  0.00     0.251 C 
HETATM    3  H           1     -27.423  -6.788 -18.683  0.00  0.00     0.163 HD
HETATM    4  O           1     -24.306  -6.455 -18.554  0.00  0.00    -0.271 OA
ENDROOT
BRANCH   1   5
HETATM    5  C           1     -26.441  -5.972 -16.961  0.00  0.00     0.185 C 
BRANCH   5   6
HETATM    6  C           1     -27.645  -5.073 -16.720  0.00  0.00     0.036 C 
BRANCH   6   7
HETATM    7  C           1     -28.599  -5.173 -17.903  0.00  0.00     0.003 C 
BRANCH   7   8
HETATM    8 Se           1     -30.281  -5.965 -17.318  0.00  0.00     0.000 Se
HETATM    9  C           1     -30.028  -7.629 -18.301  0.00  0.00     0.000 C 
ENDBRANCH   7   8
ENDBRANCH   6   7
ENDBRANCH   5   6
BRANCH   5  10
HETATM   10  C           1     -26.429  -7.083 -15.939  0.00  0.00     0.196 C 
HETATM   11  O           1     -25.349  -7.626 -15.618  0.00  0.00    -0.646 OA
HETATM   12  O           1     -27.498  -7.461 -15.415  0.00  0.00    -0.646 OA
ENDBRANCH   5  10
ENDBRANCH   1   5
BRANCH   2  13
HETATM   13  C           1     -25.466  -7.340 -20.405  0.00  0.00     0.297 C 
BRANCH  13  14
HETATM   14  C           1     -26.893  -7.795 -20.677  0.00  0.00     0.206 C 
BRANCH  14  15
HETATM   15  O           1     -26.882  -8.841 -21.612  0.00  0.00    -0.398 OA
HETATM   16  H           1     -26.012  -8.880 -21.969  0.00  0.00     0.209 HD
ENDBRANCH  14  15
ENDBRANCH  13  14
BRANCH  13  17
HETATM   17  N           1     -24.540  -8.517 -20.501  0.00  0.00    -0.064 N 
HETATM   18  H           1     -24.087  -8.680 -19.573  0.00  0.00     0.275 HD
HETATM   19  H           1     -25.083  -9.366 -20.776  0.00  0.00     0.275 HD
HETATM   20  H           1     -23.805  -8.324 -21.218  0.00  0.00     0.275 HD
ENDBRANCH  13  17
ENDBRANCH   2  13
TORSDOF 9
ENDMDL
MODEL 2
REMARK VINA RESULT:      -5.5     11.914     13.292
REMARK  9 active torsions:
REMARK  status: ('A' for Active; 'I' for Inactive)
REMARK    1  A    between atoms: N_1  and  C_8 
REMARK       I    between atoms: N_1  and  C_3 
REMARK    2  A    between atoms: C_2  and  C_13 
REMARK    3  A    between atoms: C_2  and  C_8 
REMARK    4  A    between atoms: C_3  and  C_7 
REMARK    5  A    between atoms: O_4  and  C_11 
REMARK    6  A    between atoms: C_7  and  C_11 
REMARK    7  A    between atoms: C_7  and  N_18 
REMARK    8  A    between atoms: C_8  and  C_20 
REMARK    9  A    between atoms: C_13  and  Se_14 
ROOT
HETATM    1  N           1     -36.769  -0.326 -13.005  0.00  0.00    -0.345 N 
HETATM    2  C           1     -36.086   0.338 -13.988  0.00  0.00     0.251 C 
HETATM    3  H           1     -37.619  -0.827 -13.229  0.00  0.00     0.163 HD
HETATM    4  O           1     -35.071   0.936 -13.719  0.00  0.00    -0.271 OA
ENDROOT
BRANCH   1   5
HETATM    5  C           1     -36.275  -0.311 -11.641  0.00  0.00     0.185 C 
BRANCH   5   6
HETATM    6  C           1     -37.451  -0.365 -10.675  0.00  0.00     0.036 C 
BRANCH   6   7
HETATM    7  C           1     -36.955  -0.120  -9.256  0.00  0.00     0.003 C 
BRANCH   7   8
HETATM    8 Se           1     -37.787   1.492  -8.545  0.00  0.00     0.000 Se
HETATM    9  C           1     -37.227   1.166  -6.706  0.00  0.00     0.000 C 
ENDBRANCH   7   8
ENDBRANCH   6   7
ENDBRANCH   5   6
BRANCH   5  10
HETATM   10  C           1     -35.384  -1.509 -11.417  0.00  0.00     0.196 C 
HETATM   11  O           1     -34.167  -1.347 -11.181  0.00  0.00    -0.646 OA
HETATM   12  O           1     -35.863  -2.661 -11.469  0.00  0.00    -0.646 OA
ENDBRANCH   5  10
ENDBRANCH   1   5
BRANCH   2  13
HETATM   13  C           1     -36.599   0.323 -15.407  0.00  0.00     0.297 C 
BRANCH  13  14
HETATM   14  C           1     -35.852  -0.735 -16.207  0.00  0.00     0.206 C 
BRANCH  14  15
HETATM   15  O           1     -35.211  -1.620 -15.329  0.00  0.00    -0.398 OA
HETATM   16  H           1     -34.335  -1.297 -15.203  0.00  0.00     0.209 HD
ENDBRANCH  14  15
ENDBRANCH  13  14
BRANCH  13  17
HETATM   17  N           1     -36.378   1.670 -16.031  0.00  0.00    -0.064 N 
HETATM   18  H           1     -36.775   2.411 -15.409  0.00  0.00     0.275 HD
HETATM   19  H           1     -35.354   1.832 -16.154  0.00  0.00     0.275 HD
HETATM   20  H           1     -36.853   1.704 -16.961  0.00  0.00     0.275 HD
ENDBRANCH  13  17
ENDBRANCH   2  13
TORSDOF 9
ENDMDL
MODEL 3
REMARK VINA RESULT:      -5.4     11.555     13.058
REMARK  9 active torsions:
REMARK  status: ('A' for Active; 'I' for Inactive)
REMARK    1  A    between atoms: N_1  and  C_8 
REMARK       I    between atoms: N_1  and  C_3 
REMARK    2  A    between atoms: C_2  and  C_13 
REMARK    3  A    between atoms: C_2  and  C_8 
REMARK    4  A    between atoms: C_3  and  C_7 
REMARK    5  A    between atoms: O_4  and  C_11 
REMARK    6  A    between atoms: C_7  and  C_11 
REMARK    7  A    between atoms: C_7  and  N_18 
REMARK    8  A    between atoms: C_8  and  C_20 
REMARK    9  A    between atoms: C_13  and  Se_14 
ROOT
HETATM    1  N           1     -35.888  -0.129 -12.230  0.00  0.00    -0.345 N 
HETATM    2  C           1     -36.525  -0.123 -13.443  0.00  0.00     0.251 C 
HETATM    3  H           1     -35.031   0.393 -12.107  0.00  0.00     0.163 HD
HETATM    4  O           1     -37.549  -0.746 -13.590  0.00  0.00    -0.271 OA
ENDROOT
BRANCH   1   5
HETATM    5  C           1     -36.443  -0.885 -11.124  0.00  0.00     0.185 C 
BRANCH   5   6
HETATM    6  C           1     -35.378  -1.817 -10.562  0.00  0.00     0.036 C 
BRANCH   6   7
HETATM    7  C           1     -35.098  -2.931 -11.562  0.00  0.00     0.003 C 
BRANCH   7   8
HETATM    8 Se           1     -33.221  -3.446 -11.454  0.00  0.00     0.000 Se
HETATM    9  C           1     -33.588  -5.338 -11.161  0.00  0.00     0.000 C 
ENDBRANCH   7   8
ENDBRANCH   6   7
ENDBRANCH   5   6
BRANCH   5  10
HETATM   10  C           1     -36.900   0.066 -10.045  0.00  0.00     0.196 C 
HETATM   11  O           1     -37.865   0.833 -10.256  0.00  0.00    -0.646 OA
HETATM   12  O           1     -36.315   0.086  -8.942  0.00  0.00    -0.646 OA
ENDBRANCH   5  10
ENDBRANCH   1   5
BRANCH   2  13
HETATM   13  C           1     -35.948   0.664 -14.594  0.00  0.00     0.297 C 
BRANCH  13  14
HETATM   14  C           1     -36.738   0.365 -15.861  0.00  0.00     0.206 C 
BRANCH  14  15
HETATM   15  O           1     -37.856   1.208 -15.926  0.00  0.00    -0.398 OA
HETATM   16  H           1     -38.509   0.844 -15.354  0.00  0.00     0.209 HD
ENDBRANCH  14  15
ENDBRANCH  13  14
BRANCH  13  17
HETATM   17  N           1     -34.514   0.273 -14.796  0.00  0.00    -0.064 N 
HETATM   18  H           1     -33.988   0.405 -13.902  0.00  0.00     0.275 HD
HETATM   19  H           1     -34.464  -0.731 -15.083  0.00  0.00     0.275 HD
HETATM   20  H           1     -34.091   0.871 -15.540  0.00  0.00     0.275 HD
ENDBRANCH  13  17
ENDBRANCH   2  13
TORSDOF 9
ENDMDL
MODEL 4
REMARK VINA RESULT:      -5.1     10.648     12.559
REMARK  9 active torsions:
REMARK  status: ('A' for Active; 'I' for Inactive)
REMARK    1  A    between atoms: N_1  and  C_8 
REMARK       I    between atoms: N_1  and  C_3 
REMARK    2  A    between atoms: C_2  and  C_13 
REMARK    3  A    between atoms: C_2  and  C_8 
REMARK    4  A    between atoms: C_3  and  C_7 
REMARK    5  A    between atoms: O_4  and  C_11 
REMARK    6  A    between atoms: C_7  and  C_11 
REMARK    7  A    between atoms: C_7  and  N_18 
REMARK    8  A    between atoms: C_8  and  C_20 
REMARK    9  A    between atoms: C_13  and  Se_14 
ROOT
HETATM    1  N           1     -34.827  -2.001 -11.901  0.00  0.00    -0.345 N 
HETATM    2  C           1     -35.028  -3.119 -11.137  0.00  0.00     0.251 C 
HETATM    3  H           1     -33.888  -1.727 -12.160  0.00  0.00     0.163 HD
HETATM    4  O           1     -36.149  -3.447 -10.829  0.00  0.00    -0.271 OA
ENDROOT
BRANCH   1   5
HETATM    5  C           1     -35.960  -1.210 -12.342  0.00  0.00     0.185 C 
BRANCH   5   6
HETATM    6  C           1     -36.148  -0.027 -11.402  0.00  0.00     0.036 C 
BRANCH   6   7
HETATM    7  C           1     -37.576  -0.020 -10.873  0.00  0.00     0.003 C 
BRANCH   7   8
HETATM    8 Se           1     -37.692   1.162  -9.328  0.00  0.00     0.000 Se
HETATM    9  C           1     -37.509  -0.267  -8.015  0.00  0.00     0.000 C 
ENDBRANCH   7   8
ENDBRANCH   6   7
ENDBRANCH   5   6
BRANCH   5  10
HETATM   10  C           1     -35.707  -0.706 -13.742  0.00  0.00     0.196 C 
HETATM   11  O           1     -36.005   0.469 -14.047  0.00  0.00    -0.646 OA
HETATM   12  O           1     -35.201  -1.465 -14.596  0.00  0.00    -0.646 OA
ENDBRANCH   5  10
ENDBRANCH   1   5
BRANCH   2  13
HETATM   13  C           1     -33.849  -3.942 -10.678  0.00  0.00     0.297 C 
BRANCH  13  14
HETATM   14  C           1     -32.737  -3.859 -11.716  0.00  0.00     0.206 C 
BRANCH  14  15
HETATM   15  O           1     -33.210  -4.333 -12.948  0.00  0.00    -0.398 OA
HETATM   16  H           1     -33.210  -3.601 -13.541  0.00  0.00     0.209 HD
ENDBRANCH  14  15
ENDBRANCH  13  14
BRANCH  13  17
HETATM   17  N           1     -34.273  -5.371 -10.514  0.00  0.00    -0.064 N 
HETATM   18  H           1     -35.146  -5.541 -11.063  0.00  0.00     0.275 HD
HETATM   19  H           1     -33.516  -6.001 -10.863  0.00  0.00     0.275 HD
HETATM   20  H           1     -34.454  -5.567  -9.504  0.00  0.00     0.275 HD
ENDBRANCH  13  17
ENDBRANCH   2  13
TORSDOF 9
ENDMDL
MODEL 5
REMARK VINA RESULT:      -5.1     10.135     11.976
REMARK  9 active torsions:
REMARK  status: ('A' for Active; 'I' for Inactive)
REMARK    1  A    between atoms: N_1  and  C_8 
REMARK       I    between atoms: N_1  and  C_3 
REMARK    2  A    between atoms: C_2  and  C_13 
REMARK    3  A    between atoms: C_2  and  C_8 
REMARK    4  A    between atoms: C_3  and  C_7 
REMARK    5  A    between atoms: O_4  and  C_11 
REMARK    6  A    between atoms: C_7  and  C_11 
REMARK    7  A    between atoms: C_7  and  N_18 
REMARK    8  A    between atoms: C_8  and  C_20 
REMARK    9  A    between atoms: C_13  and  Se_14 
ROOT
HETATM    1  N           1     -35.212  -1.852 -12.248  0.00  0.00    -0.345 N 
HETATM    2  C           1     -34.116  -2.279 -11.547  0.00  0.00     0.251 C 
HETATM    3  H           1     -35.674  -2.477 -12.895  0.00  0.00     0.163 HD
HETATM    4  O           1     -33.566  -1.532 -10.773  0.00  0.00    -0.271 OA
ENDROOT
BRANCH   1   5
HETATM    5  C           1     -35.712  -0.503 -12.062  0.00  0.00     0.185 C 
BRANCH   5   6
HETATM    6  C           1     -36.385  -0.030 -13.343  0.00  0.00     0.036 C 
BRANCH   6   7
HETATM    7  C           1     -35.327   0.228 -14.408  0.00  0.00     0.003 C 
BRANCH   7   8
HETATM    8 Se           1     -35.845  -0.654 -16.067  0.00  0.00     0.000 Se
HETATM    9  C           1     -37.745  -0.267 -15.871  0.00  0.00     0.000 C 
ENDBRANCH   7   8
ENDBRANCH   6   7
ENDBRANCH   5   6
BRANCH   5  10
HETATM   10  C           1     -36.712  -0.488 -10.932  0.00  0.00     0.196 C 
HETATM   11  O           1     -37.830  -1.030 -11.079  0.00  0.00    -0.646 OA
HETATM   12  O           1     -36.423   0.065  -9.850  0.00  0.00    -0.646 OA
ENDBRANCH   5  10
ENDBRANCH   1   5
BRANCH   2  13
HETATM   13  C           1     -33.597  -3.682 -11.740  0.00  0.00     0.297 C 
BRANCH  13  14
HETATM   14  C           1     -34.358  -4.354 -12.874  0.00  0.00     0.206 C 
BRANCH  14  15
HETATM   15  O           1     -33.788  -3.988 -14.102  0.00  0.00    -0.398 OA
HETATM   16  H           1     -34.493  -3.927 -14.724  0.00  0.00     0.209 HD
ENDBRANCH  14  15
ENDBRANCH  13  14
BRANCH  13  17
HETATM   17  N           1     -33.793  -4.464 -10.475  0.00  0.00    -0.064 N 
HETATM   18  H           1     -33.054  -4.201  -9.784  0.00  0.00     0.275 HD
HETATM   19  H           1     -34.734  -4.249 -10.075  0.00  0.00     0.275 HD
HETATM   20  H           1     -33.727  -5.486 -10.683  0.00  0.00     0.275 HD
ENDBRANCH  13  17
ENDBRANCH   2  13
TORSDOF 9
ENDMDL
MODEL 6
REMARK VINA RESULT:      -5.1      1.628      2.043
REMARK  9 active torsions:
REMARK  status: ('A' for Active; 'I' for Inactive)
REMARK    1  A    between atoms: N_1  and  C_8 
REMARK       I    between atoms: N_1  and  C_3 
REMARK    2  A    between atoms: C_2  and  C_13 
REMARK    3  A    between atoms: C_2  and  C_8 
REMARK    4  A    between atoms: C_3  and  C_7 
REMARK    5  A    between atoms: O_4  and  C_11 
REMARK    6  A    between atoms: C_7  and  C_11 
REMARK    7  A    between atoms: C_7  and  N_18 
REMARK    8  A    between atoms: C_8  and  C_20 
REMARK    9  A    between atoms: C_13  and  Se_14 
ROOT
HETATM    1  N           1     -26.608  -6.625 -18.176  0.00  0.00    -0.345 N 
HETATM    2  C           1     -26.437  -6.441 -19.522  0.00  0.00     0.251 C 
HETATM    3  H           1     -25.915  -7.134 -17.643  0.00  0.00     0.163 HD
HETATM    4  O           1     -27.264  -5.832 -20.158  0.00  0.00    -0.271 OA
ENDROOT
BRANCH   1   5
HETATM    5  C           1     -27.782  -6.090 -17.514  0.00  0.00     0.185 C 
BRANCH   5   6
HETATM    6  C           1     -28.937  -7.072 -17.658  0.00  0.00     0.036 C 
BRANCH   6   7
HETATM    7  C           1     -30.146  -6.353 -18.241  0.00  0.00     0.003 C 
BRANCH   7   8
HETATM    8 Se           1     -31.042  -5.342 -16.836  0.00  0.00     0.000 Se
HETATM    9  C           1     -30.636  -3.598 -17.606  0.00  0.00     0.000 C 
ENDBRANCH   7   8
ENDBRANCH   6   7
ENDBRANCH   5   6
BRANCH   5  10
HETATM   10  C           1     -27.481  -5.877 -16.051  0.00  0.00     0.196 C 
HETATM   11  O           1     -26.952  -6.792 -15.381  0.00  0.00    -0.646 OA
HETATM   12  O           1     -27.761  -4.787 -15.508  0.00  0.00    -0.646 OA
ENDBRANCH   5  10
ENDBRANCH   1   5
BRANCH   2  13
HETATM   13  C           1     -25.215  -6.998 -20.210  0.00  0.00     0.297 C 
BRANCH  13  14
HETATM   14  C           1     -25.634  -8.084 -21.191  0.00  0.00     0.206 C 
BRANCH  14  15
HETATM   15  O           1     -26.945  -8.493 -20.906  0.00  0.00    -0.398 OA
HETATM   16  H           1     -27.082  -9.309 -21.356  0.00  0.00     0.209 HD
ENDBRANCH  14  15
ENDBRANCH  13  14
BRANCH  13  17
HETATM   17  N           1     -24.288  -7.582 -19.185  0.00  0.00    -0.064 N 
HETATM   18  H           1     -23.807  -6.809 -18.671  0.00  0.00     0.275 HD
HETATM   19  H           1     -24.836  -8.160 -18.509  0.00  0.00     0.275 HD
HETATM   20  H           1     -23.576  -8.180 -19.660  0.00  0.00     0.275 HD
ENDBRANCH  13  17
ENDBRANCH   2  13
TORSDOF 9
ENDMDL
MODEL 7
REMARK VINA RESULT:      -5.0     10.197     12.144
REMARK  9 active torsions:
REMARK  status: ('A' for Active; 'I' for Inactive)
REMARK    1  A    between atoms: N_1  and  C_8 
REMARK       I    between atoms: N_1  and  C_3 
REMARK    2  A    between atoms: C_2  and  C_13 
REMARK    3  A    between atoms: C_2  and  C_8 
REMARK    4  A    between atoms: C_3  and  C_7 
REMARK    5  A    between atoms: O_4  and  C_11 
REMARK    6  A    between atoms: C_7  and  C_11 
REMARK    7  A    between atoms: C_7  and  N_18 
REMARK    8  A    between atoms: C_8  and  C_20 
REMARK    9  A    between atoms: C_13  and  Se_14 
ROOT
HETATM    1  N           1     -22.190  -5.241  -8.631  0.00  0.00    -0.345 N 
HETATM    2  C           1     -23.139  -4.315  -8.974  0.00  0.00     0.251 C 
HETATM    3  H           1     -22.217  -6.167  -9.038  0.00  0.00     0.163 HD
HETATM    4  O           1     -23.108  -3.210  -8.488  0.00  0.00    -0.271 OA
ENDROOT
BRANCH   1   5
HETATM    5  C           1     -21.147  -4.894  -7.685  0.00  0.00     0.185 C 
BRANCH   5   6
HETATM    6  C           1     -20.874  -6.083  -6.774  0.00  0.00     0.036 C 
BRANCH   6   7
HETATM    7  C           1     -21.035  -5.659  -5.321  0.00  0.00     0.003 C 
BRANCH   7   8
HETATM    8 Se           1     -21.656  -7.174  -4.264  0.00  0.00     0.000 Se
HETATM    9  C           1     -21.699  -6.193  -2.581  0.00  0.00     0.000 C 
ENDBRANCH   7   8
ENDBRANCH   6   7
ENDBRANCH   5   6
BRANCH   5  10
HETATM   10  C           1     -19.888  -4.533  -8.435  0.00  0.00     0.196 C 
HETATM   11  O           1     -19.886  -4.524  -9.685  0.00  0.00    -0.646 OA
HETATM   12  O           1     -18.849  -4.244  -7.805  0.00  0.00    -0.646 OA
ENDBRANCH   5  10
ENDBRANCH   1   5
BRANCH   2  13
HETATM   13  C           1     -24.225  -4.676  -9.959  0.00  0.00     0.297 C 
BRANCH  13  14
HETATM   14  C           1     -23.638  -4.736 -11.362  0.00  0.00     0.206 C 
BRANCH  14  15
HETATM   15  O           1     -22.455  -3.984 -11.409  0.00  0.00    -0.398 OA
HETATM   16  H           1     -22.695  -3.085 -11.258  0.00  0.00     0.209 HD
ENDBRANCH  14  15
ENDBRANCH  13  14
BRANCH  13  17
HETATM   17  N           1     -25.304  -3.635  -9.913  0.00  0.00    -0.064 N 
HETATM   18  H           1     -25.509  -3.389  -8.918  0.00  0.00     0.275 HD
HETATM   19  H           1     -24.986  -2.781 -10.424  0.00  0.00     0.275 HD
HETATM   20  H           1     -26.169  -4.011 -10.364  0.00  0.00     0.275 HD
ENDBRANCH  13  17
ENDBRANCH   2  13
TORSDOF 9
ENDMDL
MODEL 8
REMARK VINA RESULT:      -4.7     18.800     20.113
REMARK  9 active torsions:
REMARK  status: ('A' for Active; 'I' for Inactive)
REMARK    1  A    between atoms: N_1  and  C_8 
REMARK       I    between atoms: N_1  and  C_3 
REMARK    2  A    between atoms: C_2  and  C_13 
REMARK    3  A    between atoms: C_2  and  C_8 
REMARK    4  A    between atoms: C_3  and  C_7 
REMARK    5  A    between atoms: O_4  and  C_11 
REMARK    6  A    between atoms: C_7  and  C_11 
REMARK    7  A    between atoms: C_7  and  N_18 
REMARK    8  A    between atoms: C_8  and  C_20 
REMARK    9  A    between atoms: C_13  and  Se_14 
ROOT
HETATM    1  N           1     -11.695   5.525 -21.518  0.00  0.00    -0.345 N 
HETATM    2  C           1     -12.321   4.410 -22.006  0.00  0.00     0.251 C 
HETATM    3  H           1     -12.084   6.442 -21.694  0.00  0.00     0.163 HD
HETATM    4  O           1     -11.857   3.315 -21.795  0.00  0.00    -0.271 OA
ENDROOT
BRANCH   1   5
HETATM    5  C           1     -10.473   5.392 -20.748  0.00  0.00     0.185 C 
BRANCH   5   6
HETATM    6  C           1      -9.532   6.539 -21.088  0.00  0.00     0.036 C 
BRANCH   6   7
HETATM    7  C           1     -10.346   7.773 -21.455  0.00  0.00     0.003 C 
BRANCH   7   8
HETATM    8 Se           1     -10.128   9.131 -20.075  0.00  0.00     0.000 Se
HETATM    9  C           1     -11.962   9.001 -19.428  0.00  0.00     0.000 C 
ENDBRANCH   7   8
ENDBRANCH   6   7
ENDBRANCH   5   6
BRANCH   5  10
HETATM   10  C           1     -10.801   5.429 -19.275  0.00  0.00     0.196 C 
HETATM   11  O           1     -11.938   5.093 -18.879  0.00  0.00    -0.646 OA
HETATM   12  O           1      -9.936   5.798 -18.452  0.00  0.00    -0.646 OA
ENDBRANCH   5  10
ENDBRANCH   1   5
BRANCH   2  13
HETATM   13  C           1     -13.593   4.548 -22.807  0.00  0.00     0.297 C 
BRANCH  13  14
HETATM   14  C           1     -14.520   5.542 -22.122  0.00  0.00     0.206 C 
BRANCH  14  15
HETATM   15  O           1     -14.393   5.420 -20.731  0.00  0.00    -0.398 OA
HETATM   16  H           1     -15.160   5.812 -20.350  0.00  0.00     0.209 HD
ENDBRANCH  14  15
ENDBRANCH  13  14
BRANCH  13  17
HETATM   17  N           1     -14.271   3.213 -22.899  0.00  0.00    -0.064 N 
HETATM   18  H           1     -14.717   3.112 -23.839  0.00  0.00     0.275 HD
HETATM   19  H           1     -13.566   2.454 -22.766  0.00  0.00     0.275 HD
HETATM   20  H           1     -15.004   3.144 -22.157  0.00  0.00     0.275 HD
ENDBRANCH  13  17
ENDBRANCH   2  13
TORSDOF 9
ENDMDL
MODEL 9
REMARK VINA RESULT:      -4.7      3.488      5.486
REMARK  9 active torsions:
REMARK  status: ('A' for Active; 'I' for Inactive)
REMARK    1  A    between atoms: N_1  and  C_8 
REMARK       I    between atoms: N_1  and  C_3 
REMARK    2  A    between atoms: C_2  and  C_13 
REMARK    3  A    between atoms: C_2  and  C_8 
REMARK    4  A    between atoms: C_3  and  C_7 
REMARK    5  A    between atoms: O_4  and  C_11 
REMARK    6  A    between atoms: C_7  and  C_11 
REMARK    7  A    between atoms: C_7  and  N_18 
REMARK    8  A    between atoms: C_8  and  C_20 
REMARK    9  A    between atoms: C_13  and  Se_14 
ROOT
HETATM    1  N           1     -29.440  -5.481 -17.768  0.00  0.00    -0.345 N 
HETATM    2  C           1     -30.548  -6.253 -17.541  0.00  0.00     0.251 C 
HETATM    3  H           1     -29.544  -4.496 -17.971  0.00  0.00     0.163 HD
HETATM    4  O           1     -30.425  -7.430 -17.297  0.00  0.00    -0.271 OA
ENDROOT
BRANCH   1   5
HETATM    5  C           1     -28.119  -6.076 -17.715  0.00  0.00     0.185 C 
BRANCH   5   6
HETATM    6  C           1     -27.369  -5.759 -19.002  0.00  0.00     0.036 C 
BRANCH   6   7
HETATM    7  C           1     -27.191  -7.035 -19.814  0.00  0.00     0.003 C 
BRANCH   7   8
HETATM    8 Se           1     -25.460  -7.001 -20.709  0.00  0.00     0.000 Se
HETATM    9  C           1     -24.423  -7.104 -19.062  0.00  0.00     0.000 C 
ENDBRANCH   7   8
ENDBRANCH   6   7
ENDBRANCH   5   6
BRANCH   5  10
HETATM   10  C           1     -27.360  -5.512 -16.539  0.00  0.00     0.196 C 
HETATM   11  O           1     -27.978  -4.951 -15.607  0.00  0.00    -0.646 OA
HETATM   12  O           1     -26.115  -5.605 -16.496  0.00  0.00    -0.646 OA
ENDBRANCH   5  10
ENDBRANCH   1   5
BRANCH   2  13
HETATM   13  C           1     -31.924  -5.635 -17.595  0.00  0.00     0.297 C 
BRANCH  13  14
HETATM   14  C           1     -31.957  -4.393 -16.716  0.00  0.00     0.206 C 
BRANCH  14  15
HETATM   15  O           1     -31.646  -3.264 -17.487  0.00  0.00    -0.398 OA
HETATM   16  H           1     -31.151  -3.566 -18.229  0.00  0.00     0.209 HD
ENDBRANCH  14  15
ENDBRANCH  13  14
BRANCH  13  17
HETATM   17  N           1     -32.935  -6.625 -17.099  0.00  0.00    -0.064 N 
HETATM   18  H           1     -32.792  -6.788 -16.077  0.00  0.00     0.275 HD
HETATM   19  H           1     -33.897  -6.250 -17.259  0.00  0.00     0.275 HD
HETATM   20  H           1     -32.821  -7.527 -17.615  0.00  0.00     0.275 HD
ENDBRANCH  13  17
ENDBRANCH   2  13
TORSDOF 9
ENDMDL
