MODEL 1
REMARK VINA RESULT:      -5.5      0.000      0.000
REMARK  3 active torsions:
REMARK  status: ('A' for Active; 'I' for Inactive)
REMARK    1  A    between atoms: C_5  and  C_6 
REMARK    2  A    between atoms: C_6  and  N_14 
REMARK       I    between atoms: N_14  and  C_15 
REMARK    3  A    between atoms: C_15  and  C_16 
ROOT
HETATM    1  H           1     -19.479  -3.948  -9.040  0.00  0.00     0.275 HD
HETATM    2  H           1     -19.069  -5.538  -8.577  0.00  0.00     0.275 HD
HETATM    3  H           1     -20.660  -5.179  -9.082  0.00  0.00     0.275 HD
HETATM    4  N           1     -19.824  -4.816  -8.571  0.00  0.00    -0.067 N 
HETATM    5  C           1     -23.808  -4.992 -10.246  0.00  0.00     0.000 C 
HETATM    6 Se           1     -22.028  -4.385  -9.731  0.00  0.00     0.000 Se
HETATM    7  C           1     -20.203  -4.502  -7.153  0.00  0.00     0.274 C 
HETATM    8  C           1     -21.303  -3.448  -7.144  0.00  0.00     0.042 C 
HETATM    9  C           1     -22.520  -3.977  -7.891  0.00  0.00     0.003 C 
ENDROOT
BRANCH   7  10
HETATM   10  C           1     -20.701  -5.755  -6.478  0.00  0.00     0.249 C 
HETATM   11  O           1     -21.048  -6.703  -7.142  0.00  0.00    -0.271 OA
HETATM   12  N           1     -20.761  -5.820  -5.111  0.00  0.00    -0.345 N 
HETATM   13  H           1     -20.471  -5.025  -4.555  0.00  0.00     0.163 HD
BRANCH  12  14
HETATM   14  C           1     -21.241  -7.024  -4.462  0.00  0.00     0.181 C 
HETATM   15  C           1     -20.160  -8.096  -4.518  0.00  0.00     0.043 C 
BRANCH  14  16
HETATM   16  C           1     -21.574  -6.719  -3.022  0.00  0.00     0.196 C 
HETATM   17  O           1     -22.522  -5.952  -2.749  0.00  0.00    -0.646 OA
HETATM   18  O           1     -20.901  -7.233  -2.102  0.00  0.00    -0.646 OA
ENDBRANCH  14  16
ENDBRANCH  12  14
ENDBRANCH   7  10
TORSDOF 3
ENDMDL
MODEL 2
REMARK VINA RESULT:      -5.4     15.923     17.596
REMARK  3 active torsions:
REMARK  status: ('A' for Active; 'I' for Inactive)
REMARK    1  A    between atoms: C_5  and  C_6 
REMARK    2  A    between atoms: C_6  and  N_14 
REMARK       I    between atoms: N_14  and  C_15 
REMARK    3  A    between atoms: C_15  and  C_16 
ROOT
HETATM    1  H           1     -35.914  -1.657  -9.662  0.00  0.00     0.275 HD
HETATM    2  H           1     -37.378  -1.246 -10.436  0.00  0.00     0.275 HD
HETATM    3  H           1     -36.407  -2.505 -11.059  0.00  0.00     0.275 HD
HETATM    4  N           1     -36.396  -1.574 -10.585  0.00  0.00    -0.067 N 
HETATM    5  C           1     -34.965  -5.195 -12.467  0.00  0.00     0.000 C 
HETATM    6 Se           1     -35.200  -3.703 -11.234  0.00  0.00     0.000 Se
HETATM    7  C           1     -35.665  -0.584 -11.444  0.00  0.00     0.274 C 
HETATM    8  C           1     -34.235  -1.060 -11.661  0.00  0.00     0.042 C 
HETATM    9  C           1     -34.250  -2.418 -12.350  0.00  0.00     0.003 C 
ENDROOT
BRANCH   7  10
HETATM   10  C           1     -36.363  -0.464 -12.777  0.00  0.00     0.249 C 
HETATM   11  O           1     -37.478  -0.908 -12.917  0.00  0.00    -0.271 OA
HETATM   12  N           1     -35.733   0.146 -13.828  0.00  0.00    -0.345 N 
HETATM   13  H           1     -34.798   0.517 -13.711  0.00  0.00     0.163 HD
BRANCH  12  14
HETATM   14  C           1     -36.403   0.260 -15.109  0.00  0.00     0.181 C 
HETATM   15  C           1     -36.056   1.600 -15.745  0.00  0.00     0.043 C 
BRANCH  14  16
HETATM   16  C           1     -35.951  -0.860 -16.013  0.00  0.00     0.196 C 
HETATM   17  O           1     -35.082  -1.669 -15.620  0.00  0.00    -0.646 OA
HETATM   18  O           1     -36.445  -0.979 -17.155  0.00  0.00    -0.646 OA
ENDBRANCH  14  16
ENDBRANCH  12  14
ENDBRANCH   7  10
TORSDOF 3
ENDMDL
MODEL 3
REMARK VINA RESULT:      -5.1     14.874     17.026
REMARK  3 active torsions:
REMARK  status: ('A' for Active; 'I' for Inactive)
REMARK    1  A    between atoms: C_5  and  C_6 
REMARK    2  A    between atoms: C_6  and  N_14 
REMARK       I    between atoms: N_14  and  C_15 
REMARK    3  A    between atoms: C_15  and  C_16 
ROOT
HETATM    1  H           1     -35.722  -2.333  -9.517  0.00  0.00     0.275 HD
HETATM    2  H           1     -36.892  -1.804 -10.641  0.00  0.00     0.275 HD
HETATM    3  H           1     -36.026  -3.247 -10.927  0.00  0.00     0.275 HD
HETATM    4  N           1     -35.969  -2.281 -10.532  0.00  0.00    -0.067 N 
HETATM    5  C           1     -34.766  -6.249 -11.760  0.00  0.00     0.000 C 
HETATM    6 Se           1     -35.021  -4.616 -10.727  0.00  0.00     0.000 Se
HETATM    7  C           1     -34.916  -1.503 -11.264  0.00  0.00     0.274 C 
HETATM    8  C           1     -33.570  -2.197 -11.105  0.00  0.00     0.042 C 
HETATM    9  C           1     -33.653  -3.605 -11.678  0.00  0.00     0.003 C 
ENDROOT
BRANCH   7  10
HETATM   10  C           1     -35.274  -1.429 -12.728  0.00  0.00     0.249 C 
HETATM   11  O           1     -34.817  -2.235 -13.503  0.00  0.00    -0.271 OA
HETATM   12  N           1     -36.115  -0.447 -13.179  0.00  0.00    -0.345 N 
HETATM   13  H           1     -36.497   0.229 -12.529  0.00  0.00     0.163 HD
BRANCH  12  14
HETATM   14  C           1     -36.459  -0.375 -14.585  0.00  0.00     0.181 C 
HETATM   15  C           1     -37.932  -0.018 -14.730  0.00  0.00     0.043 C 
BRANCH  14  16
HETATM   16  C           1     -35.616   0.681 -15.255  0.00  0.00     0.196 C 
HETATM   17  O           1     -36.142   1.491 -16.050  0.00  0.00    -0.646 OA
HETATM   18  O           1     -34.391   0.748 -15.015  0.00  0.00    -0.646 OA
ENDBRANCH  14  16
ENDBRANCH  12  14
ENDBRANCH   7  10
TORSDOF 3
ENDMDL
MODEL 4
REMARK VINA RESULT:      -5.1     20.228     21.928
REMARK  3 active torsions:
REMARK  status: ('A' for Active; 'I' for Inactive)
REMARK    1  A    between atoms: C_5  and  C_6 
REMARK    2  A    between atoms: C_6  and  N_14 
REMARK       I    between atoms: N_14  and  C_15 
REMARK    3  A    between atoms: C_15  and  C_16 
ROOT
HETATM    1  H           1     -11.394   2.701 -20.150  0.00  0.00     0.275 HD
HETATM    2  H           1     -11.825   3.734 -18.863  0.00  0.00     0.275 HD
HETATM    3  H           1     -12.707   3.778 -20.324  0.00  0.00     0.275 HD
HETATM    4  N           1     -11.760   3.648 -19.902  0.00  0.00    -0.067 N 
HETATM    5  C           1     -14.864   4.015 -22.891  0.00  0.00     0.000 C 
HETATM    6 Se           1     -13.322   3.395 -21.873  0.00  0.00     0.000 Se
HETATM    7  C           1     -10.828   4.699 -20.432  0.00  0.00     0.274 C 
HETATM    8  C           1     -10.732   4.572 -21.947  0.00  0.00     0.042 C 
HETATM    9  C           1     -12.112   4.759 -22.562  0.00  0.00     0.003 C 
ENDROOT
BRANCH   7  10
HETATM   10  C           1     -11.358   6.065 -20.074  0.00  0.00     0.249 C 
HETATM   11  O           1     -12.399   6.171 -19.472  0.00  0.00    -0.271 OA
HETATM   12  N           1     -10.659   7.187 -20.433  0.00  0.00    -0.345 N 
HETATM   13  H           1      -9.786   7.098 -20.938  0.00  0.00     0.163 HD
BRANCH  12  14
HETATM   14  C           1     -11.168   8.500 -20.089  0.00  0.00     0.181 C 
HETATM   15  C           1     -10.435   9.023 -18.861  0.00  0.00     0.043 C 
BRANCH  14  16
HETATM   16  C           1     -10.947   9.442 -21.247  0.00  0.00     0.196 C 
HETATM   17  O           1     -11.601  10.506 -21.321  0.00  0.00    -0.646 OA
HETATM   18  O           1     -10.111   9.160 -22.132  0.00  0.00    -0.646 OA
ENDBRANCH  14  16
ENDBRANCH  12  14
ENDBRANCH   7  10
TORSDOF 3
ENDMDL
MODEL 5
REMARK VINA RESULT:      -5.0      3.034      6.201
REMARK  3 active torsions:
REMARK  status: ('A' for Active; 'I' for Inactive)
REMARK    1  A    between atoms: C_5  and  C_6 
REMARK    2  A    between atoms: C_6  and  N_14 
REMARK       I    between atoms: N_14  and  C_15 
REMARK    3  A    between atoms: C_15  and  C_16 
ROOT
HETATM    1  H           1     -20.044  -3.618  -5.529  0.00  0.00     0.275 HD
HETATM    2  H           1     -21.558  -2.928  -5.909  0.00  0.00     0.275 HD
HETATM    3  H           1     -21.440  -4.600  -5.586  0.00  0.00     0.275 HD
HETATM    4  N           1     -20.958  -3.777  -6.012  0.00  0.00    -0.067 N 
HETATM    5  C           1     -21.720  -7.850  -4.772  0.00  0.00     0.000 C 
HETATM    6 Se           1     -20.856  -6.134  -5.105  0.00  0.00     0.000 Se
HETATM    7  C           1     -20.713  -4.041  -7.469  0.00  0.00     0.274 C 
HETATM    8  C           1     -19.837  -5.277  -7.621  0.00  0.00     0.042 C 
HETATM    9  C           1     -20.539  -6.477  -6.997  0.00  0.00     0.003 C 
ENDROOT
BRANCH   7  10
HETATM   10  C           1     -22.032  -4.270  -8.166  0.00  0.00     0.249 C 
HETATM   11  O           1     -23.032  -4.464  -7.517  0.00  0.00    -0.271 OA
HETATM   12  N           1     -22.096  -4.258  -9.533  0.00  0.00    -0.345 N 
HETATM   13  H           1     -21.257  -4.096 -10.077  0.00  0.00     0.163 HD
BRANCH  12  14
HETATM   14  C           1     -23.363  -4.479 -10.203  0.00  0.00     0.181 C 
HETATM   15  C           1     -24.304  -3.320  -9.903  0.00  0.00     0.043 C 
BRANCH  14  16
HETATM   16  C           1     -23.134  -4.571 -11.691  0.00  0.00     0.196 C 
HETATM   17  O           1     -24.041  -5.001 -12.438  0.00  0.00    -0.646 OA
HETATM   18  O           1     -22.039  -4.217 -12.179  0.00  0.00    -0.646 OA
ENDBRANCH  14  16
ENDBRANCH  12  14
ENDBRANCH   7  10
TORSDOF 3
ENDMDL
MODEL 6
REMARK VINA RESULT:      -4.8     20.270     21.682
REMARK  3 active torsions:
REMARK  status: ('A' for Active; 'I' for Inactive)
REMARK    1  A    between atoms: C_5  and  C_6 
REMARK    2  A    between atoms: C_6  and  N_14 
REMARK       I    between atoms: N_14  and  C_15 
REMARK    3  A    between atoms: C_15  and  C_16 
ROOT
HETATM    1  H           1     -14.660   4.091 -22.724  0.00  0.00     0.275 HD
HETATM    2  H           1     -13.757   5.110 -23.752  0.00  0.00     0.275 HD
HETATM    3  H           1     -12.958   4.138 -22.599  0.00  0.00     0.275 HD
HETATM    4  N           1     -13.815   4.703 -22.791  0.00  0.00    -0.067 N 
HETATM    5  C           1     -10.969   2.225 -20.681  0.00  0.00     0.000 C 
HETATM    6 Se           1     -12.622   2.954 -21.412  0.00  0.00     0.000 Se
HETATM    7  C           1     -13.919   5.812 -21.786  0.00  0.00     0.274 C 
HETATM    8  C           1     -14.005   5.220 -20.385  0.00  0.00     0.042 C 
HETATM    9  C           1     -12.756   4.394 -20.105  0.00  0.00     0.003 C 
ENDROOT
BRANCH   7  10
HETATM   10  C           1     -12.700   6.695 -21.885  0.00  0.00     0.249 C 
HETATM   11  O           1     -11.922   6.551 -22.798  0.00  0.00    -0.271 OA
HETATM   12  N           1     -12.473   7.659 -20.940  0.00  0.00    -0.345 N 
HETATM   13  H           1     -13.124   7.780 -20.175  0.00  0.00     0.163 HD
BRANCH  12  14
HETATM   14  C           1     -11.301   8.507 -21.035  0.00  0.00     0.181 C 
HETATM   15  C           1     -11.690   9.948 -20.730  0.00  0.00     0.043 C 
BRANCH  14  16
HETATM   16  C           1     -10.265   8.044 -20.041  0.00  0.00     0.196 C 
HETATM   17  O           1      -9.237   7.453 -20.438  0.00  0.00    -0.646 OA
HETATM   18  O           1     -10.433   8.251 -18.819  0.00  0.00    -0.646 OA
ENDBRANCH  14  16
ENDBRANCH  12  14
ENDBRANCH   7  10
TORSDOF 3
ENDMDL
MODEL 7
REMARK VINA RESULT:      -4.8      4.631      7.151
REMARK  3 active torsions:
REMARK  status: ('A' for Active; 'I' for Inactive)
REMARK    1  A    between atoms: C_5  and  C_6 
REMARK    2  A    between atoms: C_6  and  N_14 
REMARK       I    between atoms: N_14  and  C_15 
REMARK    3  A    between atoms: C_15  and  C_16 
ROOT
HETATM    1  H           1     -23.350  -7.952   0.945  0.00  0.00     0.275 HD
HETATM    2  H           1     -23.209  -7.018  -0.475  0.00  0.00     0.275 HD
HETATM    3  H           1     -23.347  -8.716  -0.581  0.00  0.00     0.275 HD
HETATM    4  N           1     -22.956  -7.925  -0.023  0.00  0.00    -0.067 N 
HETATM    5  C           1     -23.855 -11.966  -1.272  0.00  0.00     0.000 C 
HETATM    6 Se           1     -23.604 -10.361  -0.194  0.00  0.00     0.000 Se
HETATM    7  C           1     -21.461  -8.049   0.042  0.00  0.00     0.274 C 
HETATM    8  C           1     -21.091  -9.370   0.702  0.00  0.00     0.042 C 
HETATM    9  C           1     -21.664 -10.524  -0.111  0.00  0.00     0.003 C 
ENDROOT
BRANCH   7  10
HETATM   10  C           1     -20.894  -8.009  -1.356  0.00  0.00     0.249 C 
HETATM   11  O           1     -19.746  -8.327  -1.552  0.00  0.00    -0.271 OA
HETATM   12  N           1     -21.681  -7.610  -2.403  0.00  0.00    -0.345 N 
HETATM   13  H           1     -22.644  -7.342  -2.239  0.00  0.00     0.163 HD
BRANCH  12  14
HETATM   14  C           1     -21.137  -7.570  -3.746  0.00  0.00     0.181 C 
HETATM   15  C           1     -21.582  -8.809  -4.511  0.00  0.00     0.043 C 
BRANCH  14  16
HETATM   16  C           1     -21.636  -6.334  -4.454  0.00  0.00     0.196 C 
HETATM   17  O           1     -22.843  -6.236  -4.764  0.00  0.00    -0.646 OA
HETATM   18  O           1     -20.843  -5.408  -4.730  0.00  0.00    -0.646 OA
ENDBRANCH  14  16
ENDBRANCH  12  14
ENDBRANCH   7  10
TORSDOF 3
ENDMDL
MODEL 8
REMARK VINA RESULT:      -4.6      5.128      7.640
REMARK  3 active torsions:
REMARK  status: ('A' for Active; 'I' for Inactive)
REMARK    1  A    between atoms: C_5  and  C_6 
REMARK    2  A    between atoms: C_6  and  N_14 
REMARK       I    between atoms: N_14  and  C_15 
REMARK    3  A    between atoms: C_15  and  C_16 
ROOT
HETATM    1  H           1     -23.158 -11.841  -0.875  0.00  0.00     0.275 HD
HETATM    2  H           1     -23.368 -10.526  -1.943  0.00  0.00     0.275 HD
HETATM    3  H           1     -21.883 -11.367  -1.907  0.00  0.00     0.275 HD
HETATM    4  N           1     -22.685 -11.027  -1.330  0.00  0.00    -0.067 N 
HETATM    5  C           1     -18.916 -12.880  -2.360  0.00  0.00     0.000 C 
HETATM    6 Se           1     -20.674 -12.535  -1.592  0.00  0.00     0.000 Se
HETATM    7  C           1     -22.180 -10.088  -0.275  0.00  0.00     0.274 C 
HETATM    8  C           1     -21.185 -10.817   0.619  0.00  0.00     0.042 C 
HETATM    9  C           1     -20.017 -11.315  -0.221  0.00  0.00     0.003 C 
ENDROOT
BRANCH   7  10
HETATM   10  C           1     -21.498  -8.914  -0.933  0.00  0.00     0.249 C 
HETATM   11  O           1     -20.876  -8.123  -0.264  0.00  0.00    -0.271 OA
HETATM   12  N           1     -21.584  -8.744  -2.289  0.00  0.00    -0.345 N 
HETATM   13  H           1     -22.106  -9.406  -2.849  0.00  0.00     0.163 HD
BRANCH  12  14
HETATM   14  C           1     -20.930  -7.615  -2.922  0.00  0.00     0.181 C 
HETATM   15  C           1     -20.320  -8.059  -4.246  0.00  0.00     0.043 C 
BRANCH  14  16
HETATM   16  C           1     -21.941  -6.525  -3.174  0.00  0.00     0.196 C 
HETATM   17  O           1     -22.405  -5.869  -2.215  0.00  0.00    -0.646 OA
HETATM   18  O           1     -22.316  -6.276  -4.340  0.00  0.00    -0.646 OA
ENDBRANCH  14  16
ENDBRANCH  12  14
ENDBRANCH   7  10
TORSDOF 3
ENDMDL
MODEL 9
REMARK VINA RESULT:      -4.6      6.565      8.692
REMARK  3 active torsions:
REMARK  status: ('A' for Active; 'I' for Inactive)
REMARK    1  A    between atoms: C_5  and  C_6 
REMARK    2  A    between atoms: C_6  and  N_14 
REMARK       I    between atoms: N_14  and  C_15 
REMARK    3  A    between atoms: C_15  and  C_16 
ROOT
HETATM    1  H           1     -21.806 -12.918  -2.771  0.00  0.00     0.275 HD
HETATM    2  H           1     -22.185 -11.283  -3.075  0.00  0.00     0.275 HD
HETATM    3  H           1     -21.022 -11.683  -1.891  0.00  0.00     0.275 HD
HETATM    4  N           1     -21.921 -11.974  -2.337  0.00  0.00    -0.067 N 
HETATM    5  C           1     -18.508 -11.990   0.319  0.00  0.00     0.000 C 
HETATM    6 Se           1     -19.905 -12.543  -0.924  0.00  0.00     0.000 Se
HETATM    7  C           1     -23.001 -12.030  -1.297  0.00  0.00     0.274 C 
HETATM    8  C           1     -22.618 -13.038  -0.222  0.00  0.00     0.042 C 
HETATM    9  C           1     -21.307 -12.616   0.427  0.00  0.00     0.003 C 
ENDROOT
BRANCH   7  10
HETATM   10  C           1     -23.166 -10.667  -0.672  0.00  0.00     0.249 C 
HETATM   11  O           1     -24.124 -10.433   0.026  0.00  0.00    -0.271 OA
HETATM   12  N           1     -22.231  -9.692  -0.897  0.00  0.00    -0.345 N 
HETATM   13  H           1     -21.429  -9.887  -1.483  0.00  0.00     0.163 HD
BRANCH  12  14
HETATM   14  C           1     -22.390  -8.381  -0.298  0.00  0.00     0.181 C 
HETATM   15  C           1     -21.579  -8.311   0.990  0.00  0.00     0.043 C 
BRANCH  14  16
HETATM   16  C           1     -21.901  -7.327  -1.260  0.00  0.00     0.196 C 
HETATM   17  O           1     -20.805  -7.474  -1.844  0.00  0.00    -0.646 OA
HETATM   18  O           1     -22.591  -6.307  -1.473  0.00  0.00    -0.646 OA
ENDBRANCH  14  16
ENDBRANCH  12  14
ENDBRANCH   7  10
TORSDOF 3
ENDMDL
