MODEL 1
REMARK VINA RESULT:      -6.2      0.000      0.000
REMARK  15 active torsions:
REMARK  status: ('A' for Active; 'I' for Inactive)
REMARK    1  A    between atoms: C_10  and  C_34 
REMARK    2  A    between atoms: N_11  and  C_14 
REMARK       I    between atoms: N_12  and  C_25 
REMARK    3  A    between atoms: C_13  and  C_14 
REMARK    4  A    between atoms: C_13  and  C_33 
REMARK    5  A    between atoms: C_14  and  C_15 
REMARK       I    between atoms: C_15  and  N_17 
REMARK    6  A    between atoms: N_17  and  C_21 
REMARK    7  A    between atoms: C_20  and  C_21 
REMARK    8  A    between atoms: C_21  and  C_22 
REMARK    9  A    between atoms: C_22  and  C_23 
REMARK   10  A    between atoms: C_23  and  N_27 
REMARK   11  A    between atoms: C_24  and  C_33 
REMARK   12  A    between atoms: C_24  and  N_29 
REMARK       I    between atoms: C_25  and  N_26 
REMARK   13  A    between atoms: N_27  and  C_34 
REMARK   14  A    between atoms: C_34  and  C_35 
REMARK   15  A    between atoms: C_35  and  S_36 
ROOT
HETATM    1  C           1     -21.460  -6.578  -4.190  0.00  0.00     0.249 C 
HETATM    2  N           1     -21.055  -5.474  -4.892  0.00  0.00    -0.345 N 
HETATM    3  H           1     -20.648  -4.686  -4.405  0.00  0.00     0.163 HD
HETATM    4  O           1     -21.945  -7.519  -4.772  0.00  0.00    -0.271 OA
ENDROOT
BRANCH   1   5
HETATM    5  C           1     -21.301  -6.618  -2.690  0.00  0.00     0.274 C 
BRANCH   5   6
HETATM    6  N           1     -22.435  -5.875  -2.048  0.00  0.00    -0.067 N 
HETATM    7  H           1     -23.320  -6.074  -2.566  0.00  0.00     0.275 HD
HETATM    8  H           1     -22.238  -4.849  -2.074  0.00  0.00     0.275 HD
HETATM    9  H           1     -22.536  -6.184  -1.055  0.00  0.00     0.275 HD
ENDBRANCH   5   6
BRANCH   5  10
HETATM   10  C           1     -21.309  -8.065  -2.217  0.00  0.00     0.044 C 
BRANCH  10  11
HETATM   11  C           1     -19.877  -8.570  -2.100  0.00  0.00     0.023 C 
BRANCH  11  12
HETATM   12  C           1     -19.718  -9.845  -2.918  0.00  0.00     0.138 C 
BRANCH  12  13
HETATM   13  N           1     -19.534  -9.499  -4.335  0.00  0.00    -0.227 N 
HETATM   14  H           1     -20.336  -9.108  -4.888  0.00  0.00     0.177 HD
HETATM   15  C           1     -18.408  -9.674  -4.887  0.00  0.00     0.665 C 
HETATM   16  N           1     -17.415 -10.158  -4.201  0.00  0.00    -0.235 N 
HETATM   17  N           1     -18.248  -9.376  -6.108  0.00  0.00    -0.235 N 
HETATM   18  H           1     -17.547 -10.403  -3.194  0.00  0.00     0.174 HD
HETATM   19  H           1     -16.486 -10.301  -4.657  0.00  0.00     0.174 HD
HETATM   20  H           1     -19.050  -8.985  -6.661  0.00  0.00     0.174 HD
HETATM   21  H           1     -17.315  -9.521  -6.566  0.00  0.00     0.174 HD
ENDBRANCH  12  13
ENDBRANCH  11  12
ENDBRANCH  10  11
ENDBRANCH   5  10
ENDBRANCH   1   5
BRANCH   2  22
HETATM   22  C           1     -21.208  -5.436  -6.334  0.00  0.00     0.187 C 
BRANCH  22  23
HETATM   23  C           1     -19.878  -5.717  -6.987  0.00  0.00     0.196 C 
HETATM   24  O           1     -19.225  -4.784  -7.505  0.00  0.00    -0.646 OA
HETATM   25  O           1     -19.428  -6.883  -7.013  0.00  0.00    -0.646 OA
ENDBRANCH  22  23
BRANCH  22  26
HETATM   26  C           1     -21.699  -4.057  -6.754  0.00  0.00     0.066 C 
BRANCH  26  27
HETATM   27  C           1     -22.783  -4.205  -7.814  0.00  0.00     0.273 C 
BRANCH  27  28
HETATM   28  N           1     -22.174  -4.450  -9.093  0.00  0.00     0.099 N 
HETATM   29  H           1     -22.406  -5.394  -9.405  0.00  0.00     0.317 HD
BRANCH  28  30
HETATM   30  C           1     -22.709  -3.493 -10.023  0.00  0.00     0.329 C 
BRANCH  30  31
HETATM   31  C           1     -23.976  -4.040 -10.634  0.00  0.00     0.208 C 
HETATM   32  O           1     -24.043  -5.244 -10.961  0.00  0.00    -0.646 OA
HETATM   33  O           1     -24.958  -3.288 -10.812  0.00  0.00    -0.646 OA
ENDBRANCH  30  31
BRANCH  30  34
HETATM   34  C           1     -21.688  -3.228 -11.121  0.00  0.00     0.117 C 
BRANCH  34  35
HETATM   35  S           1     -20.259  -4.324 -10.896  0.00  0.00    -0.180 SA
HETATM   36  H           1     -19.811  -4.234 -12.162  0.00  0.00     0.101 HD
ENDBRANCH  34  35
ENDBRANCH  30  34
ENDBRANCH  28  30
ENDBRANCH  27  28
ENDBRANCH  26  27
ENDBRANCH  22  26
ENDBRANCH   2  22
TORSDOF 15
ENDMDL
MODEL 2
REMARK VINA RESULT:      -6.2      2.126      2.766
REMARK  15 active torsions:
REMARK  status: ('A' for Active; 'I' for Inactive)
REMARK    1  A    between atoms: C_10  and  C_34 
REMARK    2  A    between atoms: N_11  and  C_14 
REMARK       I    between atoms: N_12  and  C_25 
REMARK    3  A    between atoms: C_13  and  C_14 
REMARK    4  A    between atoms: C_13  and  C_33 
REMARK    5  A    between atoms: C_14  and  C_15 
REMARK       I    between atoms: C_15  and  N_17 
REMARK    6  A    between atoms: N_17  and  C_21 
REMARK    7  A    between atoms: C_20  and  C_21 
REMARK    8  A    between atoms: C_21  and  C_22 
REMARK    9  A    between atoms: C_22  and  C_23 
REMARK   10  A    between atoms: C_23  and  N_27 
REMARK   11  A    between atoms: C_24  and  C_33 
REMARK   12  A    between atoms: C_24  and  N_29 
REMARK       I    between atoms: C_25  and  N_26 
REMARK   13  A    between atoms: N_27  and  C_34 
REMARK   14  A    between atoms: C_34  and  C_35 
REMARK   15  A    between atoms: C_35  and  S_36 
ROOT
HETATM    1  C           1     -21.337  -6.604  -3.864  0.00  0.00     0.249 C 
HETATM    2  N           1     -21.035  -5.534  -4.663  0.00  0.00    -0.345 N 
HETATM    3  H           1     -20.726  -4.665  -4.249  0.00  0.00     0.163 HD
HETATM    4  O           1     -21.706  -7.643  -4.359  0.00  0.00    -0.271 OA
ENDROOT
BRANCH   1   5
HETATM    5  C           1     -21.208  -6.486  -2.365  0.00  0.00     0.274 C 
BRANCH   5   6
HETATM    6  N           1     -22.381  -5.726  -1.821  0.00  0.00    -0.067 N 
HETATM    7  H           1     -23.251  -6.025  -2.316  0.00  0.00     0.275 HD
HETATM    8  H           1     -22.230  -4.702  -1.970  0.00  0.00     0.275 HD
HETATM    9  H           1     -22.477  -5.918  -0.799  0.00  0.00     0.275 HD
ENDBRANCH   5   6
BRANCH   5  10
HETATM   10  C           1     -21.175  -7.878  -1.747  0.00  0.00     0.044 C 
BRANCH  10  11
HETATM   11  C           1     -22.106  -7.921  -0.542  0.00  0.00     0.023 C 
BRANCH  11  12
HETATM   12  C           1     -22.721  -9.309  -0.423  0.00  0.00     0.138 C 
BRANCH  12  13
HETATM   13  N           1     -22.388 -10.097  -1.618  0.00  0.00    -0.227 N 
HETATM   14  H           1     -21.594  -9.801  -2.238  0.00  0.00     0.177 HD
HETATM   15  C           1     -23.059 -11.133  -1.901  0.00  0.00     0.665 C 
HETATM   16  N           1     -24.043 -11.500  -1.133  0.00  0.00    -0.235 N 
HETATM   17  N           1     -22.772 -11.812  -2.930  0.00  0.00    -0.235 N 
HETATM   18  H           1     -24.279 -10.939  -0.284  0.00  0.00     0.174 HD
HETATM   19  H           1     -24.596 -12.354  -1.366  0.00  0.00     0.174 HD
HETATM   20  H           1     -21.978 -11.516  -3.550  0.00  0.00     0.174 HD
HETATM   21  H           1     -23.329 -12.671  -3.164  0.00  0.00     0.174 HD
ENDBRANCH  12  13
ENDBRANCH  11  12
ENDBRANCH  10  11
ENDBRANCH   5  10
ENDBRANCH   1   5
BRANCH   2  22
HETATM   22  C           1     -21.159  -5.648  -6.104  0.00  0.00     0.187 C 
BRANCH  22  23
HETATM   23  C           1     -19.795  -5.862  -6.710  0.00  0.00     0.196 C 
HETATM   24  O           1     -19.362  -7.022  -6.883  0.00  0.00    -0.646 OA
HETATM   25  O           1     -19.095  -4.879  -7.038  0.00  0.00    -0.646 OA
ENDBRANCH  22  23
BRANCH  22  26
HETATM   26  C           1     -21.768  -4.368  -6.662  0.00  0.00     0.066 C 
BRANCH  26  27
HETATM   27  C           1     -22.305  -4.631  -8.063  0.00  0.00     0.273 C 
BRANCH  27  28
HETATM   28  N           1     -23.305  -3.649  -8.385  0.00  0.00     0.099 N 
HETATM   29  H           1     -23.128  -2.796  -7.855  0.00  0.00     0.317 HD
BRANCH  28  30
HETATM   30  C           1     -23.206  -3.368  -9.792  0.00  0.00     0.329 C 
BRANCH  30  31
HETATM   31  C           1     -24.570  -3.491 -10.426  0.00  0.00     0.208 C 
HETATM   32  O           1     -25.580  -3.075  -9.819  0.00  0.00    -0.646 OA
HETATM   33  O           1     -24.688  -4.009 -11.557  0.00  0.00    -0.646 OA
ENDBRANCH  30  31
BRANCH  30  34
HETATM   34  C           1     -22.252  -4.361 -10.441  0.00  0.00     0.117 C 
BRANCH  34  35
HETATM   35  S           1     -20.959  -3.459 -11.341  0.00  0.00    -0.180 SA
HETATM   36  H           1     -21.762  -2.482 -11.799  0.00  0.00     0.101 HD
ENDBRANCH  34  35
ENDBRANCH  30  34
ENDBRANCH  28  30
ENDBRANCH  27  28
ENDBRANCH  26  27
ENDBRANCH  22  26
ENDBRANCH   2  22
TORSDOF 15
ENDMDL
MODEL 3
REMARK VINA RESULT:      -6.1      3.431      7.901
REMARK  15 active torsions:
REMARK  status: ('A' for Active; 'I' for Inactive)
REMARK    1  A    between atoms: C_10  and  C_34 
REMARK    2  A    between atoms: N_11  and  C_14 
REMARK       I    between atoms: N_12  and  C_25 
REMARK    3  A    between atoms: C_13  and  C_14 
REMARK    4  A    between atoms: C_13  and  C_33 
REMARK    5  A    between atoms: C_14  and  C_15 
REMARK       I    between atoms: C_15  and  N_17 
REMARK    6  A    between atoms: N_17  and  C_21 
REMARK    7  A    between atoms: C_20  and  C_21 
REMARK    8  A    between atoms: C_21  and  C_22 
REMARK    9  A    between atoms: C_22  and  C_23 
REMARK   10  A    between atoms: C_23  and  N_27 
REMARK   11  A    between atoms: C_24  and  C_33 
REMARK   12  A    between atoms: C_24  and  N_29 
REMARK       I    between atoms: C_25  and  N_26 
REMARK   13  A    between atoms: N_27  and  C_34 
REMARK   14  A    between atoms: C_34  and  C_35 
REMARK   15  A    between atoms: C_35  and  S_36 
ROOT
HETATM    1  C           1     -21.087  -6.832  -5.147  0.00  0.00     0.249 C 
HETATM    2  N           1     -20.945  -6.609  -3.803  0.00  0.00    -0.345 N 
HETATM    3  H           1     -20.583  -5.724  -3.473  0.00  0.00     0.163 HD
HETATM    4  O           1     -21.521  -7.888  -5.542  0.00  0.00    -0.271 OA
ENDROOT
BRANCH   1   5
HETATM    5  C           1     -20.701  -5.758  -6.135  0.00  0.00     0.274 C 
BRANCH   5   6
HETATM    6  N           1     -19.880  -6.362  -7.235  0.00  0.00    -0.067 N 
HETATM    7  H           1     -19.243  -7.088  -6.836  0.00  0.00     0.275 HD
HETATM    8  H           1     -19.313  -5.615  -7.696  0.00  0.00     0.275 HD
HETATM    9  H           1     -20.513  -6.803  -7.939  0.00  0.00     0.275 HD
ENDBRANCH   5   6
BRANCH   5  10
HETATM   10  C           1     -21.960  -5.135  -6.724  0.00  0.00     0.044 C 
BRANCH  10  11
HETATM   11  C           1     -21.600  -3.833  -7.427  0.00  0.00     0.023 C 
BRANCH  11  12
HETATM   12  C           1     -22.180  -3.837  -8.835  0.00  0.00     0.138 C 
BRANCH  12  13
HETATM   13  N           1     -23.610  -3.499  -8.777  0.00  0.00    -0.227 N 
HETATM   14  H           1     -23.993  -2.977  -7.951  0.00  0.00     0.177 HD
HETATM   15  C           1     -24.379  -3.839  -9.723  0.00  0.00     0.665 C 
HETATM   16  N           1     -23.905  -4.486 -10.747  0.00  0.00    -0.235 N 
HETATM   17  N           1     -25.611  -3.549  -9.674  0.00  0.00    -0.235 N 
HETATM   18  H           1     -22.888  -4.726 -10.787  0.00  0.00     0.174 HD
HETATM   19  H           1     -24.540  -4.766 -11.528  0.00  0.00     0.174 HD
HETATM   20  H           1     -25.994  -3.026  -8.847  0.00  0.00     0.174 HD
HETATM   21  H           1     -26.249  -3.831 -10.458  0.00  0.00     0.174 HD
ENDBRANCH  12  13
ENDBRANCH  11  12
ENDBRANCH  10  11
ENDBRANCH   5  10
ENDBRANCH   1   5
BRANCH   2  22
HETATM   22  C           1     -21.316  -7.641  -2.854  0.00  0.00     0.187 C 
BRANCH  22  23
HETATM   23  C           1     -22.031  -7.014  -1.684  0.00  0.00     0.196 C 
HETATM   24  O           1     -22.118  -7.631  -0.600  0.00  0.00    -0.646 OA
HETATM   25  O           1     -22.538  -5.877  -1.798  0.00  0.00    -0.646 OA
ENDBRANCH  22  23
BRANCH  22  26
HETATM   26  C           1     -20.061  -8.351  -2.362  0.00  0.00     0.066 C 
BRANCH  26  27
HETATM   27  C           1     -20.126  -9.823  -2.747  0.00  0.00     0.273 C 
BRANCH  27  28
HETATM   28  N           1     -19.712  -9.980  -4.115  0.00  0.00     0.099 N 
HETATM   29  H           1     -20.147  -9.256  -4.687  0.00  0.00     0.317 HD
BRANCH  28  30
HETATM   30  C           1     -18.283  -9.832  -4.161  0.00  0.00     0.329 C 
BRANCH  30  31
HETATM   31  C           1     -17.839  -9.690  -5.596  0.00  0.00     0.208 C 
HETATM   32  O           1     -16.842 -10.322  -6.008  0.00  0.00    -0.646 OA
HETATM   33  O           1     -18.468  -8.940  -6.373  0.00  0.00    -0.646 OA
ENDBRANCH  30  31
BRANCH  30  34
HETATM   34  C           1     -17.627 -11.060  -3.544  0.00  0.00     0.117 C 
BRANCH  34  35
HETATM   35  S           1     -16.272 -10.540  -2.454  0.00  0.00    -0.180 SA
HETATM   36  H           1     -16.236  -9.262  -2.874  0.00  0.00     0.101 HD
ENDBRANCH  34  35
ENDBRANCH  30  34
ENDBRANCH  28  30
ENDBRANCH  27  28
ENDBRANCH  26  27
ENDBRANCH  22  26
ENDBRANCH   2  22
TORSDOF 15
ENDMDL
MODEL 4
REMARK VINA RESULT:      -6.1      3.812      8.106
REMARK  15 active torsions:
REMARK  status: ('A' for Active; 'I' for Inactive)
REMARK    1  A    between atoms: C_10  and  C_34 
REMARK    2  A    between atoms: N_11  and  C_14 
REMARK       I    between atoms: N_12  and  C_25 
REMARK    3  A    between atoms: C_13  and  C_14 
REMARK    4  A    between atoms: C_13  and  C_33 
REMARK    5  A    between atoms: C_14  and  C_15 
REMARK       I    between atoms: C_15  and  N_17 
REMARK    6  A    between atoms: N_17  and  C_21 
REMARK    7  A    between atoms: C_20  and  C_21 
REMARK    8  A    between atoms: C_21  and  C_22 
REMARK    9  A    between atoms: C_22  and  C_23 
REMARK   10  A    between atoms: C_23  and  N_27 
REMARK   11  A    between atoms: C_24  and  C_33 
REMARK   12  A    between atoms: C_24  and  N_29 
REMARK       I    between atoms: C_25  and  N_26 
REMARK   13  A    between atoms: N_27  and  C_34 
REMARK   14  A    between atoms: C_34  and  C_35 
REMARK   15  A    between atoms: C_35  and  S_36 
ROOT
HETATM    1  C           1     -20.405  -7.111  -5.770  0.00  0.00     0.249 C 
HETATM    2  N           1     -20.499  -7.980  -4.714  0.00  0.00    -0.345 N 
HETATM    3  H           1     -21.245  -7.877  -4.039  0.00  0.00     0.163 HD
HETATM    4  O           1     -19.515  -7.235  -6.577  0.00  0.00    -0.271 OA
ENDROOT
BRANCH   1   5
HETATM    5  C           1     -21.415  -6.000  -5.923  0.00  0.00     0.274 C 
BRANCH   5   6
HETATM    6  N           1     -22.249  -5.908  -4.680  0.00  0.00    -0.067 N 
HETATM    7  H           1     -21.752  -5.327  -3.969  0.00  0.00     0.275 HD
HETATM    8  H           1     -22.409  -6.868  -4.297  0.00  0.00     0.275 HD
HETATM    9  H           1     -23.169  -5.468  -4.909  0.00  0.00     0.275 HD
ENDBRANCH   5   6
BRANCH   5  10
HETATM   10  C           1     -20.687  -4.680  -6.145  0.00  0.00     0.044 C 
BRANCH  10  11
HETATM   11  C           1     -21.547  -3.766  -7.007  0.00  0.00     0.023 C 
BRANCH  11  12
HETATM   12  C           1     -22.313  -4.598  -8.026  0.00  0.00     0.138 C 
BRANCH  12  13
HETATM   13  N           1     -23.628  -3.987  -8.269  0.00  0.00    -0.227 N 
HETATM   14  H           1     -24.102  -3.441  -7.507  0.00  0.00     0.177 HD
HETATM   15  C           1     -24.189  -4.120  -9.396  0.00  0.00     0.665 C 
HETATM   16  N           1     -23.602  -4.795 -10.339  0.00  0.00    -0.235 N 
HETATM   17  N           1     -25.322  -3.594  -9.606  0.00  0.00    -0.235 N 
HETATM   18  H           1     -22.667  -5.230 -10.166  0.00  0.00     0.174 HD
HETATM   19  H           1     -24.064  -4.905 -11.270  0.00  0.00     0.174 HD
HETATM   20  H           1     -25.796  -3.048  -8.844  0.00  0.00     0.174 HD
HETATM   21  H           1     -25.787  -3.704 -10.541  0.00  0.00     0.174 HD
ENDBRANCH  12  13
ENDBRANCH  11  12
ENDBRANCH  10  11
ENDBRANCH   5  10
ENDBRANCH   1   5
BRANCH   2  22
HETATM   22  C           1     -19.528  -9.048  -4.567  0.00  0.00     0.187 C 
BRANCH  22  23
HETATM   23  C           1     -20.155 -10.356  -4.981  0.00  0.00     0.196 C 
HETATM   24  O           1     -20.637 -11.119  -4.116  0.00  0.00    -0.646 OA
HETATM   25  O           1     -20.191 -10.678  -6.188  0.00  0.00    -0.646 OA
ENDBRANCH  22  23
BRANCH  22  26
HETATM   26  C           1     -19.086  -9.133  -3.112  0.00  0.00     0.066 C 
BRANCH  26  27
HETATM   27  C           1     -20.090  -8.399  -2.233  0.00  0.00     0.273 C 
BRANCH  27  28
HETATM   28  N           1     -20.747  -9.340  -1.367  0.00  0.00     0.099 N 
HETATM   29  H           1     -20.328  -9.296  -0.437  0.00  0.00     0.317 HD
BRANCH  28  30
HETATM   30  C           1     -22.133  -8.966  -1.285  0.00  0.00     0.329 C 
BRANCH  30  31
HETATM   31  C           1     -22.269  -7.724  -0.438  0.00  0.00     0.208 C 
HETATM   32  O           1     -21.959  -7.756   0.772  0.00  0.00    -0.646 OA
HETATM   33  O           1     -22.691  -6.664  -0.948  0.00  0.00    -0.646 OA
ENDBRANCH  30  31
BRANCH  30  34
HETATM   34  C           1     -22.928 -10.101  -0.655  0.00  0.00     0.117 C 
BRANCH  34  35
HETATM   35  S           1     -21.785 -11.337   0.024  0.00  0.00    -0.180 SA
HETATM   36  H           1     -22.339 -11.383   1.249  0.00  0.00     0.101 HD
ENDBRANCH  34  35
ENDBRANCH  30  34
ENDBRANCH  28  30
ENDBRANCH  27  28
ENDBRANCH  26  27
ENDBRANCH  22  26
ENDBRANCH   2  22
TORSDOF 15
ENDMDL
MODEL 5
REMARK VINA RESULT:      -5.7      3.850      8.547
REMARK  15 active torsions:
REMARK  status: ('A' for Active; 'I' for Inactive)
REMARK    1  A    between atoms: C_10  and  C_34 
REMARK    2  A    between atoms: N_11  and  C_14 
REMARK       I    between atoms: N_12  and  C_25 
REMARK    3  A    between atoms: C_13  and  C_14 
REMARK    4  A    between atoms: C_13  and  C_33 
REMARK    5  A    between atoms: C_14  and  C_15 
REMARK       I    between atoms: C_15  and  N_17 
REMARK    6  A    between atoms: N_17  and  C_21 
REMARK    7  A    between atoms: C_20  and  C_21 
REMARK    8  A    between atoms: C_21  and  C_22 
REMARK    9  A    between atoms: C_22  and  C_23 
REMARK   10  A    between atoms: C_23  and  N_27 
REMARK   11  A    between atoms: C_24  and  C_33 
REMARK   12  A    between atoms: C_24  and  N_29 
REMARK       I    between atoms: C_25  and  N_26 
REMARK   13  A    between atoms: N_27  and  C_34 
REMARK   14  A    between atoms: C_34  and  C_35 
REMARK   15  A    between atoms: C_35  and  S_36 
ROOT
HETATM    1  C           1     -21.140  -6.836  -4.955  0.00  0.00     0.249 C 
HETATM    2  N           1     -21.010  -6.552  -3.621  0.00  0.00    -0.345 N 
HETATM    3  H           1     -20.640  -5.657  -3.328  0.00  0.00     0.163 HD
HETATM    4  O           1     -21.582  -7.904  -5.305  0.00  0.00    -0.271 OA
ENDROOT
BRANCH   1   5
HETATM    5  C           1     -20.730  -5.814  -5.987  0.00  0.00     0.274 C 
BRANCH   5   6
HETATM    6  N           1     -19.955  -6.490  -7.078  0.00  0.00    -0.067 N 
HETATM    7  H           1     -20.317  -7.460  -7.214  0.00  0.00     0.275 HD
HETATM    8  H           1     -18.944  -6.528  -6.814  0.00  0.00     0.275 HD
HETATM    9  H           1     -20.061  -5.950  -7.967  0.00  0.00     0.275 HD
ENDBRANCH   5   6
BRANCH   5  10
HETATM   10  C           1     -21.973  -5.161  -6.577  0.00  0.00     0.044 C 
BRANCH  10  11
HETATM   11  C           1     -21.576  -3.892  -7.320  0.00  0.00     0.023 C 
BRANCH  11  12
HETATM   12  C           1     -22.110  -3.949  -8.745  0.00  0.00     0.138 C 
BRANCH  12  13
HETATM   13  N           1     -23.514  -3.516  -8.760  0.00  0.00    -0.227 N 
HETATM   14  H           1     -23.870  -2.862  -8.019  0.00  0.00     0.177 HD
HETATM   15  C           1     -24.295  -3.932  -9.666  0.00  0.00     0.665 C 
HETATM   16  N           1     -23.854  -4.741 -10.583  0.00  0.00    -0.235 N 
HETATM   17  N           1     -25.505  -3.560  -9.680  0.00  0.00    -0.235 N 
HETATM   18  H           1     -22.855  -5.049 -10.572  0.00  0.00     0.174 HD
HETATM   19  H           1     -24.498  -5.085 -11.331  0.00  0.00     0.174 HD
HETATM   20  H           1     -25.861  -2.906  -8.939  0.00  0.00     0.174 HD
HETATM   21  H           1     -26.153  -3.905 -10.430  0.00  0.00     0.174 HD
ENDBRANCH  12  13
ENDBRANCH  11  12
ENDBRANCH  10  11
ENDBRANCH   5  10
ENDBRANCH   1   5
BRANCH   2  22
HETATM   22  C           1     -21.404  -7.535  -2.630  0.00  0.00     0.187 C 
BRANCH  22  23
HETATM   23  C           1     -22.161  -6.851  -1.519  0.00  0.00     0.196 C 
HETATM   24  O           1     -22.507  -7.498  -0.506  0.00  0.00    -0.646 OA
HETATM   25  O           1     -22.443  -5.637  -1.609  0.00  0.00    -0.646 OA
ENDBRANCH  22  23
BRANCH  22  26
HETATM   26  C           1     -20.161  -8.206  -2.061  0.00  0.00     0.066 C 
BRANCH  26  27
HETATM   27  C           1     -20.061  -9.627  -2.597  0.00  0.00     0.273 C 
BRANCH  27  28
HETATM   28  N           1     -21.372 -10.102  -2.949  0.00  0.00     0.099 N 
HETATM   29  H           1     -21.412 -10.278  -3.953  0.00  0.00     0.317 HD
BRANCH  28  30
HETATM   30  C           1     -21.598 -11.330  -2.237  0.00  0.00     0.329 C 
BRANCH  30  31
HETATM   31  C           1     -22.410 -11.049  -0.996  0.00  0.00     0.208 C 
HETATM   32  O           1     -23.565 -10.581  -1.097  0.00  0.00    -0.646 OA
HETATM   33  O           1     -21.927 -11.283   0.132  0.00  0.00    -0.646 OA
ENDBRANCH  30  31
BRANCH  30  34
HETATM   34  C           1     -20.262 -11.942  -1.843  0.00  0.00     0.117 C 
BRANCH  34  35
HETATM   35  S           1     -20.272 -13.717  -2.221  0.00  0.00    -0.180 SA
HETATM   36  H           1     -19.255 -14.042  -1.403  0.00  0.00     0.101 HD
ENDBRANCH  34  35
ENDBRANCH  30  34
ENDBRANCH  28  30
ENDBRANCH  27  28
ENDBRANCH  26  27
ENDBRANCH  22  26
ENDBRANCH   2  22
TORSDOF 15
ENDMDL
MODEL 6
REMARK VINA RESULT:      -5.6      3.546      7.641
REMARK  15 active torsions:
REMARK  status: ('A' for Active; 'I' for Inactive)
REMARK    1  A    between atoms: C_10  and  C_34 
REMARK    2  A    between atoms: N_11  and  C_14 
REMARK       I    between atoms: N_12  and  C_25 
REMARK    3  A    between atoms: C_13  and  C_14 
REMARK    4  A    between atoms: C_13  and  C_33 
REMARK    5  A    between atoms: C_14  and  C_15 
REMARK       I    between atoms: C_15  and  N_17 
REMARK    6  A    between atoms: N_17  and  C_21 
REMARK    7  A    between atoms: C_20  and  C_21 
REMARK    8  A    between atoms: C_21  and  C_22 
REMARK    9  A    between atoms: C_22  and  C_23 
REMARK   10  A    between atoms: C_23  and  N_27 
REMARK   11  A    between atoms: C_24  and  C_33 
REMARK   12  A    between atoms: C_24  and  N_29 
REMARK       I    between atoms: C_25  and  N_26 
REMARK   13  A    between atoms: N_27  and  C_34 
REMARK   14  A    between atoms: C_34  and  C_35 
REMARK   15  A    between atoms: C_35  and  S_36 
ROOT
HETATM    1  C           1     -21.552  -6.426  -4.781  0.00  0.00     0.249 C 
HETATM    2  N           1     -20.971  -7.081  -3.728  0.00  0.00    -0.345 N 
HETATM    3  H           1     -19.965  -7.073  -3.620  0.00  0.00     0.163 HD
HETATM    4  O           1     -22.753  -6.435  -4.910  0.00  0.00    -0.271 OA
ENDROOT
BRANCH   1   5
HETATM    5  C           1     -20.691  -5.693  -5.780  0.00  0.00     0.274 C 
BRANCH   5   6
HETATM    6  N           1     -19.872  -6.682  -6.555  0.00  0.00    -0.067 N 
HETATM    7  H           1     -20.482  -7.174  -7.246  0.00  0.00     0.275 HD
HETATM    8  H           1     -19.457  -7.380  -5.897  0.00  0.00     0.275 HD
HETATM    9  H           1     -19.107  -6.181  -7.060  0.00  0.00     0.275 HD
ENDBRANCH   5   6
BRANCH   5  10
HETATM   10  C           1     -21.579  -4.909  -6.737  0.00  0.00     0.044 C 
BRANCH  10  11
HETATM   11  C           1     -21.181  -5.223  -8.173  0.00  0.00     0.023 C 
BRANCH  11  12
HETATM   12  C           1     -21.550  -4.051  -9.073  0.00  0.00     0.138 C 
BRANCH  12  13
HETATM   13  N           1     -22.869  -3.530  -8.682  0.00  0.00    -0.227 N 
HETATM   14  H           1     -22.996  -3.072  -7.746  0.00  0.00     0.177 HD
HETATM   15  C           1     -23.850  -3.635  -9.474  0.00  0.00     0.665 C 
HETATM   16  N           1     -23.693  -4.203 -10.634  0.00  0.00    -0.235 N 
HETATM   17  N           1     -24.986  -3.187  -9.139  0.00  0.00    -0.235 N 
HETATM   18  H           1     -22.755  -4.573 -10.911  0.00  0.00     0.174 HD
HETATM   19  H           1     -24.503  -4.290 -11.288  0.00  0.00     0.174 HD
HETATM   20  H           1     -25.114  -2.729  -8.203  0.00  0.00     0.174 HD
HETATM   21  H           1     -25.801  -3.275  -9.796  0.00  0.00     0.174 HD
ENDBRANCH  12  13
ENDBRANCH  11  12
ENDBRANCH  10  11
ENDBRANCH   5  10
ENDBRANCH   1   5
BRANCH   2  22
HETATM   22  C           1     -21.799  -7.786  -2.768  0.00  0.00     0.187 C 
BRANCH  22  23
HETATM   23  C           1     -22.044  -6.901  -1.571  0.00  0.00     0.196 C 
HETATM   24  O           1     -22.399  -5.713  -1.734  0.00  0.00    -0.646 OA
HETATM   25  O           1     -21.893  -7.354  -0.417  0.00  0.00    -0.646 OA
ENDBRANCH  22  23
BRANCH  22  26
HETATM   26  C           1     -21.087  -9.057  -2.323  0.00  0.00     0.066 C 
BRANCH  26  27
HETATM   27  C           1     -22.028 -10.245  -2.472  0.00  0.00     0.273 C 
BRANCH  27  28
HETATM   28  N           1     -22.174 -10.569  -3.866  0.00  0.00     0.099 N 
HETATM   29  H           1     -22.375  -9.719  -4.393  0.00  0.00     0.317 HD
BRANCH  28  30
HETATM   30  C           1     -20.930 -11.130  -4.318  0.00  0.00     0.329 C 
BRANCH  30  31
HETATM   31  C           1     -20.540 -10.494  -5.630  0.00  0.00     0.208 C 
HETATM   32  O           1     -21.028  -9.391  -5.959  0.00  0.00    -0.646 OA
HETATM   33  O           1     -19.729 -11.070  -6.387  0.00  0.00    -0.646 OA
ENDBRANCH  30  31
BRANCH  30  34
HETATM   34  C           1     -21.091 -12.632  -4.509  0.00  0.00     0.117 C 
BRANCH  34  35
HETATM   35  S           1     -22.657 -12.969  -5.363  0.00  0.00    -0.180 SA
HETATM   36  H           1     -22.101 -13.436  -6.496  0.00  0.00     0.101 HD
ENDBRANCH  34  35
ENDBRANCH  30  34
ENDBRANCH  28  30
ENDBRANCH  27  28
ENDBRANCH  26  27
ENDBRANCH  22  26
ENDBRANCH   2  22
TORSDOF 15
ENDMDL
MODEL 7
REMARK VINA RESULT:      -5.4      3.150      8.138
REMARK  15 active torsions:
REMARK  status: ('A' for Active; 'I' for Inactive)
REMARK    1  A    between atoms: C_10  and  C_34 
REMARK    2  A    between atoms: N_11  and  C_14 
REMARK       I    between atoms: N_12  and  C_25 
REMARK    3  A    between atoms: C_13  and  C_14 
REMARK    4  A    between atoms: C_13  and  C_33 
REMARK    5  A    between atoms: C_14  and  C_15 
REMARK       I    between atoms: C_15  and  N_17 
REMARK    6  A    between atoms: N_17  and  C_21 
REMARK    7  A    between atoms: C_20  and  C_21 
REMARK    8  A    between atoms: C_21  and  C_22 
REMARK    9  A    between atoms: C_22  and  C_23 
REMARK   10  A    between atoms: C_23  and  N_27 
REMARK   11  A    between atoms: C_24  and  C_33 
REMARK   12  A    between atoms: C_24  and  N_29 
REMARK       I    between atoms: C_25  and  N_26 
REMARK   13  A    between atoms: N_27  and  C_34 
REMARK   14  A    between atoms: C_34  and  C_35 
REMARK   15  A    between atoms: C_35  and  S_36 
ROOT
HETATM    1  C           1     -21.026  -6.794  -4.808  0.00  0.00     0.249 C 
HETATM    2  N           1     -20.725  -7.077  -3.502  0.00  0.00    -0.345 N 
HETATM    3  H           1     -19.837  -6.788  -3.114  0.00  0.00     0.163 HD
HETATM    4  O           1     -22.087  -7.139  -5.272  0.00  0.00    -0.271 OA
ENDROOT
BRANCH   1   5
HETATM    5  C           1     -20.032  -6.052  -5.668  0.00  0.00     0.274 C 
BRANCH   5   6
HETATM    6  N           1     -20.002  -6.662  -7.037  0.00  0.00    -0.067 N 
HETATM    7  H           1     -20.695  -6.177  -7.650  0.00  0.00     0.275 HD
HETATM    8  H           1     -20.244  -7.677  -6.971  0.00  0.00     0.275 HD
HETATM    9  H           1     -19.045  -6.559  -7.444  0.00  0.00     0.275 HD
ENDBRANCH   5   6
BRANCH   5  10
HETATM   10  C           1     -20.444  -4.589  -5.773  0.00  0.00     0.044 C 
BRANCH  10  11
HETATM   11  C           1     -20.410  -4.156  -7.232  0.00  0.00     0.023 C 
BRANCH  11  12
HETATM   12  C           1     -21.801  -3.708  -7.662  0.00  0.00     0.138 C 
BRANCH  12  13
HETATM   13  N           1     -22.188  -4.421  -8.888  0.00  0.00    -0.227 N 
HETATM   14  H           1     -21.474  -4.982  -9.417  0.00  0.00     0.177 HD
HETATM   15  C           1     -23.381  -4.359  -9.307  0.00  0.00     0.665 C 
HETATM   16  N           1     -24.264  -3.665  -8.652  0.00  0.00    -0.235 N 
HETATM   17  N           1     -23.715  -4.972 -10.363  0.00  0.00    -0.235 N 
HETATM   18  H           1     -23.989  -3.158  -7.781  0.00  0.00     0.174 HD
HETATM   19  H           1     -25.249  -3.613  -8.997  0.00  0.00     0.174 HD
HETATM   20  H           1     -23.002  -5.533 -10.892  0.00  0.00     0.174 HD
HETATM   21  H           1     -24.705  -4.921 -10.710  0.00  0.00     0.174 HD
ENDBRANCH  12  13
ENDBRANCH  11  12
ENDBRANCH  10  11
ENDBRANCH   5  10
ENDBRANCH   1   5
BRANCH   2  22
HETATM   22  C           1     -21.681  -7.790  -2.677  0.00  0.00     0.187 C 
BRANCH  22  23
HETATM   23  C           1     -22.146  -6.893  -1.558  0.00  0.00     0.196 C 
HETATM   24  O           1     -22.403  -5.691  -1.785  0.00  0.00    -0.646 OA
HETATM   25  O           1     -22.274  -7.351  -0.402  0.00  0.00    -0.646 OA
ENDBRANCH  22  23
BRANCH  22  26
HETATM   26  C           1     -21.018  -9.031  -2.092  0.00  0.00     0.066 C 
BRANCH  26  27
HETATM   27  C           1     -19.520  -8.982  -2.364  0.00  0.00     0.273 C 
BRANCH  27  28
HETATM   28  N           1     -18.945 -10.276  -2.116  0.00  0.00     0.099 N 
HETATM   29  H           1     -19.665 -10.993  -2.215  0.00  0.00     0.317 HD
BRANCH  28  30
HETATM   30  C           1     -17.916 -10.493  -3.097  0.00  0.00     0.329 C 
BRANCH  30  31
HETATM   31  C           1     -16.564 -10.269  -2.463  0.00  0.00     0.208 C 
HETATM   32  O           1     -16.149 -11.053  -1.584  0.00  0.00    -0.646 OA
HETATM   33  O           1     -15.861  -9.299  -2.819  0.00  0.00    -0.646 OA
ENDBRANCH  30  31
BRANCH  30  34
HETATM   34  C           1     -18.104  -9.520  -4.253  0.00  0.00     0.117 C 
BRANCH  34  35
HETATM   35  S           1     -17.751 -10.365  -5.820  0.00  0.00    -0.180 SA
HETATM   36  H           1     -18.116  -9.344  -6.616  0.00  0.00     0.101 HD
ENDBRANCH  34  35
ENDBRANCH  30  34
ENDBRANCH  28  30
ENDBRANCH  27  28
ENDBRANCH  26  27
ENDBRANCH  22  26
ENDBRANCH   2  22
TORSDOF 15
ENDMDL
MODEL 8
REMARK VINA RESULT:      -5.4      3.654      7.567
REMARK  15 active torsions:
REMARK  status: ('A' for Active; 'I' for Inactive)
REMARK    1  A    between atoms: C_10  and  C_34 
REMARK    2  A    between atoms: N_11  and  C_14 
REMARK       I    between atoms: N_12  and  C_25 
REMARK    3  A    between atoms: C_13  and  C_14 
REMARK    4  A    between atoms: C_13  and  C_33 
REMARK    5  A    between atoms: C_14  and  C_15 
REMARK       I    between atoms: C_15  and  N_17 
REMARK    6  A    between atoms: N_17  and  C_21 
REMARK    7  A    between atoms: C_20  and  C_21 
REMARK    8  A    between atoms: C_21  and  C_22 
REMARK    9  A    between atoms: C_22  and  C_23 
REMARK   10  A    between atoms: C_23  and  N_27 
REMARK   11  A    between atoms: C_24  and  C_33 
REMARK   12  A    between atoms: C_24  and  N_29 
REMARK       I    between atoms: C_25  and  N_26 
REMARK   13  A    between atoms: N_27  and  C_34 
REMARK   14  A    between atoms: C_34  and  C_35 
REMARK   15  A    between atoms: C_35  and  S_36 
ROOT
HETATM    1  C           1     -21.020  -8.220  -5.011  0.00  0.00     0.249 C 
HETATM    2  N           1     -20.603  -8.188  -3.706  0.00  0.00    -0.345 N 
HETATM    3  H           1     -20.577  -7.309  -3.205  0.00  0.00     0.163 HD
HETATM    4  O           1     -21.051  -9.269  -5.609  0.00  0.00    -0.271 OA
ENDROOT
BRANCH   1   5
HETATM    5  C           1     -21.440  -6.945  -5.700  0.00  0.00     0.274 C 
BRANCH   5   6
HETATM    6  N           1     -22.276  -6.123  -4.764  0.00  0.00    -0.067 N 
HETATM    7  H           1     -22.225  -6.529  -3.803  0.00  0.00     0.275 HD
HETATM    8  H           1     -23.269  -6.126  -5.092  0.00  0.00     0.275 HD
HETATM    9  H           1     -21.918  -5.142  -4.748  0.00  0.00     0.275 HD
ENDBRANCH   5   6
BRANCH   5  10
HETATM   10  C           1     -20.202  -6.154  -6.102  0.00  0.00     0.044 C 
BRANCH  10  11
HETATM   11  C           1     -20.508  -4.664  -6.034  0.00  0.00     0.023 C 
BRANCH  11  12
HETATM   12  C           1     -20.848  -4.149  -7.427  0.00  0.00     0.138 C 
BRANCH  12  13
HETATM   13  N           1     -22.272  -3.791  -7.484  0.00  0.00    -0.227 N 
HETATM   14  H           1     -22.729  -3.323  -6.662  0.00  0.00     0.177 HD
HETATM   15  C           1     -22.949  -4.048  -8.522  0.00  0.00     0.665 C 
HETATM   16  N           1     -22.384  -4.628  -9.540  0.00  0.00    -0.235 N 
HETATM   17  N           1     -24.176  -3.740  -8.572  0.00  0.00    -0.235 N 
HETATM   18  H           1     -21.371  -4.883  -9.499  0.00  0.00     0.174 HD
HETATM   19  H           1     -22.942  -4.840 -10.397  0.00  0.00     0.174 HD
HETATM   20  H           1     -24.633  -3.272  -7.750  0.00  0.00     0.174 HD
HETATM   21  H           1     -24.737  -3.953  -9.433  0.00  0.00     0.174 HD
ENDBRANCH  12  13
ENDBRANCH  11  12
ENDBRANCH  10  11
ENDBRANCH   5  10
ENDBRANCH   1   5
BRANCH   2  22
HETATM   22  C           1     -20.199  -9.413  -3.044  0.00  0.00     0.187 C 
BRANCH  22  23
HETATM   23  C           1     -20.880  -9.507  -1.702  0.00  0.00     0.196 C 
HETATM   24  O           1     -21.990  -8.959  -1.524  0.00  0.00    -0.646 OA
HETATM   25  O           1     -20.335 -10.131  -0.766  0.00  0.00    -0.646 OA
ENDBRANCH  22  23
BRANCH  22  26
HETATM   26  C           1     -18.688  -9.408  -2.849  0.00  0.00     0.066 C 
BRANCH  26  27
HETATM   27  C           1     -18.096 -10.683  -3.434  0.00  0.00     0.273 C 
BRANCH  27  28
HETATM   28  N           1     -18.774 -11.008  -4.660  0.00  0.00     0.099 N 
HETATM   29  H           1     -19.368 -10.227  -4.938  0.00  0.00     0.317 HD
BRANCH  28  30
HETATM   30  C           1     -17.773 -11.232  -5.668  0.00  0.00     0.329 C 
BRANCH  30  31
HETATM   31  C           1     -17.205  -9.906  -6.113  0.00  0.00     0.208 C 
HETATM   32  O           1     -15.980  -9.685  -6.011  0.00  0.00    -0.646 OA
HETATM   33  O           1     -17.961  -9.030  -6.585  0.00  0.00    -0.646 OA
ENDBRANCH  30  31
BRANCH  30  34
HETATM   34  C           1     -18.403 -11.941  -6.859  0.00  0.00     0.117 C 
BRANCH  34  35
HETATM   35  S           1     -18.036 -13.717  -6.768  0.00  0.00    -0.180 SA
HETATM   36  H           1     -17.515 -13.690  -5.529  0.00  0.00     0.101 HD
ENDBRANCH  34  35
ENDBRANCH  30  34
ENDBRANCH  28  30
ENDBRANCH  27  28
ENDBRANCH  26  27
ENDBRANCH  22  26
ENDBRANCH   2  22
TORSDOF 15
ENDMDL
MODEL 9
REMARK VINA RESULT:      -5.3      4.391      8.618
REMARK  15 active torsions:
REMARK  status: ('A' for Active; 'I' for Inactive)
REMARK    1  A    between atoms: C_10  and  C_34 
REMARK    2  A    between atoms: N_11  and  C_14 
REMARK       I    between atoms: N_12  and  C_25 
REMARK    3  A    between atoms: C_13  and  C_14 
REMARK    4  A    between atoms: C_13  and  C_33 
REMARK    5  A    between atoms: C_14  and  C_15 
REMARK       I    between atoms: C_15  and  N_17 
REMARK    6  A    between atoms: N_17  and  C_21 
REMARK    7  A    between atoms: C_20  and  C_21 
REMARK    8  A    between atoms: C_21  and  C_22 
REMARK    9  A    between atoms: C_22  and  C_23 
REMARK   10  A    between atoms: C_23  and  N_27 
REMARK   11  A    between atoms: C_24  and  C_33 
REMARK   12  A    between atoms: C_24  and  N_29 
REMARK       I    between atoms: C_25  and  N_26 
REMARK   13  A    between atoms: N_27  and  C_34 
REMARK   14  A    between atoms: C_34  and  C_35 
REMARK   15  A    between atoms: C_35  and  S_36 
ROOT
HETATM    1  C           1     -21.173  -8.386  -3.802  0.00  0.00     0.249 C 
HETATM    2  N           1     -21.162  -8.181  -2.448  0.00  0.00    -0.345 N 
HETATM    3  H           1     -20.791  -7.320  -2.070  0.00  0.00     0.163 HD
HETATM    4  O           1     -21.617  -9.414  -4.254  0.00  0.00    -0.271 OA
ENDROOT
BRANCH   1   5
HETATM    5  C           1     -20.630  -7.326  -4.730  0.00  0.00     0.274 C 
BRANCH   5   6
HETATM    6  N           1     -19.747  -7.968  -5.758  0.00  0.00    -0.067 N 
HETATM    7  H           1     -19.048  -7.271  -6.100  0.00  0.00     0.275 HD
HETATM    8  H           1     -20.331  -8.299  -6.560  0.00  0.00     0.275 HD
HETATM    9  H           1     -19.249  -8.781  -5.331  0.00  0.00     0.275 HD
ENDBRANCH   5   6
BRANCH   5  10
HETATM   10  C           1     -21.786  -6.618  -5.424  0.00  0.00     0.044 C 
BRANCH  10  11
HETATM   11  C           1     -21.372  -5.195  -5.775  0.00  0.00     0.023 C 
BRANCH  11  12
HETATM   12  C           1     -21.571  -4.961  -7.267  0.00  0.00     0.138 C 
BRANCH  12  13
HETATM   13  N           1     -22.812  -4.203  -7.483  0.00  0.00    -0.227 N 
HETATM   14  H           1     -23.284  -3.728  -6.674  0.00  0.00     0.177 HD
HETATM   15  C           1     -23.311  -4.123  -8.643  0.00  0.00     0.665 C 
HETATM   16  N           1     -22.725  -4.711  -9.645  0.00  0.00    -0.235 N 
HETATM   17  N           1     -24.380  -3.471  -8.830  0.00  0.00    -0.235 N 
HETATM   18  H           1     -21.843  -5.250  -9.491  0.00  0.00     0.174 HD
HETATM   19  H           1     -23.137  -4.645 -10.603  0.00  0.00     0.174 HD
HETATM   20  H           1     -24.852  -2.996  -8.022  0.00  0.00     0.174 HD
HETATM   21  H           1     -24.794  -3.405  -9.793  0.00  0.00     0.174 HD
ENDBRANCH  12  13
ENDBRANCH  11  12
ENDBRANCH  10  11
ENDBRANCH   5  10
ENDBRANCH   1   5
BRANCH   2  22
HETATM   22  C           1     -21.684  -9.200  -1.558  0.00  0.00     0.187 C 
BRANCH  22  23
HETATM   23  C           1     -22.483  -8.545  -0.459  0.00  0.00     0.196 C 
HETATM   24  O           1     -23.336  -9.204   0.174  0.00  0.00    -0.646 OA
HETATM   25  O           1     -22.294  -7.341  -0.181  0.00  0.00    -0.646 OA
ENDBRANCH  22  23
BRANCH  22  26
HETATM   26  C           1     -20.527  -9.981  -0.948  0.00  0.00     0.066 C 
BRANCH  26  27
HETATM   27  C           1     -20.349 -11.294  -1.699  0.00  0.00     0.273 C 
BRANCH  27  28
HETATM   28  N           1     -19.349 -11.132  -2.719  0.00  0.00     0.099 N 
HETATM   29  H           1     -19.635 -10.393  -3.362  0.00  0.00     0.317 HD
BRANCH  28  30
HETATM   30  C           1     -18.121 -10.755  -2.073  0.00  0.00     0.329 C 
BRANCH  30  31
HETATM   31  C           1     -17.337  -9.839  -2.980  0.00  0.00     0.208 C 
HETATM   32  O           1     -17.847  -9.425  -4.043  0.00  0.00    -0.646 OA
HETATM   33  O           1     -16.177  -9.493  -2.668  0.00  0.00    -0.646 OA
ENDBRANCH  30  31
BRANCH  30  34
HETATM   34  C           1     -17.300 -12.002  -1.777  0.00  0.00     0.117 C 
BRANCH  34  35
HETATM   35  S           1     -16.911 -12.065  -0.005  0.00  0.00    -0.180 SA
HETATM   36  H           1     -18.132 -12.465   0.394  0.00  0.00     0.101 HD
ENDBRANCH  34  35
ENDBRANCH  30  34
ENDBRANCH  28  30
ENDBRANCH  27  28
ENDBRANCH  26  27
ENDBRANCH  22  26
ENDBRANCH   2  22
TORSDOF 15
ENDMDL
