MODEL 1
REMARK VINA RESULT:      -6.4      0.000      0.000
REMARK  12 active torsions:
REMARK  status: ('A' for Active; 'I' for Inactive)
REMARK    1  A    between atoms: N_1  and  C_11 
REMARK    2  A    between atoms: C_2  and  C_3 
REMARK    3  A    between atoms: C_2  and  C_14 
REMARK    4  A    between atoms: C_3  and  C_4 
REMARK    5  A    between atoms: C_4  and  C_11 
REMARK    6  A    between atoms: N_5  and  C_20 
REMARK    7  A    between atoms: N_6  and  C_14 
REMARK       I    between atoms: N_6  and  C_19 
REMARK    8  A    between atoms: C_13  and  C_14 
REMARK    9  A    between atoms: C_19  and  C_20 
REMARK   10  A    between atoms: C_20  and  C_21 
REMARK   11  A    between atoms: C_21  and  C_23 
REMARK   12  A    between atoms: C_23  and  C_24 
ROOT
HETATM    1  N           1     -26.387  -6.717 -18.306  0.00  0.00    -0.345 N 
HETATM    2  O           1     -24.177  -6.483 -18.530  0.00  0.00    -0.271 OA
HETATM    3  C           1     -25.211  -6.915 -18.980  0.00  0.00     0.249 C 
HETATM    4  H           1     -27.253  -7.079 -18.683  0.00  0.00     0.163 HD
ENDROOT
BRANCH   1   5
HETATM    5  C           1     -26.390  -5.988 -17.053  0.00  0.00     0.185 C 
BRANCH   5   6
HETATM    6  C           1     -27.659  -5.152 -16.955  0.00  0.00     0.036 C 
BRANCH   6   7
HETATM    7  C           1     -28.599  -5.519 -18.095  0.00  0.00     0.004 C 
BRANCH   7   8
HETATM    8  C           1     -29.963  -5.893 -17.530  0.00  0.00     0.027 C 
BRANCH   8   9
HETATM    9  C           1     -30.352  -7.282 -18.019  0.00  0.00     0.229 C 
BRANCH   9  10
HETATM   10  N           1     -29.427  -8.301 -17.421  0.00  0.00    -0.079 N 
HETATM   11  H           1     -28.966  -7.899 -16.574  0.00  0.00     0.274 HD
HETATM   12  H           1     -29.972  -9.150 -17.151  0.00  0.00     0.274 HD
HETATM   13  H           1     -28.698  -8.562 -18.123  0.00  0.00     0.274 HD
ENDBRANCH   9  10
ENDBRANCH   8   9
ENDBRANCH   7   8
ENDBRANCH   6   7
ENDBRANCH   5   6
BRANCH   5  14
HETATM   14  C           1     -26.339  -6.964 -15.904  0.00  0.00     0.196 C 
HETATM   15  O           1     -25.237  -7.337 -15.448  0.00  0.00    -0.646 OA
HETATM   16  O           1     -27.401  -7.400 -15.406  0.00  0.00    -0.646 OA
ENDBRANCH   5  14
ENDBRANCH   1   5
BRANCH   3  17
HETATM   17  C           1     -25.209  -7.674 -20.284  0.00  0.00     0.275 C 
BRANCH  17  18
HETATM   18  N           1     -26.622  -7.873 -20.749  0.00  0.00    -0.066 N 
HETATM   19  H           1     -26.644  -8.615 -21.485  0.00  0.00     0.275 HD
HETATM   20  H           1     -27.215  -8.167 -19.940  0.00  0.00     0.275 HD
HETATM   21  H           1     -26.987  -6.978 -21.145  0.00  0.00     0.275 HD
ENDBRANCH  17  18
BRANCH  17  22
HETATM   22  C           1     -24.438  -6.881 -21.331  0.00  0.00     0.053 C 
BRANCH  22  23
HETATM   23  C           1     -24.028  -7.806 -22.469  0.00  0.00     0.115 C 
BRANCH  23  24
HETATM   24  C           1     -22.743  -8.510 -22.110  0.00  0.00     0.172 C 
HETATM   25  O           1     -22.247  -9.346 -22.895  0.00  0.00    -0.648 OA
HETATM   26  O           1     -22.175  -8.258 -21.025  0.00  0.00    -0.648 OA
ENDBRANCH  23  24
ENDBRANCH  22  23
ENDBRANCH  17  22
ENDBRANCH   3  17
TORSDOF 12
ENDMDL
MODEL 2
REMARK VINA RESULT:      -6.4     10.628     12.484
REMARK  12 active torsions:
REMARK  status: ('A' for Active; 'I' for Inactive)
REMARK    1  A    between atoms: N_1  and  C_11 
REMARK    2  A    between atoms: C_2  and  C_3 
REMARK    3  A    between atoms: C_2  and  C_14 
REMARK    4  A    between atoms: C_3  and  C_4 
REMARK    5  A    between atoms: C_4  and  C_11 
REMARK    6  A    between atoms: N_5  and  C_20 
REMARK    7  A    between atoms: N_6  and  C_14 
REMARK       I    between atoms: N_6  and  C_19 
REMARK    8  A    between atoms: C_13  and  C_14 
REMARK    9  A    between atoms: C_19  and  C_20 
REMARK   10  A    between atoms: C_20  and  C_21 
REMARK   11  A    between atoms: C_21  and  C_23 
REMARK   12  A    between atoms: C_23  and  C_24 
ROOT
HETATM    1  N           1     -34.983  -2.052 -13.203  0.00  0.00    -0.345 N 
HETATM    2  O           1     -34.123  -0.904 -11.491  0.00  0.00    -0.271 OA
HETATM    3  C           1     -34.825  -0.904 -12.473  0.00  0.00     0.249 C 
HETATM    4  H           1     -35.571  -2.051 -14.026  0.00  0.00     0.163 HD
ENDROOT
BRANCH   1   5
HETATM    5  C           1     -34.306  -3.268 -12.796  0.00  0.00     0.185 C 
BRANCH   5   6
HETATM    6  C           1     -35.036  -3.881 -11.609  0.00  0.00     0.036 C 
BRANCH   6   7
HETATM    7  C           1     -34.021  -4.363 -10.581  0.00  0.00     0.004 C 
BRANCH   7   8
HETATM    8  C           1     -33.692  -5.828 -10.838  0.00  0.00     0.027 C 
BRANCH   8   9
HETATM    9  C           1     -34.727  -6.708 -10.149  0.00  0.00     0.229 C 
BRANCH   9  10
HETATM   10  N           1     -34.777  -8.045 -10.828  0.00  0.00    -0.079 N 
HETATM   11  H           1     -35.637  -8.558 -10.526  0.00  0.00     0.274 HD
HETATM   12  H           1     -34.800  -7.909 -11.864  0.00  0.00     0.274 HD
HETATM   13  H           1     -33.931  -8.600 -10.567  0.00  0.00     0.274 HD
ENDBRANCH   9  10
ENDBRANCH   8   9
ENDBRANCH   7   8
ENDBRANCH   6   7
ENDBRANCH   5   6
BRANCH   5  14
HETATM   14  C           1     -34.298  -4.247 -13.944  0.00  0.00     0.196 C 
HETATM   15  O           1     -33.586  -4.028 -14.948  0.00  0.00    -0.646 OA
HETATM   16  O           1     -35.003  -5.278 -13.891  0.00  0.00    -0.646 OA
ENDBRANCH   5  14
ENDBRANCH   1   5
BRANCH   3  17
HETATM   17  C           1     -35.530   0.362 -12.897  0.00  0.00     0.275 C 
BRANCH  17  18
HETATM   18  N           1     -34.568   1.243 -13.639  0.00  0.00    -0.066 N 
HETATM   19  H           1     -34.926   2.225 -13.639  0.00  0.00     0.275 HD
HETATM   20  H           1     -33.636   1.213 -13.170  0.00  0.00     0.275 HD
HETATM   21  H           1     -34.477   0.907 -14.624  0.00  0.00     0.275 HD
ENDBRANCH  17  18
BRANCH  17  22
HETATM   22  C           1     -36.701   0.012 -13.804  0.00  0.00     0.053 C 
BRANCH  22  23
HETATM   23  C           1     -36.468   0.605 -15.187  0.00  0.00     0.115 C 
BRANCH  23  24
HETATM   24  C           1     -36.112  -0.496 -16.155  0.00  0.00     0.172 C 
HETATM   25  O           1     -36.915  -0.822 -17.055  0.00  0.00    -0.648 OA
HETATM   26  O           1     -35.013  -1.085 -16.055  0.00  0.00    -0.648 OA
ENDBRANCH  23  24
ENDBRANCH  22  23
ENDBRANCH  17  22
ENDBRANCH   3  17
TORSDOF 12
ENDMDL
MODEL 3
REMARK VINA RESULT:      -6.2     11.467     13.128
REMARK  12 active torsions:
REMARK  status: ('A' for Active; 'I' for Inactive)
REMARK    1  A    between atoms: N_1  and  C_11 
REMARK    2  A    between atoms: C_2  and  C_3 
REMARK    3  A    between atoms: C_2  and  C_14 
REMARK    4  A    between atoms: C_3  and  C_4 
REMARK    5  A    between atoms: C_4  and  C_11 
REMARK    6  A    between atoms: N_5  and  C_20 
REMARK    7  A    between atoms: N_6  and  C_14 
REMARK       I    between atoms: N_6  and  C_19 
REMARK    8  A    between atoms: C_13  and  C_14 
REMARK    9  A    between atoms: C_19  and  C_20 
REMARK   10  A    between atoms: C_20  and  C_21 
REMARK   11  A    between atoms: C_21  and  C_23 
REMARK   12  A    between atoms: C_23  and  C_24 
ROOT
HETATM    1  N           1     -35.226  -2.281 -11.994  0.00  0.00    -0.345 N 
HETATM    2  O           1     -33.307  -2.255 -10.853  0.00  0.00    -0.271 OA
HETATM    3  C           1     -34.090  -2.883 -11.525  0.00  0.00     0.249 C 
HETATM    4  H           1     -35.882  -2.807 -12.557  0.00  0.00     0.163 HD
ENDROOT
BRANCH   1   5
HETATM    5  C           1     -35.490  -0.890 -11.683  0.00  0.00     0.185 C 
BRANCH   5   6
HETATM    6  C           1     -35.979  -0.174 -12.936  0.00  0.00     0.036 C 
BRANCH   6   7
HETATM    7  C           1     -34.922   0.820 -13.399  0.00  0.00     0.004 C 
BRANCH   7   8
HETATM    8  C           1     -34.677   0.644 -14.892  0.00  0.00     0.027 C 
BRANCH   8   9
HETATM    9  C           1     -36.012   0.519 -15.614  0.00  0.00     0.229 C 
BRANCH   9  10
HETATM   10  N           1     -36.510   1.885 -15.985  0.00  0.00    -0.079 N 
HETATM   11  H           1     -35.751   2.413 -16.472  0.00  0.00     0.274 HD
HETATM   12  H           1     -37.334   1.794 -16.621  0.00  0.00     0.274 HD
HETATM   13  H           1     -36.793   2.399 -15.120  0.00  0.00     0.274 HD
ENDBRANCH   9  10
ENDBRANCH   8   9
ENDBRANCH   7   8
ENDBRANCH   6   7
ENDBRANCH   5   6
BRANCH   5  14
HETATM   14  C           1     -36.548  -0.806 -10.610  0.00  0.00     0.196 C 
HETATM   15  O           1     -36.230  -0.495  -9.443  0.00  0.00    -0.646 OA
HETATM   16  O           1     -37.742  -1.047 -10.890  0.00  0.00    -0.646 OA
ENDBRANCH   5  14
ENDBRANCH   1   5
BRANCH   3  17
HETATM   17  C           1     -33.815  -4.331 -11.849  0.00  0.00     0.275 C 
BRANCH  17  18
HETATM   18  N           1     -32.375  -4.491 -12.238  0.00  0.00    -0.066 N 
HETATM   19  H           1     -32.023  -5.414 -11.895  0.00  0.00     0.275 HD
HETATM   20  H           1     -32.289  -4.451 -13.278  0.00  0.00     0.275 HD
HETATM   21  H           1     -31.811  -3.723 -11.809  0.00  0.00     0.275 HD
ENDBRANCH  17  18
BRANCH  17  22
HETATM   22  C           1     -34.109  -5.189 -10.626  0.00  0.00     0.053 C 
BRANCH  22  23
HETATM   23  C           1     -33.545  -6.588 -10.838  0.00  0.00     0.115 C 
BRANCH  23  24
HETATM   24  C           1     -34.363  -7.586 -10.057  0.00  0.00     0.172 C 
HETATM   25  O           1     -33.952  -8.757  -9.915  0.00  0.00    -0.648 OA
HETATM   26  O           1     -35.455  -7.241  -9.554  0.00  0.00    -0.648 OA
ENDBRANCH  23  24
ENDBRANCH  22  23
ENDBRANCH  17  22
ENDBRANCH   3  17
TORSDOF 12
ENDMDL
MODEL 4
REMARK VINA RESULT:      -6.1      6.816      9.464
REMARK  12 active torsions:
REMARK  status: ('A' for Active; 'I' for Inactive)
REMARK    1  A    between atoms: N_1  and  C_11 
REMARK    2  A    between atoms: C_2  and  C_3 
REMARK    3  A    between atoms: C_2  and  C_14 
REMARK    4  A    between atoms: C_3  and  C_4 
REMARK    5  A    between atoms: C_4  and  C_11 
REMARK    6  A    between atoms: N_5  and  C_20 
REMARK    7  A    between atoms: N_6  and  C_14 
REMARK       I    between atoms: N_6  and  C_19 
REMARK    8  A    between atoms: C_13  and  C_14 
REMARK    9  A    between atoms: C_19  and  C_20 
REMARK   10  A    between atoms: C_20  and  C_21 
REMARK   11  A    between atoms: C_21  and  C_23 
REMARK   12  A    between atoms: C_23  and  C_24 
ROOT
HETATM    1  N           1     -33.437  -3.967 -14.213  0.00  0.00    -0.345 N 
HETATM    2  O           1     -35.024  -5.008 -15.389  0.00  0.00    -0.271 OA
HETATM    3  C           1     -33.919  -4.521 -15.368  0.00  0.00     0.249 C 
HETATM    4  H           1     -32.511  -3.559 -14.196  0.00  0.00     0.163 HD
ENDROOT
BRANCH   1   5
HETATM    5  C           1     -34.253  -3.965 -13.014  0.00  0.00     0.185 C 
BRANCH   5   6
HETATM    6  C           1     -33.363  -4.167 -11.795  0.00  0.00     0.036 C 
BRANCH   6   7
HETATM    7  C           1     -34.149  -4.881 -10.704  0.00  0.00     0.004 C 
BRANCH   7   8
HETATM    8  C           1     -33.869  -6.377 -10.772  0.00  0.00     0.027 C 
BRANCH   8   9
HETATM    9  C           1     -34.883  -7.123  -9.913  0.00  0.00     0.229 C 
BRANCH   9  10
HETATM   10  N           1     -34.350  -8.485  -9.580  0.00  0.00    -0.079 N 
HETATM   11  H           1     -33.697  -8.798 -10.333  0.00  0.00     0.274 HD
HETATM   12  H           1     -33.838  -8.445  -8.670  0.00  0.00     0.274 HD
HETATM   13  H           1     -35.144  -9.160  -9.504  0.00  0.00     0.274 HD
ENDBRANCH   9  10
ENDBRANCH   8   9
ENDBRANCH   7   8
ENDBRANCH   6   7
ENDBRANCH   5   6
BRANCH   5  14
HETATM   14  C           1     -34.973  -2.644 -12.899  0.00  0.00     0.196 C 
HETATM   15  O           1     -34.812  -1.765 -13.772  0.00  0.00    -0.646 OA
HETATM   16  O           1     -35.733  -2.430 -11.929  0.00  0.00    -0.646 OA
ENDBRANCH   5  14
ENDBRANCH   1   5
BRANCH   3  17
HETATM   17  C           1     -33.070  -4.523 -16.615  0.00  0.00     0.275 C 
BRANCH  17  18
HETATM   18  N           1     -33.200  -3.199 -17.309  0.00  0.00    -0.066 N 
HETATM   19  H           1     -34.170  -2.832 -17.180  0.00  0.00     0.275 HD
HETATM   20  H           1     -32.515  -2.524 -16.901  0.00  0.00     0.275 HD
HETATM   21  H           1     -33.007  -3.321 -18.329  0.00  0.00     0.275 HD
ENDBRANCH  17  18
BRANCH  17  22
HETATM   22  C           1     -31.614  -4.758 -16.238  0.00  0.00     0.053 C 
BRANCH  22  23
HETATM   23  C           1     -30.812  -5.089 -17.489  0.00  0.00     0.115 C 
BRANCH  23  24
HETATM   24  C           1     -29.753  -4.036 -17.703  0.00  0.00     0.172 C 
HETATM   25  O           1     -30.025  -2.830 -17.520  0.00  0.00    -0.648 OA
HETATM   26  O           1     -28.604  -4.370 -18.066  0.00  0.00    -0.648 OA
ENDBRANCH  23  24
ENDBRANCH  22  23
ENDBRANCH  17  22
ENDBRANCH   3  17
TORSDOF 12
ENDMDL
MODEL 5
REMARK VINA RESULT:      -6.1      2.594      3.367
REMARK  12 active torsions:
REMARK  status: ('A' for Active; 'I' for Inactive)
REMARK    1  A    between atoms: N_1  and  C_11 
REMARK    2  A    between atoms: C_2  and  C_3 
REMARK    3  A    between atoms: C_2  and  C_14 
REMARK    4  A    between atoms: C_3  and  C_4 
REMARK    5  A    between atoms: C_4  and  C_11 
REMARK    6  A    between atoms: N_5  and  C_20 
REMARK    7  A    between atoms: N_6  and  C_14 
REMARK       I    between atoms: N_6  and  C_19 
REMARK    8  A    between atoms: C_13  and  C_14 
REMARK    9  A    between atoms: C_19  and  C_20 
REMARK   10  A    between atoms: C_20  and  C_21 
REMARK   11  A    between atoms: C_21  and  C_23 
REMARK   12  A    between atoms: C_23  and  C_24 
ROOT
HETATM    1  N           1     -27.648  -6.562 -17.683  0.00  0.00    -0.345 N 
HETATM    2  O           1     -26.347  -6.841 -15.888  0.00  0.00    -0.271 OA
HETATM    3  C           1     -26.422  -6.657 -17.080  0.00  0.00     0.249 C 
HETATM    4  H           1     -27.710  -6.408 -18.681  0.00  0.00     0.163 HD
ENDROOT
BRANCH   1   5
HETATM    5  C           1     -28.856  -6.681 -16.890  0.00  0.00     0.185 C 
BRANCH   5   6
HETATM    6  C           1     -29.372  -5.292 -16.540  0.00  0.00     0.036 C 
BRANCH   6   7
HETATM    7  C           1     -29.371  -4.419 -17.788  0.00  0.00     0.004 C 
BRANCH   7   8
HETATM    8  C           1     -30.504  -3.405 -17.699  0.00  0.00     0.027 C 
BRANCH   8   9
HETATM    9  C           1     -31.748  -4.081 -17.138  0.00  0.00     0.229 C 
BRANCH   9  10
HETATM   10  N           1     -32.956  -3.251 -17.460  0.00  0.00    -0.079 N 
HETATM   11  H           1     -33.525  -3.733 -18.192  0.00  0.00     0.274 HD
HETATM   12  H           1     -33.533  -3.128 -16.597  0.00  0.00     0.274 HD
HETATM   13  H           1     -32.652  -2.316 -17.813  0.00  0.00     0.274 HD
ENDBRANCH   9  10
ENDBRANCH   8   9
ENDBRANCH   7   8
ENDBRANCH   6   7
ENDBRANCH   5   6
BRANCH   5  14
HETATM   14  C           1     -29.905  -7.423 -17.681  0.00  0.00     0.196 C 
HETATM   15  O           1     -29.567  -8.152 -18.638  0.00  0.00    -0.646 OA
HETATM   16  O           1     -31.113  -7.309 -17.379  0.00  0.00    -0.646 OA
ENDBRANCH   5  14
ENDBRANCH   1   5
BRANCH   3  17
HETATM   17  C           1     -25.164  -6.533 -17.905  0.00  0.00     0.275 C 
BRANCH  17  18
HETATM   18  N           1     -24.208  -7.625 -17.524  0.00  0.00    -0.066 N 
HETATM   19  H           1     -23.339  -7.203 -17.127  0.00  0.00     0.275 HD
HETATM   20  H           1     -24.653  -8.243 -16.809  0.00  0.00     0.275 HD
HETATM   21  H           1     -23.967  -8.187 -18.371  0.00  0.00     0.275 HD
ENDBRANCH  17  18
BRANCH  17  22
HETATM   22  C           1     -25.511  -6.655 -19.382  0.00  0.00     0.053 C 
BRANCH  22  23
HETATM   23  C           1     -24.508  -7.573 -20.066  0.00  0.00     0.115 C 
BRANCH  23  24
HETATM   24  C           1     -25.082  -8.065 -21.371  0.00  0.00     0.172 C 
HETATM   25  O           1     -24.400  -8.005 -22.417  0.00  0.00    -0.648 OA
HETATM   26  O           1     -26.241  -8.532 -21.408  0.00  0.00    -0.648 OA
ENDBRANCH  23  24
ENDBRANCH  22  23
ENDBRANCH  17  22
ENDBRANCH   3  17
TORSDOF 12
ENDMDL
MODEL 6
REMARK VINA RESULT:      -5.9     11.021     13.190
REMARK  12 active torsions:
REMARK  status: ('A' for Active; 'I' for Inactive)
REMARK    1  A    between atoms: N_1  and  C_11 
REMARK    2  A    between atoms: C_2  and  C_3 
REMARK    3  A    between atoms: C_2  and  C_14 
REMARK    4  A    between atoms: C_3  and  C_4 
REMARK    5  A    between atoms: C_4  and  C_11 
REMARK    6  A    between atoms: N_5  and  C_20 
REMARK    7  A    between atoms: N_6  and  C_14 
REMARK       I    between atoms: N_6  and  C_19 
REMARK    8  A    between atoms: C_13  and  C_14 
REMARK    9  A    between atoms: C_19  and  C_20 
REMARK   10  A    between atoms: C_20  and  C_21 
REMARK   11  A    between atoms: C_21  and  C_23 
REMARK   12  A    between atoms: C_23  and  C_24 
ROOT
HETATM    1  N           1     -35.640  -2.789 -11.342  0.00  0.00    -0.345 N 
HETATM    2  O           1     -34.639  -1.376  -9.931  0.00  0.00    -0.271 OA
HETATM    3  C           1     -35.560  -1.592 -10.682  0.00  0.00     0.249 C 
HETATM    4  H           1     -36.411  -2.970 -11.971  0.00  0.00     0.163 HD
ENDROOT
BRANCH   1   5
HETATM    5  C           1     -34.618  -3.798 -11.139  0.00  0.00     0.185 C 
BRANCH   5   6
HETATM    6  C           1     -35.270  -5.090 -10.664  0.00  0.00     0.036 C 
BRANCH   6   7
HETATM    7  C           1     -34.196  -6.145 -10.431  0.00  0.00     0.004 C 
BRANCH   7   8
HETATM    8  C           1     -34.823  -7.532 -10.496  0.00  0.00     0.027 C 
BRANCH   8   9
HETATM    9  C           1     -34.060  -8.478  -9.578  0.00  0.00     0.229 C 
BRANCH   9  10
HETATM   10  N           1     -33.459  -9.587 -10.389  0.00  0.00    -0.079 N 
HETATM   11  H           1     -34.215 -10.230 -10.715  0.00  0.00     0.274 HD
HETATM   12  H           1     -32.965  -9.184 -11.217  0.00  0.00     0.274 HD
HETATM   13  H           1     -32.779 -10.119  -9.801  0.00  0.00     0.274 HD
ENDBRANCH   9  10
ENDBRANCH   8   9
ENDBRANCH   7   8
ENDBRANCH   6   7
ENDBRANCH   5   6
BRANCH   5  14
HETATM   14  C           1     -33.892  -4.047 -12.437  0.00  0.00     0.196 C 
HETATM   15  O           1     -32.648  -4.169 -12.445  0.00  0.00    -0.646 OA
HETATM   16  O           1     -34.534  -4.132 -13.507  0.00  0.00    -0.646 OA
ENDBRANCH   5  14
ENDBRANCH   1   5
BRANCH   3  17
HETATM   17  C           1     -36.623  -0.542 -10.894  0.00  0.00     0.275 C 
BRANCH  17  18
HETATM   18  N           1     -36.287   0.677 -10.086  0.00  0.00    -0.066 N 
HETATM   19  H           1     -36.256   1.512 -10.714  0.00  0.00     0.275 HD
HETATM   20  H           1     -37.018   0.821  -9.353  0.00  0.00     0.275 HD
HETATM   21  H           1     -35.356   0.548  -9.632  0.00  0.00     0.275 HD
ENDBRANCH  17  18
BRANCH  17  22
HETATM   22  C           1     -36.685  -0.172 -12.369  0.00  0.00     0.053 C 
BRANCH  22  23
HETATM   23  C           1     -35.346   0.406 -12.805  0.00  0.00     0.115 C 
BRANCH  23  24
HETATM   24  C           1     -35.160   0.187 -14.286  0.00  0.00     0.172 C 
HETATM   25  O           1     -35.172   1.161 -15.069  0.00  0.00    -0.648 OA
HETATM   26  O           1     -34.995  -0.970 -14.730  0.00  0.00    -0.648 OA
ENDBRANCH  23  24
ENDBRANCH  22  23
ENDBRANCH  17  22
ENDBRANCH   3  17
TORSDOF 12
ENDMDL
MODEL 7
REMARK VINA RESULT:      -5.9     11.667     13.951
REMARK  12 active torsions:
REMARK  status: ('A' for Active; 'I' for Inactive)
REMARK    1  A    between atoms: N_1  and  C_11 
REMARK    2  A    between atoms: C_2  and  C_3 
REMARK    3  A    between atoms: C_2  and  C_14 
REMARK    4  A    between atoms: C_3  and  C_4 
REMARK    5  A    between atoms: C_4  and  C_11 
REMARK    6  A    between atoms: N_5  and  C_20 
REMARK    7  A    between atoms: N_6  and  C_14 
REMARK       I    between atoms: N_6  and  C_19 
REMARK    8  A    between atoms: C_13  and  C_14 
REMARK    9  A    between atoms: C_19  and  C_20 
REMARK   10  A    between atoms: C_20  and  C_21 
REMARK   11  A    between atoms: C_21  and  C_23 
REMARK   12  A    between atoms: C_23  and  C_24 
ROOT
HETATM    1  N           1     -21.454  -6.283  -6.406  0.00  0.00    -0.345 N 
HETATM    2  O           1     -20.468  -4.280  -6.344  0.00  0.00    -0.271 OA
HETATM    3  C           1     -21.164  -5.060  -6.949  0.00  0.00     0.249 C 
HETATM    4  H           1     -22.037  -6.936  -6.913  0.00  0.00     0.163 HD
ENDROOT
BRANCH   1   5
HETATM    5  C           1     -20.926  -6.641  -5.104  0.00  0.00     0.185 C 
BRANCH   5   6
HETATM    6  C           1     -22.022  -6.505  -4.056  0.00  0.00     0.036 C 
BRANCH   6   7
HETATM    7  C           1     -21.411  -6.055  -2.736  0.00  0.00     0.004 C 
BRANCH   7   8
HETATM    8  C           1     -22.255  -6.580  -1.581  0.00  0.00     0.027 C 
BRANCH   8   9
HETATM    9  C           1     -21.535  -7.745  -0.915  0.00  0.00     0.229 C 
BRANCH   9  10
HETATM   10  N           1     -21.901  -9.023  -1.610  0.00  0.00    -0.079 N 
HETATM   11  H           1     -21.188  -9.238  -2.343  0.00  0.00     0.274 HD
HETATM   12  H           1     -21.930  -9.802  -0.914  0.00  0.00     0.274 HD
HETATM   13  H           1     -22.840  -8.919  -2.058  0.00  0.00     0.274 HD
ENDBRANCH   9  10
ENDBRANCH   8   9
ENDBRANCH   7   8
ENDBRANCH   6   7
ENDBRANCH   5   6
BRANCH   5  14
HETATM   14  C           1     -20.434  -8.067  -5.136  0.00  0.00     0.196 C 
HETATM   15  O           1     -21.109  -8.973  -4.602  0.00  0.00    -0.646 OA
HETATM   16  O           1     -19.351  -8.343  -5.698  0.00  0.00    -0.646 OA
ENDBRANCH   5  14
ENDBRANCH   1   5
BRANCH   3  17
HETATM   17  C           1     -21.714  -4.687  -8.304  0.00  0.00     0.275 C 
BRANCH  17  18
HETATM   18  N           1     -22.915  -3.804  -8.129  0.00  0.00    -0.066 N 
HETATM   19  H           1     -23.611  -4.010  -8.880  0.00  0.00     0.275 HD
HETATM   20  H           1     -23.347  -3.985  -7.195  0.00  0.00     0.275 HD
HETATM   21  H           1     -22.622  -2.803  -8.191  0.00  0.00     0.275 HD
ENDBRANCH  17  18
BRANCH  17  22
HETATM   22  C           1     -20.649  -3.943  -9.097  0.00  0.00     0.053 C 
BRANCH  22  23
HETATM   23  C           1     -20.586  -4.502 -10.512  0.00  0.00     0.115 C 
BRANCH  23  24
HETATM   24  C           1     -21.630  -3.829 -11.368  0.00  0.00     0.172 C 
HETATM   25  O           1     -22.578  -4.494 -11.838  0.00  0.00    -0.648 OA
HETATM   26  O           1     -21.546  -2.605 -11.609  0.00  0.00    -0.648 OA
ENDBRANCH  23  24
ENDBRANCH  22  23
ENDBRANCH  17  22
ENDBRANCH   3  17
TORSDOF 12
ENDMDL
MODEL 8
REMARK VINA RESULT:      -5.9     10.540     13.159
REMARK  12 active torsions:
REMARK  status: ('A' for Active; 'I' for Inactive)
REMARK    1  A    between atoms: N_1  and  C_11 
REMARK    2  A    between atoms: C_2  and  C_3 
REMARK    3  A    between atoms: C_2  and  C_14 
REMARK    4  A    between atoms: C_3  and  C_4 
REMARK    5  A    between atoms: C_4  and  C_11 
REMARK    6  A    between atoms: N_5  and  C_20 
REMARK    7  A    between atoms: N_6  and  C_14 
REMARK       I    between atoms: N_6  and  C_19 
REMARK    8  A    between atoms: C_13  and  C_14 
REMARK    9  A    between atoms: C_19  and  C_20 
REMARK   10  A    between atoms: C_20  and  C_21 
REMARK   11  A    between atoms: C_21  and  C_23 
REMARK   12  A    between atoms: C_23  and  C_24 
ROOT
HETATM    1  N           1     -36.027  -0.319 -12.261  0.00  0.00    -0.345 N 
HETATM    2  O           1     -37.935  -0.774 -13.330  0.00  0.00    -0.271 OA
HETATM    3  C           1     -36.824  -0.302 -13.374  0.00  0.00     0.249 C 
HETATM    4  H           1     -35.097   0.076 -12.298  0.00  0.00     0.163 HD
ENDROOT
BRANCH   1   5
HETATM    5  C           1     -36.518  -0.904 -11.028  0.00  0.00     0.185 C 
BRANCH   5   6
HETATM    6  C           1     -35.431  -1.776 -10.413  0.00  0.00     0.036 C 
BRANCH   6   7
HETATM    7  C           1     -34.289  -1.942 -11.407  0.00  0.00     0.004 C 
BRANCH   7   8
HETATM    8  C           1     -33.430  -3.132 -10.999  0.00  0.00     0.027 C 
BRANCH   8   9
HETATM    9  C           1     -33.798  -4.340 -11.851  0.00  0.00     0.229 C 
BRANCH   9  10
HETATM   10  N           1     -33.454  -4.065 -13.285  0.00  0.00    -0.079 N 
HETATM   11  H           1     -33.184  -3.061 -13.392  0.00  0.00     0.274 HD
HETATM   12  H           1     -32.654  -4.672 -13.573  0.00  0.00     0.274 HD
HETATM   13  H           1     -34.283  -4.269 -13.887  0.00  0.00     0.274 HD
ENDBRANCH   9  10
ENDBRANCH   8   9
ENDBRANCH   7   8
ENDBRANCH   6   7
ENDBRANCH   5   6
BRANCH   5  14
HETATM   14  C           1     -36.889   0.194 -10.063  0.00  0.00     0.196 C 
HETATM   15  O           1     -37.902   0.895 -10.273  0.00  0.00    -0.646 OA
HETATM   16  O           1     -36.183   0.403  -9.052  0.00  0.00    -0.646 OA
ENDBRANCH   5  14
ENDBRANCH   1   5
BRANCH   3  17
HETATM   17  C           1     -36.314   0.306 -14.657  0.00  0.00     0.275 C 
BRANCH  17  18
HETATM   18  N           1     -34.827   0.490 -14.565  0.00  0.00    -0.066 N 
HETATM   19  H           1     -34.604   1.511 -14.538  0.00  0.00     0.275 HD
HETATM   20  H           1     -34.473   0.033 -13.695  0.00  0.00     0.275 HD
HETATM   21  H           1     -34.371   0.057 -15.399  0.00  0.00     0.275 HD
ENDBRANCH  17  18
BRANCH  17  22
HETATM   22  C           1     -36.639  -0.617 -15.823  0.00  0.00     0.053 C 
BRANCH  22  23
HETATM   23  C           1     -35.426  -0.733 -16.735  0.00  0.00     0.115 C 
BRANCH  23  24
HETATM   24  C           1     -34.728  -2.046 -16.483  0.00  0.00     0.172 C 
HETATM   25  O           1     -34.907  -2.653 -15.406  0.00  0.00    -0.648 OA
HETATM   26  O           1     -33.967  -2.526 -17.352  0.00  0.00    -0.648 OA
ENDBRANCH  23  24
ENDBRANCH  22  23
ENDBRANCH  17  22
ENDBRANCH   3  17
TORSDOF 12
ENDMDL
MODEL 9
REMARK VINA RESULT:      -5.8     10.730     14.564
REMARK  12 active torsions:
REMARK  status: ('A' for Active; 'I' for Inactive)
REMARK    1  A    between atoms: N_1  and  C_11 
REMARK    2  A    between atoms: C_2  and  C_3 
REMARK    3  A    between atoms: C_2  and  C_14 
REMARK    4  A    between atoms: C_3  and  C_4 
REMARK    5  A    between atoms: C_4  and  C_11 
REMARK    6  A    between atoms: N_5  and  C_20 
REMARK    7  A    between atoms: N_6  and  C_14 
REMARK       I    between atoms: N_6  and  C_19 
REMARK    8  A    between atoms: C_13  and  C_14 
REMARK    9  A    between atoms: C_19  and  C_20 
REMARK   10  A    between atoms: C_20  and  C_21 
REMARK   11  A    between atoms: C_21  and  C_23 
REMARK   12  A    between atoms: C_23  and  C_24 
ROOT
HETATM    1  N           1     -35.232  -2.739 -11.636  0.00  0.00    -0.345 N 
HETATM    2  O           1     -34.458  -1.466  -9.973  0.00  0.00    -0.271 OA
HETATM    3  C           1     -35.221  -1.584 -10.902  0.00  0.00     0.249 C 
HETATM    4  H           1     -35.871  -2.838 -12.414  0.00  0.00     0.163 HD
ENDROOT
BRANCH   1   5
HETATM    5  C           1     -34.329  -3.822 -11.297  0.00  0.00     0.185 C 
BRANCH   5   6
HETATM    6  C           1     -35.128  -5.099 -11.077  0.00  0.00     0.036 C 
BRANCH   6   7
HETATM    7  C           1     -34.313  -6.069 -10.231  0.00  0.00     0.004 C 
BRANCH   7   8
HETATM    8  C           1     -34.990  -7.434 -10.229  0.00  0.00     0.027 C 
BRANCH   8   9
HETATM    9  C           1     -34.110  -8.436  -9.492  0.00  0.00     0.229 C 
BRANCH   9  10
HETATM   10  N           1     -33.438  -9.337 -10.486  0.00  0.00    -0.079 N 
HETATM   11  H           1     -32.689  -8.807 -10.986  0.00  0.00     0.274 HD
HETATM   12  H           1     -33.014 -10.151  -9.986  0.00  0.00     0.274 HD
HETATM   13  H           1     -34.143  -9.680 -11.177  0.00  0.00     0.274 HD
ENDBRANCH   9  10
ENDBRANCH   8   9
ENDBRANCH   7   8
ENDBRANCH   6   7
ENDBRANCH   5   6
BRANCH   5  14
HETATM   14  C           1     -33.348  -4.029 -12.425  0.00  0.00     0.196 C 
HETATM   15  O           1     -33.707  -3.847 -13.608  0.00  0.00    -0.646 OA
HETATM   16  O           1     -32.175  -4.384 -12.176  0.00  0.00    -0.646 OA
ENDBRANCH   5  14
ENDBRANCH   1   5
BRANCH   3  17
HETATM   17  C           1     -36.161  -0.458 -11.254  0.00  0.00     0.275 C 
BRANCH  17  18
HETATM   18  N           1     -36.727  -0.690 -12.624  0.00  0.00    -0.066 N 
HETATM   19  H           1     -37.771  -0.681 -12.575  0.00  0.00     0.275 HD
HETATM   20  H           1     -36.402   0.066 -13.268  0.00  0.00     0.275 HD
HETATM   21  H           1     -36.404  -1.617 -12.981  0.00  0.00     0.275 HD
ENDBRANCH  17  18
BRANCH  17  22
HETATM   22  C           1     -37.295  -0.406 -10.239  0.00  0.00     0.053 C 
BRANCH  22  23
HETATM   23  C           1     -37.284   0.943  -9.533  0.00  0.00     0.115 C 
BRANCH  23  24
HETATM   24  C           1     -37.271   0.730  -8.040  0.00  0.00     0.172 C 
HETATM   25  O           1     -37.619  -0.370  -7.561  0.00  0.00    -0.648 OA
HETATM   26  O           1     -36.912   1.656  -7.279  0.00  0.00    -0.648 OA
ENDBRANCH  23  24
ENDBRANCH  22  23
ENDBRANCH  17  22
ENDBRANCH   3  17
TORSDOF 12
ENDMDL
