MODEL 1
REMARK VINA RESULT:      -7.7      0.000      0.000
REMARK  8 active torsions:
REMARK  status: ('A' for Active; 'I' for Inactive)
REMARK    1  A    between atoms: C_4  and  C_21 
REMARK    2  A    between atoms: C_4  and  O_6 
REMARK    3  A    between atoms: N_8  and  C_22 
REMARK       I    between atoms: N_8  and  C_28 
REMARK    4  A    between atoms: C_12  and  C_14 
REMARK    5  A    between atoms: C_14  and  C_22 
REMARK    6  A    between atoms: C_17  and  C_22 
REMARK    7  A    between atoms: C_21  and  C_28 
REMARK    8  A    between atoms: C_21  and  N_26 
ROOT
HETATM    1  C           1     -21.895  -6.656  -5.547  0.00  0.00     0.190 C 
ENDROOT
BRANCH   1   2
HETATM    2  N           1     -22.401  -6.443  -4.206  0.00  0.00    -0.344 N 
HETATM    3  C           1     -21.568  -6.591  -3.128  0.00  0.00     0.251 C 
HETATM    4  O           1     -20.940  -5.646  -2.716  0.00  0.00    -0.271 OA
HETATM    5  H           1     -23.368  -6.185  -4.065  0.00  0.00     0.163 HD
BRANCH   3   6
HETATM    6  C           1     -21.436  -7.936  -2.458  0.00  0.00     0.302 C 
BRANCH   6   7
HETATM    7  C           1     -22.197  -7.923  -1.138  0.00  0.00     0.153 C 
HETATM    8  C           1     -21.245  -8.270  -0.001  0.00  0.00     0.042 C 
BRANCH   7   9
HETATM    9  O           1     -22.736  -6.647  -0.922  0.00  0.00    -0.393 OA
HETATM   10  H           1     -23.552  -6.767  -0.466  0.00  0.00     0.210 HD
ENDBRANCH   7   9
ENDBRANCH   6   7
BRANCH   6  11
HETATM   11  N           1     -19.987  -8.223  -2.195  0.00  0.00    -0.064 N 
HETATM   12  H           1     -19.672  -7.680  -1.359  0.00  0.00     0.275 HD
HETATM   13  H           1     -19.861  -9.244  -2.015  0.00  0.00     0.275 HD
HETATM   14  H           1     -19.419  -7.942  -3.025  0.00  0.00     0.275 HD
ENDBRANCH   6  11
ENDBRANCH   3   6
ENDBRANCH   1   2
BRANCH   1  15
HETATM   15  C           1     -21.224  -5.381  -6.043  0.00  0.00     0.077 C 
BRANCH  15  16
HETATM   16  C           1     -22.014  -4.812  -7.181  0.00  0.00    -0.028 A 
HETATM   17  C           1     -21.533  -4.570  -8.497  0.00  0.00    -0.002 A 
HETATM   18  C           1     -22.593  -4.037  -9.231  0.00  0.00     0.042 A 
HETATM   19  C           1     -20.291  -4.753  -9.136  0.00  0.00     0.014 A 
HETATM   20  N           1     -23.675  -3.963  -8.382  0.00  0.00    -0.365 N 
HETATM   21  C           1     -22.474  -3.678 -10.579  0.00  0.00     0.030 A 
HETATM   22  C           1     -23.335  -4.428  -7.140  0.00  0.00     0.096 A 
HETATM   23  H           1     -24.624  -3.601  -8.650  0.00  0.00     0.165 HD
HETATM   24  C           1     -21.231  -3.870 -11.191  0.00  0.00     0.002 A 
HETATM   25  C           1     -20.155  -4.399 -10.484  0.00  0.00     0.001 A 
ENDBRANCH  15  16
ENDBRANCH   1  15
BRANCH   1  26
HETATM   26  C           1     -20.889  -7.781  -5.532  0.00  0.00     0.197 C 
HETATM   27  O           1     -19.678  -7.534  -5.348  0.00  0.00    -0.646 OA
HETATM   28  O           1     -21.267  -8.960  -5.704  0.00  0.00    -0.646 OA
ENDBRANCH   1  26
TORSDOF 8
ENDMDL
MODEL 2
REMARK VINA RESULT:      -7.1      2.347      7.058
REMARK  8 active torsions:
REMARK  status: ('A' for Active; 'I' for Inactive)
REMARK    1  A    between atoms: C_4  and  C_21 
REMARK    2  A    between atoms: C_4  and  O_6 
REMARK    3  A    between atoms: N_8  and  C_22 
REMARK       I    between atoms: N_8  and  C_28 
REMARK    4  A    between atoms: C_12  and  C_14 
REMARK    5  A    between atoms: C_14  and  C_22 
REMARK    6  A    between atoms: C_17  and  C_22 
REMARK    7  A    between atoms: C_21  and  C_28 
REMARK    8  A    between atoms: C_21  and  N_26 
ROOT
HETATM    1  C           1     -20.010  -7.492  -5.300  0.00  0.00     0.190 C 
ENDROOT
BRANCH   1   2
HETATM    2  N           1     -20.060  -7.043  -6.677  0.00  0.00    -0.344 N 
HETATM    3  C           1     -20.092  -5.703  -6.959  0.00  0.00     0.251 C 
HETATM    4  O           1     -19.062  -5.093  -7.114  0.00  0.00    -0.271 OA
HETATM    5  H           1     -20.068  -7.719  -7.429  0.00  0.00     0.163 HD
BRANCH   3   6
HETATM    6  C           1     -21.416  -4.990  -7.077  0.00  0.00     0.302 C 
BRANCH   6   7
HETATM    7  C           1     -21.859  -4.978  -8.535  0.00  0.00     0.153 C 
HETATM    8  C           1     -23.115  -4.128  -8.676  0.00  0.00     0.042 C 
BRANCH   7   9
HETATM    9  O           1     -20.838  -4.438  -9.329  0.00  0.00    -0.393 OA
HETATM   10  H           1     -20.179  -4.109  -8.742  0.00  0.00     0.210 HD
ENDBRANCH   7   9
ENDBRANCH   6   7
BRANCH   6  11
HETATM   11  N           1     -21.269  -3.579  -6.590  0.00  0.00    -0.064 N 
HETATM   12  H           1     -20.276  -3.274  -6.705  0.00  0.00     0.275 HD
HETATM   13  H           1     -21.894  -2.952  -7.144  0.00  0.00     0.275 HD
HETATM   14  H           1     -21.533  -3.529  -5.580  0.00  0.00     0.275 HD
ENDBRANCH   6  11
ENDBRANCH   3   6
ENDBRANCH   1   2
BRANCH   1  15
HETATM   15  C           1     -21.399  -7.941  -4.863  0.00  0.00     0.077 C 
BRANCH  15  16
HETATM   16  C           1     -21.718  -7.350  -3.525  0.00  0.00    -0.028 A 
HETATM   17  C           1     -21.801  -8.057  -2.295  0.00  0.00    -0.002 A 
HETATM   18  C           1     -22.120  -7.125  -1.305  0.00  0.00     0.042 A 
HETATM   19  C           1     -21.636  -9.406  -1.926  0.00  0.00     0.014 A 
HETATM   20  N           1     -22.225  -5.900  -1.924  0.00  0.00    -0.365 N 
HETATM   21  C           1     -22.282  -7.477   0.039  0.00  0.00     0.030 A 
HETATM   22  C           1     -21.984  -6.024  -3.267  0.00  0.00     0.096 A 
HETATM   23  H           1     -22.456  -4.999  -1.436  0.00  0.00     0.165 HD
HETATM   24  C           1     -22.112  -8.823   0.381  0.00  0.00     0.002 A 
HETATM   25  C           1     -21.794  -9.775  -0.584  0.00  0.00     0.001 A 
ENDBRANCH  15  16
ENDBRANCH   1  15
BRANCH   1  26
HETATM   26  C           1     -19.047  -8.648  -5.182  0.00  0.00     0.197 C 
HETATM   27  O           1     -18.578  -9.178  -6.212  0.00  0.00    -0.646 OA
HETATM   28  O           1     -18.719  -9.076  -4.054  0.00  0.00    -0.646 OA
ENDBRANCH   1  26
TORSDOF 8
ENDMDL
MODEL 3
REMARK VINA RESULT:      -7.0      2.486      7.610
REMARK  8 active torsions:
REMARK  status: ('A' for Active; 'I' for Inactive)
REMARK    1  A    between atoms: C_4  and  C_21 
REMARK    2  A    between atoms: C_4  and  O_6 
REMARK    3  A    between atoms: N_8  and  C_22 
REMARK       I    between atoms: N_8  and  C_28 
REMARK    4  A    between atoms: C_12  and  C_14 
REMARK    5  A    between atoms: C_14  and  C_22 
REMARK    6  A    between atoms: C_17  and  C_22 
REMARK    7  A    between atoms: C_21  and  C_28 
REMARK    8  A    between atoms: C_21  and  N_26 
ROOT
HETATM    1  C           1     -21.191  -7.589  -5.133  0.00  0.00     0.190 C 
ENDROOT
BRANCH   1   2
HETATM    2  N           1     -20.195  -6.948  -5.969  0.00  0.00    -0.344 N 
HETATM    3  C           1     -20.384  -5.659  -6.391  0.00  0.00     0.251 C 
HETATM    4  O           1     -19.978  -4.739  -5.723  0.00  0.00    -0.271 OA
HETATM    5  H           1     -19.361  -7.452  -6.238  0.00  0.00     0.163 HD
BRANCH   3   6
HETATM    6  C           1     -21.099  -5.389  -7.692  0.00  0.00     0.302 C 
BRANCH   6   7
HETATM    7  C           1     -20.117  -4.807  -8.701  0.00  0.00     0.153 C 
HETATM    8  C           1     -20.864  -4.430  -9.974  0.00  0.00     0.042 C 
BRANCH   7   9
HETATM    9  O           1     -19.512  -3.666  -8.158  0.00  0.00    -0.393 OA
HETATM   10  H           1     -20.180  -3.005  -8.095  0.00  0.00     0.210 HD
ENDBRANCH   7   9
ENDBRANCH   6   7
BRANCH   6  11
HETATM   11  N           1     -22.211  -4.410  -7.456  0.00  0.00    -0.064 N 
HETATM   12  H           1     -21.839  -3.576  -6.948  0.00  0.00     0.275 HD
HETATM   13  H           1     -22.611  -4.110  -8.374  0.00  0.00     0.275 HD
HETATM   14  H           1     -22.959  -4.861  -6.882  0.00  0.00     0.275 HD
ENDBRANCH   6  11
ENDBRANCH   3   6
ENDBRANCH   1   2
BRANCH   1  15
HETATM   15  C           1     -20.495  -8.422  -4.064  0.00  0.00     0.077 C 
BRANCH  15  16
HETATM   16  C           1     -21.387  -9.553  -3.652  0.00  0.00    -0.028 A 
HETATM   17  C           1     -22.046  -9.687  -2.400  0.00  0.00    -0.002 A 
HETATM   18  C           1     -22.768 -10.880  -2.441  0.00  0.00     0.042 A 
HETATM   19  C           1     -22.097  -8.904  -1.230  0.00  0.00     0.014 A 
HETATM   20  N           1     -22.548 -11.443  -3.678  0.00  0.00    -0.365 N 
HETATM   21  C           1     -23.543 -11.332  -1.366  0.00  0.00     0.030 A 
HETATM   22  C           1     -21.714 -10.648  -4.419  0.00  0.00     0.096 A 
HETATM   23  H           1     -22.962 -12.350  -4.006  0.00  0.00     0.165 HD
HETATM   24  C           1     -23.578 -10.537  -0.215  0.00  0.00     0.002 A 
HETATM   25  C           1     -22.867  -9.341  -0.146  0.00  0.00     0.001 A 
ENDBRANCH  15  16
ENDBRANCH   1  15
BRANCH   1  26
HETATM   26  C           1     -22.047  -6.536  -4.473  0.00  0.00     0.197 C 
HETATM   27  O           1     -23.107  -6.160  -5.018  0.00  0.00    -0.646 OA
HETATM   28  O           1     -21.695  -6.039  -3.381  0.00  0.00    -0.646 OA
ENDBRANCH   1  26
TORSDOF 8
ENDMDL
MODEL 4
REMARK VINA RESULT:      -6.9      2.298      6.911
REMARK  8 active torsions:
REMARK  status: ('A' for Active; 'I' for Inactive)
REMARK    1  A    between atoms: C_4  and  C_21 
REMARK    2  A    between atoms: C_4  and  O_6 
REMARK    3  A    between atoms: N_8  and  C_22 
REMARK       I    between atoms: N_8  and  C_28 
REMARK    4  A    between atoms: C_12  and  C_14 
REMARK    5  A    between atoms: C_14  and  C_22 
REMARK    6  A    between atoms: C_17  and  C_22 
REMARK    7  A    between atoms: C_21  and  C_28 
REMARK    8  A    between atoms: C_21  and  N_26 
ROOT
HETATM    1  C           1     -19.834  -7.945  -5.180  0.00  0.00     0.190 C 
ENDROOT
BRANCH   1   2
HETATM    2  N           1     -19.748  -7.061  -6.325  0.00  0.00    -0.344 N 
HETATM    3  C           1     -20.338  -5.826  -6.281  0.00  0.00     0.251 C 
HETATM    4  O           1     -19.716  -4.872  -5.879  0.00  0.00    -0.271 OA
HETATM    5  H           1     -19.250  -7.354  -7.155  0.00  0.00     0.163 HD
BRANCH   3   6
HETATM    6  C           1     -21.766  -5.657  -6.737  0.00  0.00     0.302 C 
BRANCH   6   7
HETATM    7  C           1     -21.899  -4.359  -7.523  0.00  0.00     0.153 C 
HETATM    8  C           1     -21.297  -4.543  -8.910  0.00  0.00     0.042 C 
BRANCH   7   9
HETATM    9  O           1     -23.255  -4.022  -7.644  0.00  0.00    -0.393 OA
HETATM   10  H           1     -23.642  -4.134  -6.792  0.00  0.00     0.210 HD
ENDBRANCH   7   9
ENDBRANCH   6   7
BRANCH   6  11
HETATM   11  N           1     -22.670  -5.610  -5.540  0.00  0.00    -0.064 N 
HETATM   12  H           1     -22.130  -5.273  -4.710  0.00  0.00     0.275 HD
HETATM   13  H           1     -23.464  -4.957  -5.729  0.00  0.00     0.275 HD
HETATM   14  H           1     -23.044  -6.566  -5.346  0.00  0.00     0.275 HD
ENDBRANCH   6  11
ENDBRANCH   3   6
ENDBRANCH   1   2
BRANCH   1  15
HETATM   15  C           1     -21.170  -8.677  -5.205  0.00  0.00     0.077 C 
BRANCH  15  16
HETATM   16  C           1     -21.475  -9.205  -3.837  0.00  0.00    -0.028 A 
HETATM   17  C           1     -21.766  -8.426  -2.684  0.00  0.00    -0.002 A 
HETATM   18  C           1     -21.988  -9.315  -1.632  0.00  0.00     0.042 A 
HETATM   19  C           1     -21.862  -7.043  -2.434  0.00  0.00     0.014 A 
HETATM   20  N           1     -21.834 -10.586  -2.139  0.00  0.00    -0.365 N 
HETATM   21  C           1     -22.302  -8.889  -0.336  0.00  0.00     0.030 A 
HETATM   22  C           1     -21.524 -10.531  -3.472  0.00  0.00     0.096 A 
HETATM   23  H           1     -21.940 -11.470  -1.582  0.00  0.00     0.165 HD
HETATM   24  C           1     -22.392  -7.511  -0.113  0.00  0.00     0.002 A 
HETATM   25  C           1     -22.177  -6.600  -1.143  0.00  0.00     0.001 A 
ENDBRANCH  15  16
ENDBRANCH   1  15
BRANCH   1  26
HETATM   26  C           1     -18.709  -8.950  -5.236  0.00  0.00     0.197 C 
HETATM   27  O           1     -18.386  -9.467  -6.327  0.00  0.00    -0.646 OA
HETATM   28  O           1     -18.099  -9.265  -4.190  0.00  0.00    -0.646 OA
ENDBRANCH   1  26
TORSDOF 8
ENDMDL
MODEL 5
REMARK VINA RESULT:      -6.9      2.271      3.107
REMARK  8 active torsions:
REMARK  status: ('A' for Active; 'I' for Inactive)
REMARK    1  A    between atoms: C_4  and  C_21 
REMARK    2  A    between atoms: C_4  and  O_6 
REMARK    3  A    between atoms: N_8  and  C_22 
REMARK       I    between atoms: N_8  and  C_28 
REMARK    4  A    between atoms: C_12  and  C_14 
REMARK    5  A    between atoms: C_14  and  C_22 
REMARK    6  A    between atoms: C_17  and  C_22 
REMARK    7  A    between atoms: C_21  and  C_28 
REMARK    8  A    between atoms: C_21  and  N_26 
ROOT
HETATM    1  C           1     -21.124  -9.275  -4.355  0.00  0.00     0.190 C 
ENDROOT
BRANCH   1   2
HETATM    2  N           1     -20.841  -9.730  -3.008  0.00  0.00    -0.344 N 
HETATM    3  C           1     -21.624  -9.310  -1.966  0.00  0.00     0.251 C 
HETATM    4  O           1     -22.602  -9.945  -1.651  0.00  0.00    -0.271 OA
HETATM    5  H           1     -20.067 -10.358  -2.838  0.00  0.00     0.163 HD
BRANCH   3   6
HETATM    6  C           1     -21.265  -8.054  -1.212  0.00  0.00     0.302 C 
BRANCH   6   7
HETATM    7  C           1     -21.012  -8.395   0.252  0.00  0.00     0.153 C 
HETATM    8  C           1     -22.220  -7.986   1.083  0.00  0.00     0.042 C 
BRANCH   7   9
HETATM    9  O           1     -20.802  -9.775   0.381  0.00  0.00    -0.393 OA
HETATM   10  H           1     -21.066 -10.170  -0.434  0.00  0.00     0.210 HD
ENDBRANCH   7   9
ENDBRANCH   6   7
BRANCH   6  11
HETATM   11  N           1     -22.395  -7.073  -1.306  0.00  0.00    -0.064 N 
HETATM   12  H           1     -22.376  -6.610  -2.243  0.00  0.00     0.275 HD
HETATM   13  H           1     -23.304  -7.575  -1.184  0.00  0.00     0.275 HD
HETATM   14  H           1     -22.295  -6.350  -0.559  0.00  0.00     0.275 HD
ENDBRANCH   6  11
ENDBRANCH   3   6
ENDBRANCH   1   2
BRANCH   1  15
HETATM   15  C           1     -20.233  -8.085  -4.686  0.00  0.00     0.077 C 
BRANCH  15  16
HETATM   16  C           1     -21.071  -6.969  -5.230  0.00  0.00    -0.028 A 
HETATM   17  C           1     -20.654  -5.990  -6.173  0.00  0.00    -0.002 A 
HETATM   18  C           1     -21.742  -5.147  -6.400  0.00  0.00     0.042 A 
HETATM   19  C           1     -19.448  -5.739  -6.857  0.00  0.00     0.014 A 
HETATM   20  N           1     -22.778  -5.607  -5.617  0.00  0.00    -0.365 N 
HETATM   21  C           1     -21.686  -4.061  -7.281  0.00  0.00     0.030 A 
HETATM   22  C           1     -22.383  -6.708  -4.906  0.00  0.00     0.096 A 
HETATM   23  H           1     -23.734  -5.175  -5.574  0.00  0.00     0.165 HD
HETATM   24  C           1     -20.479  -3.833  -7.949  0.00  0.00     0.002 A 
HETATM   25  C           1     -19.376  -4.657  -7.743  0.00  0.00     0.001 A 
ENDBRANCH  15  16
ENDBRANCH   1  15
BRANCH   1  26
HETATM   26  C           1     -20.852 -10.394  -5.331  0.00  0.00     0.197 C 
HETATM   27  O           1     -21.640 -11.361  -5.409  0.00  0.00    -0.646 OA
HETATM   28  O           1     -19.837 -10.355  -6.060  0.00  0.00    -0.646 OA
ENDBRANCH   1  26
TORSDOF 8
ENDMDL
MODEL 6
REMARK VINA RESULT:      -6.8      4.278      8.137
REMARK  8 active torsions:
REMARK  status: ('A' for Active; 'I' for Inactive)
REMARK    1  A    between atoms: C_4  and  C_21 
REMARK    2  A    between atoms: C_4  and  O_6 
REMARK    3  A    between atoms: N_8  and  C_22 
REMARK       I    between atoms: N_8  and  C_28 
REMARK    4  A    between atoms: C_12  and  C_14 
REMARK    5  A    between atoms: C_14  and  C_22 
REMARK    6  A    between atoms: C_17  and  C_22 
REMARK    7  A    between atoms: C_21  and  C_28 
REMARK    8  A    between atoms: C_21  and  N_26 
ROOT
HETATM    1  C           1     -21.240  -7.843  -2.981  0.00  0.00     0.190 C 
ENDROOT
BRANCH   1   2
HETATM    2  N           1     -20.317  -7.992  -4.088  0.00  0.00    -0.344 N 
HETATM    3  C           1     -20.668  -8.748  -5.174  0.00  0.00     0.251 C 
HETATM    4  O           1     -21.235  -8.236  -6.110  0.00  0.00    -0.271 OA
HETATM    5  H           1     -19.415  -7.536  -4.059  0.00  0.00     0.163 HD
BRANCH   3   6
HETATM    6  C           1     -20.346 -10.222  -5.202  0.00  0.00     0.302 C 
BRANCH   6   7
HETATM    7  C           1     -18.860 -10.412  -5.482  0.00  0.00     0.153 C 
HETATM    8  C           1     -18.666 -11.629  -6.378  0.00  0.00     0.042 C 
BRANCH   7   9
HETATM    9  O           1     -18.357  -9.273  -6.126  0.00  0.00    -0.393 OA
HETATM   10  H           1     -18.732  -9.259  -6.991  0.00  0.00     0.210 HD
ENDBRANCH   7   9
ENDBRANCH   6   7
BRANCH   6  11
HETATM   11  N           1     -21.146 -10.888  -6.282  0.00  0.00    -0.064 N 
HETATM   12  H           1     -21.296 -10.216  -7.068  0.00  0.00     0.275 HD
HETATM   13  H           1     -20.629 -11.725  -6.633  0.00  0.00     0.275 HD
HETATM   14  H           1     -22.071 -11.186  -5.899  0.00  0.00     0.275 HD
ENDBRANCH   6  11
ENDBRANCH   3   6
ENDBRANCH   1   2
BRANCH   1  15
HETATM   15  C           1     -20.515  -8.138  -1.673  0.00  0.00     0.077 C 
BRANCH  15  16
HETATM   16  C           1     -20.642  -9.595  -1.350  0.00  0.00    -0.028 A 
HETATM   17  C           1     -21.793 -10.238  -0.819  0.00  0.00    -0.002 A 
HETATM   18  C           1     -21.478 -11.590  -0.672  0.00  0.00     0.042 A 
HETATM   19  C           1     -23.079  -9.799  -0.448  0.00  0.00     0.014 A 
HETATM   20  N           1     -20.179 -11.750  -1.101  0.00  0.00    -0.365 N 
HETATM   21  C           1     -22.388 -12.528  -0.170  0.00  0.00     0.030 A 
HETATM   22  C           1     -19.664 -10.550  -1.513  0.00  0.00     0.096 A 
HETATM   23  H           1     -19.660 -12.663  -1.111  0.00  0.00     0.165 HD
HETATM   24  C           1     -23.658 -12.067   0.191  0.00  0.00     0.002 A 
HETATM   25  C           1     -24.001 -10.724   0.056  0.00  0.00     0.001 A 
ENDBRANCH  15  16
ENDBRANCH   1  15
BRANCH   1  26
HETATM   26  C           1     -21.770  -6.430  -2.954  0.00  0.00     0.197 C 
HETATM   27  O           1     -22.553  -6.073  -2.048  0.00  0.00    -0.646 OA
HETATM   28  O           1     -21.426  -5.617  -3.840  0.00  0.00    -0.646 OA
ENDBRANCH   1  26
TORSDOF 8
ENDMDL
MODEL 7
REMARK VINA RESULT:      -6.8      2.408      4.028
REMARK  8 active torsions:
REMARK  status: ('A' for Active; 'I' for Inactive)
REMARK    1  A    between atoms: C_4  and  C_21 
REMARK    2  A    between atoms: C_4  and  O_6 
REMARK    3  A    between atoms: N_8  and  C_22 
REMARK       I    between atoms: N_8  and  C_28 
REMARK    4  A    between atoms: C_12  and  C_14 
REMARK    5  A    between atoms: C_14  and  C_22 
REMARK    6  A    between atoms: C_17  and  C_22 
REMARK    7  A    between atoms: C_21  and  C_28 
REMARK    8  A    between atoms: C_21  and  N_26 
ROOT
HETATM    1  C           1     -21.422  -7.452  -3.690  0.00  0.00     0.190 C 
ENDROOT
BRANCH   1   2
HETATM    2  N           1     -21.850  -8.836  -3.729  0.00  0.00    -0.344 N 
HETATM    3  C           1     -20.959  -9.818  -4.075  0.00  0.00     0.251 C 
HETATM    4  O           1     -20.298 -10.361  -3.223  0.00  0.00    -0.271 OA
HETATM    5  H           1     -22.804  -9.077  -3.499  0.00  0.00     0.163 HD
BRANCH   3   6
HETATM    6  C           1     -20.806 -10.220  -5.521  0.00  0.00     0.302 C 
BRANCH   6   7
HETATM    7  C           1     -21.530 -11.539  -5.761  0.00  0.00     0.153 C 
HETATM    8  C           1     -20.509 -12.636  -6.028  0.00  0.00     0.042 C 
BRANCH   7   9
HETATM    9  O           1     -22.286 -11.870  -4.628  0.00  0.00    -0.393 OA
HETATM   10  H           1     -22.044 -12.748  -4.384  0.00  0.00     0.210 HD
ENDBRANCH   7   9
ENDBRANCH   6   7
BRANCH   6  11
HETATM   11  N           1     -19.350 -10.385  -5.841  0.00  0.00    -0.064 N 
HETATM   12  H           1     -19.221 -11.227  -6.447  0.00  0.00     0.275 HD
HETATM   13  H           1     -19.005  -9.537  -6.345  0.00  0.00     0.275 HD
HETATM   14  H           1     -18.809 -10.509  -4.956  0.00  0.00     0.275 HD
ENDBRANCH   6  11
ENDBRANCH   3   6
ENDBRANCH   1   2
BRANCH   1  15
HETATM   15  C           1     -22.216  -6.647  -4.711  0.00  0.00     0.077 C 
BRANCH  15  16
HETATM   16  C           1     -21.327  -6.281  -5.860  0.00  0.00    -0.028 A 
HETATM   17  C           1     -21.666  -5.423  -6.941  0.00  0.00    -0.002 A 
HETATM   18  C           1     -20.553  -5.359  -7.780  0.00  0.00     0.042 A 
HETATM   19  C           1     -22.819  -4.691  -7.289  0.00  0.00     0.014 A 
HETATM   20  N           1     -19.579  -6.154  -7.219  0.00  0.00    -0.365 N 
HETATM   21  C           1     -20.534  -4.597  -8.954  0.00  0.00     0.030 A 
HETATM   22  C           1     -20.037  -6.717  -6.057  0.00  0.00     0.096 A 
HETATM   23  H           1     -18.622  -6.306  -7.624  0.00  0.00     0.165 HD
HETATM   24  C           1     -21.690  -3.879  -9.277  0.00  0.00     0.002 A 
HETATM   25  C           1     -22.816  -3.923  -8.459  0.00  0.00     0.001 A 
ENDBRANCH  15  16
ENDBRANCH   1  15
BRANCH   1  26
HETATM   26  C           1     -21.661  -6.890  -2.310  0.00  0.00     0.197 C 
HETATM   27  O           1     -21.205  -7.480  -1.307  0.00  0.00    -0.646 OA
HETATM   28  O           1     -22.317  -5.835  -2.169  0.00  0.00    -0.646 OA
ENDBRANCH   1  26
TORSDOF 8
ENDMDL
MODEL 8
REMARK VINA RESULT:      -6.7      3.137      6.884
REMARK  8 active torsions:
REMARK  status: ('A' for Active; 'I' for Inactive)
REMARK    1  A    between atoms: C_4  and  C_21 
REMARK    2  A    between atoms: C_4  and  O_6 
REMARK    3  A    between atoms: N_8  and  C_22 
REMARK       I    between atoms: N_8  and  C_28 
REMARK    4  A    between atoms: C_12  and  C_14 
REMARK    5  A    between atoms: C_14  and  C_22 
REMARK    6  A    between atoms: C_17  and  C_22 
REMARK    7  A    between atoms: C_21  and  C_28 
REMARK    8  A    between atoms: C_21  and  N_26 
ROOT
HETATM    1  C           1     -21.210  -7.828  -2.118  0.00  0.00     0.190 C 
ENDROOT
BRANCH   1   2
HETATM    2  N           1     -21.024  -6.618  -2.894  0.00  0.00    -0.344 N 
HETATM    3  C           1     -21.450  -6.568  -4.195  0.00  0.00     0.251 C 
HETATM    4  O           1     -22.571  -6.198  -4.450  0.00  0.00    -0.271 OA
HETATM    5  H           1     -20.582  -5.811  -2.475  0.00  0.00     0.163 HD
BRANCH   3   6
HETATM    6  C           1     -20.518  -6.974  -5.309  0.00  0.00     0.302 C 
BRANCH   6   7
HETATM    7  C           1     -20.091  -5.737  -6.091  0.00  0.00     0.153 C 
HETATM    8  C           1     -20.880  -5.662  -7.391  0.00  0.00     0.042 C 
BRANCH   7   9
HETATM    9  O           1     -20.343  -4.590  -5.325  0.00  0.00    -0.393 OA
HETATM   10  H           1     -20.898  -4.032  -5.843  0.00  0.00     0.210 HD
ENDBRANCH   7   9
ENDBRANCH   6   7
BRANCH   6  11
HETATM   11  N           1     -21.224  -7.925  -6.229  0.00  0.00    -0.064 N 
HETATM   12  H           1     -21.482  -8.791  -5.703  0.00  0.00     0.275 HD
HETATM   13  H           1     -22.088  -7.473  -6.603  0.00  0.00     0.275 HD
HETATM   14  H           1     -20.593  -8.178  -7.023  0.00  0.00     0.275 HD
ENDBRANCH   6  11
ENDBRANCH   3   6
ENDBRANCH   1   2
BRANCH   1  15
HETATM   15  C           1     -19.852  -8.440  -1.800  0.00  0.00     0.077 C 
BRANCH  15  16
HETATM   16  C           1     -19.508  -9.460  -2.841  0.00  0.00    -0.028 A 
HETATM   17  C           1     -18.199  -9.802  -3.279  0.00  0.00    -0.002 A 
HETATM   18  C           1     -18.337 -10.792  -4.253  0.00  0.00     0.042 A 
HETATM   19  C           1     -16.905  -9.362  -2.938  0.00  0.00     0.014 A 
HETATM   20  N           1     -19.685 -11.034  -4.394  0.00  0.00    -0.365 N 
HETATM   21  C           1     -17.240 -11.366  -4.906  0.00  0.00     0.030 A 
HETATM   22  C           1     -20.402 -10.234  -3.544  0.00  0.00     0.096 A 
HETATM   23  H           1     -20.102 -11.733  -5.057  0.00  0.00     0.165 HD
HETATM   24  C           1     -15.966 -10.913  -4.551  0.00  0.00     0.002 A 
HETATM   25  C           1     -15.797  -9.927  -3.582  0.00  0.00     0.001 A 
ENDBRANCH  15  16
ENDBRANCH   1  15
BRANCH   1  26
HETATM   26  C           1     -21.925  -7.494  -0.831  0.00  0.00     0.197 C 
HETATM   27  O           1     -21.598  -8.064   0.232  0.00  0.00    -0.646 OA
HETATM   28  O           1     -22.846  -6.648  -0.829  0.00  0.00    -0.646 OA
ENDBRANCH   1  26
TORSDOF 8
ENDMDL
MODEL 9
REMARK VINA RESULT:      -6.7      4.282      7.651
REMARK  8 active torsions:
REMARK  status: ('A' for Active; 'I' for Inactive)
REMARK    1  A    between atoms: C_4  and  C_21 
REMARK    2  A    between atoms: C_4  and  O_6 
REMARK    3  A    between atoms: N_8  and  C_22 
REMARK       I    between atoms: N_8  and  C_28 
REMARK    4  A    between atoms: C_12  and  C_14 
REMARK    5  A    between atoms: C_14  and  C_22 
REMARK    6  A    between atoms: C_17  and  C_22 
REMARK    7  A    between atoms: C_21  and  C_28 
REMARK    8  A    between atoms: C_21  and  N_26 
ROOT
HETATM    1  C           1     -21.205  -7.706  -3.018  0.00  0.00     0.190 C 
ENDROOT
BRANCH   1   2
HETATM    2  N           1     -20.013  -7.836  -3.833  0.00  0.00    -0.344 N 
HETATM    3  C           1     -20.036  -8.616  -4.958  0.00  0.00     0.251 C 
HETATM    4  O           1     -20.345  -8.135  -6.022  0.00  0.00    -0.271 OA
HETATM    5  H           1     -19.167  -7.349  -3.572  0.00  0.00     0.163 HD
BRANCH   3   6
HETATM    6  C           1     -19.674 -10.078  -4.868  0.00  0.00     0.302 C 
BRANCH   6   7
HETATM    7  C           1     -18.164 -10.220  -4.725  0.00  0.00     0.153 C 
HETATM    8  C           1     -17.487  -9.764  -6.011  0.00  0.00     0.042 C 
BRANCH   7   9
HETATM    9  O           1     -17.720  -9.427  -3.657  0.00  0.00    -0.393 OA
HETATM   10  H           1     -17.555  -8.567  -4.005  0.00  0.00     0.210 HD
ENDBRANCH   7   9
ENDBRANCH   6   7
BRANCH   6  11
HETATM   11  N           1     -20.124 -10.782  -6.114  0.00  0.00    -0.064 N 
HETATM   12  H           1     -20.645 -11.650  -5.854  0.00  0.00     0.275 HD
HETATM   13  H           1     -20.750 -10.151  -6.664  0.00  0.00     0.275 HD
HETATM   14  H           1     -19.292 -11.037  -6.692  0.00  0.00     0.275 HD
ENDBRANCH   6  11
ENDBRANCH   3   6
ENDBRANCH   1   2
BRANCH   1  15
HETATM   15  C           1     -20.835  -7.874  -1.550  0.00  0.00     0.077 C 
BRANCH  15  16
HETATM   16  C           1     -21.978  -8.505  -0.816  0.00  0.00    -0.028 A 
HETATM   17  C           1     -22.473  -9.824  -1.010  0.00  0.00    -0.002 A 
HETATM   18  C           1     -23.538  -9.998  -0.125  0.00  0.00     0.042 A 
HETATM   19  C           1     -22.115 -10.890  -1.858  0.00  0.00     0.014 A 
HETATM   20  N           1     -23.676  -8.821   0.576  0.00  0.00    -0.365 N 
HETATM   21  C           1     -24.266 -11.191  -0.045  0.00  0.00     0.030 A 
HETATM   22  C           1     -22.738  -7.911   0.166  0.00  0.00     0.096 A 
HETATM   23  H           1     -24.397  -8.648   1.319  0.00  0.00     0.165 HD
HETATM   24  C           1     -23.892 -12.235  -0.897  0.00  0.00     0.002 A 
HETATM   25  C           1     -22.833 -12.090  -1.790  0.00  0.00     0.001 A 
ENDBRANCH  15  16
ENDBRANCH   1  15
BRANCH   1  26
HETATM   26  C           1     -21.813  -6.341  -3.231  0.00  0.00     0.197 C 
HETATM   27  O           1     -21.956  -5.563  -2.263  0.00  0.00    -0.646 OA
HETATM   28  O           1     -22.174  -5.989  -4.375  0.00  0.00    -0.646 OA
ENDBRANCH   1  26
TORSDOF 8
ENDMDL
