MODEL 1
REMARK VINA RESULT:      -5.9      0.000      0.000
REMARK  9 active torsions:
REMARK  status: ('A' for Active; 'I' for Inactive)
REMARK    1  A    between atoms: C_1  and  C_12 
REMARK    2  A    between atoms: C_1  and  C_5 
REMARK    3  A    between atoms: C_2  and  Se_10 
REMARK    4  A    between atoms: C_2  and  C_14 
REMARK    5  A    between atoms: N_8  and  C_12 
REMARK    6  A    between atoms: N_11  and  C_20 
REMARK       I    between atoms: N_11  and  C_19 
REMARK    7  A    between atoms: C_12  and  C_19 
REMARK    8  A    between atoms: C_14  and  C_20 
REMARK    9  A    between atoms: C_18  and  C_20 
ROOT
HETATM    1  H           1     -35.351  -0.713 -11.257  0.00  0.00     0.163 HD
HETATM    2  N           1     -35.420  -1.132 -12.176  0.00  0.00    -0.345 N 
HETATM    3  O           1     -34.746  -2.729 -13.583  0.00  0.00    -0.271 OA
HETATM    4  C           1     -34.662  -2.229 -12.487  0.00  0.00     0.249 C 
ENDROOT
BRANCH   4   5
HETATM    5  C           1     -33.725  -2.815 -11.460  0.00  0.00     0.275 C 
BRANCH   5   6
HETATM    6  C           1     -34.428  -3.943 -10.716  0.00  0.00     0.046 C 
BRANCH   6   7
HETATM    7  C           1     -34.036  -5.280 -11.330  0.00  0.00    -0.020 C 
HETATM    8  C           1     -32.555  -5.262 -11.684  0.00  0.00     0.009 C 
HETATM    9  C           1     -34.305  -6.397 -10.330  0.00  0.00     0.009 C 
ENDBRANCH   6   7
ENDBRANCH   5   6
BRANCH   5  10
HETATM   10  N           1     -33.322  -1.749 -10.486  0.00  0.00    -0.066 N 
HETATM   11  H           1     -32.948  -2.193  -9.617  0.00  0.00     0.275 HD
HETATM   12  H           1     -34.154  -1.164 -10.247  0.00  0.00     0.275 HD
HETATM   13  H           1     -32.583  -1.146 -10.914  0.00  0.00     0.275 HD
ENDBRANCH   5  10
ENDBRANCH   4   5
BRANCH   2  14
HETATM   14  C           1     -36.321  -0.569 -13.163  0.00  0.00     0.185 C 
BRANCH  14  15
HETATM   15  C           1     -37.551  -0.007 -12.464  0.00  0.00     0.036 C 
BRANCH  15  16
HETATM   16  C           1     -37.625  -0.556 -11.045  0.00  0.00     0.003 C 
BRANCH  16  17
HETATM   17 Se           1     -37.369   0.897  -9.771  0.00  0.00     0.000 Se
HETATM   18  C           1     -37.458  -0.250  -8.197  0.00  0.00     0.000 C 
ENDBRANCH  16  17
ENDBRANCH  15  16
ENDBRANCH  14  15
BRANCH  14  19
HETATM   19  C           1     -35.618   0.537 -13.912  0.00  0.00     0.196 C 
HETATM   20  O           1     -35.985   0.839 -15.069  0.00  0.00    -0.646 OA
HETATM   21  O           1     -34.670   1.149 -13.377  0.00  0.00    -0.646 OA
ENDBRANCH  14  19
ENDBRANCH   2  14
TORSDOF 9
ENDMDL
MODEL 2
REMARK VINA RESULT:      -5.6      4.311      5.883
REMARK  9 active torsions:
REMARK  status: ('A' for Active; 'I' for Inactive)
REMARK    1  A    between atoms: C_1  and  C_12 
REMARK    2  A    between atoms: C_1  and  C_5 
REMARK    3  A    between atoms: C_2  and  Se_10 
REMARK    4  A    between atoms: C_2  and  C_14 
REMARK    5  A    between atoms: N_8  and  C_12 
REMARK    6  A    between atoms: N_11  and  C_20 
REMARK       I    between atoms: N_11  and  C_19 
REMARK    7  A    between atoms: C_12  and  C_19 
REMARK    8  A    between atoms: C_14  and  C_20 
REMARK    9  A    between atoms: C_18  and  C_20 
ROOT
HETATM    1  H           1     -32.378  -3.652 -14.235  0.00  0.00     0.163 HD
HETATM    2  N           1     -33.321  -4.019 -14.244  0.00  0.00    -0.345 N 
HETATM    3  O           1     -34.981  -4.941 -15.419  0.00  0.00    -0.271 OA
HETATM    4  C           1     -33.856  -4.503 -15.409  0.00  0.00     0.249 C 
ENDROOT
BRANCH   4   5
HETATM    5  C           1     -33.039  -4.490 -16.677  0.00  0.00     0.275 C 
BRANCH   5   6
HETATM    6  C           1     -31.566  -4.675 -16.334  0.00  0.00     0.046 C 
BRANCH   6   7
HETATM    7  C           1     -30.768  -4.881 -17.615  0.00  0.00    -0.020 C 
HETATM    8  C           1     -29.621  -3.881 -17.666  0.00  0.00     0.009 C 
HETATM    9  C           1     -30.208  -6.297 -17.641  0.00  0.00     0.009 C 
ENDBRANCH   6   7
ENDBRANCH   5   6
BRANCH   5  10
HETATM   10  N           1     -33.228  -3.178 -17.379  0.00  0.00    -0.066 N 
HETATM   11  H           1     -32.535  -3.097 -18.158  0.00  0.00     0.275 HD
HETATM   12  H           1     -33.083  -2.397 -16.701  0.00  0.00     0.275 HD
HETATM   13  H           1     -34.196  -3.128 -17.769  0.00  0.00     0.275 HD
ENDBRANCH   5  10
ENDBRANCH   4   5
BRANCH   2  14
HETATM   14  C           1     -34.106  -4.032 -13.025  0.00  0.00     0.185 C 
BRANCH  14  15
HETATM   15  C           1     -33.177  -4.159 -11.826  0.00  0.00     0.036 C 
BRANCH  15  16
HETATM   16  C           1     -33.234  -5.582 -11.287  0.00  0.00     0.003 C 
BRANCH  16  17
HETATM   17 Se           1     -34.911  -5.849 -10.330  0.00  0.00     0.000 Se
HETATM   18  C           1     -34.686  -7.776 -10.141  0.00  0.00     0.000 C 
ENDBRANCH  16  17
ENDBRANCH  15  16
ENDBRANCH  14  15
BRANCH  14  19
HETATM   19  C           1     -34.893  -2.748 -12.920  0.00  0.00     0.196 C 
HETATM   20  O           1     -35.646  -2.555 -11.942  0.00  0.00    -0.646 OA
HETATM   21  O           1     -34.790  -1.879 -13.812  0.00  0.00    -0.646 OA
ENDBRANCH  14  19
ENDBRANCH   2  14
TORSDOF 9
ENDMDL
MODEL 3
REMARK VINA RESULT:      -5.6     11.215     13.243
REMARK  9 active torsions:
REMARK  status: ('A' for Active; 'I' for Inactive)
REMARK    1  A    between atoms: C_1  and  C_12 
REMARK    2  A    between atoms: C_1  and  C_5 
REMARK    3  A    between atoms: C_2  and  Se_10 
REMARK    4  A    between atoms: C_2  and  C_14 
REMARK    5  A    between atoms: N_8  and  C_12 
REMARK    6  A    between atoms: N_11  and  C_20 
REMARK       I    between atoms: N_11  and  C_19 
REMARK    7  A    between atoms: C_12  and  C_19 
REMARK    8  A    between atoms: C_14  and  C_20 
REMARK    9  A    between atoms: C_18  and  C_20 
ROOT
HETATM    1  H           1     -27.243  -7.134 -18.637  0.00  0.00     0.163 HD
HETATM    2  N           1     -26.371  -6.769 -18.276  0.00  0.00    -0.345 N 
HETATM    3  O           1     -24.159  -6.571 -18.515  0.00  0.00    -0.271 OA
HETATM    4  C           1     -25.200  -7.006 -18.946  0.00  0.00     0.249 C 
ENDROOT
BRANCH   4   5
HETATM    5  C           1     -25.211  -7.810 -20.223  0.00  0.00     0.275 C 
BRANCH   5   6
HETATM    6  C           1     -24.100  -7.319 -21.142  0.00  0.00     0.046 C 
BRANCH   6   7
HETATM    7  C           1     -23.118  -8.453 -21.404  0.00  0.00    -0.020 C 
HETATM    8  C           1     -22.848  -8.557 -22.899  0.00  0.00     0.009 C 
HETATM    9  C           1     -21.813  -8.174 -20.671  0.00  0.00     0.009 C 
ENDBRANCH   6   7
ENDBRANCH   5   6
BRANCH   5  10
HETATM   10  N           1     -26.535  -7.644 -20.906  0.00  0.00    -0.066 N 
HETATM   11  H           1     -26.442  -7.901 -21.915  0.00  0.00     0.275 HD
HETATM   12  H           1     -26.844  -6.649 -20.828  0.00  0.00     0.275 HD
HETATM   13  H           1     -27.242  -8.266 -20.453  0.00  0.00     0.275 HD
ENDBRANCH   5  10
ENDBRANCH   4   5
BRANCH   2  14
HETATM   14  C           1     -26.360  -5.996 -17.049  0.00  0.00     0.185 C 
BRANCH  14  15
HETATM   15  C           1     -27.609  -5.128 -16.986  0.00  0.00     0.036 C 
BRANCH  15  16
HETATM   16  C           1     -28.466  -5.381 -18.219  0.00  0.00     0.003 C 
BRANCH  16  17
HETATM   17 Se           1     -30.043  -6.411 -17.717  0.00  0.00     0.000 Se
HETATM   18  C           1     -30.435  -5.346 -16.133  0.00  0.00     0.000 C 
ENDBRANCH  16  17
ENDBRANCH  15  16
ENDBRANCH  14  15
BRANCH  14  19
HETATM   19  C           1     -26.337  -6.932 -15.865  0.00  0.00     0.196 C 
HETATM   20  O           1     -27.409  -7.315 -15.350  0.00  0.00    -0.646 OA
HETATM   21  O           1     -25.245  -7.324 -15.401  0.00  0.00    -0.646 OA
ENDBRANCH  14  19
ENDBRANCH   2  14
TORSDOF 9
ENDMDL
MODEL 4
REMARK VINA RESULT:      -5.3     10.029     11.884
REMARK  9 active torsions:
REMARK  status: ('A' for Active; 'I' for Inactive)
REMARK    1  A    between atoms: C_1  and  C_12 
REMARK    2  A    between atoms: C_1  and  C_5 
REMARK    3  A    between atoms: C_2  and  Se_10 
REMARK    4  A    between atoms: C_2  and  C_14 
REMARK    5  A    between atoms: N_8  and  C_12 
REMARK    6  A    between atoms: N_11  and  C_20 
REMARK       I    between atoms: N_11  and  C_19 
REMARK    7  A    between atoms: C_12  and  C_19 
REMARK    8  A    between atoms: C_14  and  C_20 
REMARK    9  A    between atoms: C_18  and  C_20 
ROOT
HETATM    1  H           1     -27.495  -6.643 -19.701  0.00  0.00     0.163 HD
HETATM    2  N           1     -27.408  -6.437 -18.714  0.00  0.00    -0.345 N 
HETATM    3  O           1     -26.064  -6.078 -16.967  0.00  0.00    -0.271 OA
HETATM    4  C           1     -26.167  -6.323 -18.145  0.00  0.00     0.249 C 
ENDROOT
BRANCH   4   5
HETATM    5  C           1     -24.930  -6.503 -18.990  0.00  0.00     0.275 C 
BRANCH   5   6
HETATM    6  C           1     -25.320  -6.526 -20.462  0.00  0.00     0.046 C 
BRANCH   6   7
HETATM    7  C           1     -25.138  -7.933 -21.014  0.00  0.00    -0.020 C 
HETATM    8  C           1     -26.493  -8.501 -21.417  0.00  0.00     0.009 C 
HETATM    9  C           1     -24.226  -7.887 -22.233  0.00  0.00     0.009 C 
ENDBRANCH   6   7
ENDBRANCH   5   6
BRANCH   5  10
HETATM   10  N           1     -24.263  -7.797 -18.629  0.00  0.00    -0.066 N 
HETATM   11  H           1     -23.228  -7.656 -18.586  0.00  0.00     0.275 HD
HETATM   12  H           1     -24.487  -8.517 -19.352  0.00  0.00     0.275 HD
HETATM   13  H           1     -24.608  -8.119 -17.697  0.00  0.00     0.275 HD
ENDBRANCH   5  10
ENDBRANCH   4   5
BRANCH   2  14
HETATM   14  C           1     -28.597  -6.264 -17.902  0.00  0.00     0.185 C 
BRANCH  14  15
HETATM   15  C           1     -29.421  -5.108 -18.450  0.00  0.00     0.036 C 
BRANCH  15  16
HETATM   16  C           1     -29.889  -4.227 -17.299  0.00  0.00     0.003 C 
BRANCH  16  17
HETATM   17 Se           1     -31.611  -4.867 -16.648  0.00  0.00     0.000 Se
HETATM   18  C           1     -32.642  -3.439 -17.482  0.00  0.00     0.000 C 
ENDBRANCH  16  17
ENDBRANCH  15  16
ENDBRANCH  14  15
BRANCH  14  19
HETATM   19  C           1     -29.418  -7.530 -17.937  0.00  0.00     0.196 C 
HETATM   20  O           1     -30.072  -7.822 -18.962  0.00  0.00    -0.646 OA
HETATM   21  O           1     -29.445  -8.285 -16.942  0.00  0.00    -0.646 OA
ENDBRANCH  14  19
ENDBRANCH   2  14
TORSDOF 9
ENDMDL
MODEL 5
REMARK VINA RESULT:      -5.1     14.918     17.457
REMARK  9 active torsions:
REMARK  status: ('A' for Active; 'I' for Inactive)
REMARK    1  A    between atoms: C_1  and  C_12 
REMARK    2  A    between atoms: C_1  and  C_5 
REMARK    3  A    between atoms: C_2  and  Se_10 
REMARK    4  A    between atoms: C_2  and  C_14 
REMARK    5  A    between atoms: N_8  and  C_12 
REMARK    6  A    between atoms: N_11  and  C_20 
REMARK       I    between atoms: N_11  and  C_19 
REMARK    7  A    between atoms: C_12  and  C_19 
REMARK    8  A    between atoms: C_14  and  C_20 
REMARK    9  A    between atoms: C_18  and  C_20 
ROOT
HETATM    1  H           1     -19.923  -6.496  -4.923  0.00  0.00     0.163 HD
HETATM    2  N           1     -20.934  -6.531  -4.891  0.00  0.00    -0.345 N 
HETATM    3  O           1     -22.880  -5.745  -5.655  0.00  0.00    -0.271 OA
HETATM    4  C           1     -21.674  -5.703  -5.694  0.00  0.00     0.249 C 
ENDROOT
BRANCH   4   5
HETATM    5  C           1     -20.981  -4.741  -6.628  0.00  0.00     0.275 C 
BRANCH   5   6
HETATM    6  C           1     -21.077  -5.262  -8.056  0.00  0.00     0.046 C 
BRANCH   6   7
HETATM    7  C           1     -21.244  -4.091  -9.014  0.00  0.00    -0.020 C 
HETATM    8  C           1     -20.478  -4.372 -10.300  0.00  0.00     0.009 C 
HETATM    9  C           1     -22.721  -3.904  -9.335  0.00  0.00     0.009 C 
ENDBRANCH   6   7
ENDBRANCH   5   6
BRANCH   5  10
HETATM   10  N           1     -19.539  -4.617  -6.237  0.00  0.00    -0.066 N 
HETATM   11  H           1     -18.934  -4.943  -7.025  0.00  0.00     0.275 HD
HETATM   12  H           1     -19.356  -5.204  -5.392  0.00  0.00     0.275 HD
HETATM   13  H           1     -19.321  -3.618  -6.021  0.00  0.00     0.275 HD
ENDBRANCH   5  10
ENDBRANCH   4   5
BRANCH   2  14
HETATM   14  C           1     -21.600  -7.455  -3.994  0.00  0.00     0.185 C 
BRANCH  14  15
HETATM   15  C           1     -20.870  -8.791  -4.010  0.00  0.00     0.036 C 
BRANCH  15  16
HETATM   16  C           1     -19.593  -8.663  -4.829  0.00  0.00     0.003 C 
BRANCH  16  17
HETATM   17 Se           1     -18.454 -10.211  -4.506  0.00  0.00     0.000 Se
HETATM   18  C           1     -17.605  -9.461  -2.920  0.00  0.00     0.000 C 
ENDBRANCH  16  17
ENDBRANCH  15  16
ENDBRANCH  14  15
BRANCH  14  19
HETATM   19  C           1     -21.589  -6.892  -2.593  0.00  0.00     0.196 C 
HETATM   20  O           1     -22.349  -5.947  -2.294  0.00  0.00    -0.646 OA
HETATM   21  O           1     -20.819  -7.372  -1.734  0.00  0.00    -0.646 OA
ENDBRANCH  14  19
ENDBRANCH   2  14
TORSDOF 9
ENDMDL
MODEL 6
REMARK VINA RESULT:      -5.1     14.360     16.587
REMARK  9 active torsions:
REMARK  status: ('A' for Active; 'I' for Inactive)
REMARK    1  A    between atoms: C_1  and  C_12 
REMARK    2  A    between atoms: C_1  and  C_5 
REMARK    3  A    between atoms: C_2  and  Se_10 
REMARK    4  A    between atoms: C_2  and  C_14 
REMARK    5  A    between atoms: N_8  and  C_12 
REMARK    6  A    between atoms: N_11  and  C_20 
REMARK       I    between atoms: N_11  and  C_19 
REMARK    7  A    between atoms: C_12  and  C_19 
REMARK    8  A    between atoms: C_14  and  C_20 
REMARK    9  A    between atoms: C_18  and  C_20 
ROOT
HETATM    1  H           1     -22.477  -7.003  -6.410  0.00  0.00     0.163 HD
HETATM    2  N           1     -21.753  -6.399  -6.042  0.00  0.00    -0.345 N 
HETATM    3  O           1     -20.597  -4.497  -6.232  0.00  0.00    -0.271 OA
HETATM    4  C           1     -21.461  -5.218  -6.672  0.00  0.00     0.249 C 
ENDROOT
BRANCH   4   5
HETATM    5  C           1     -22.219  -4.817  -7.913  0.00  0.00     0.275 C 
BRANCH   5   6
HETATM    6  C           1     -21.335  -3.935  -8.786  0.00  0.00     0.046 C 
BRANCH   6   7
HETATM    7  C           1     -21.385  -4.430 -10.224  0.00  0.00    -0.020 C 
HETATM    8  C           1     -22.560  -3.784 -10.945  0.00  0.00     0.009 C 
HETATM    9  C           1     -20.089  -4.059 -10.934  0.00  0.00     0.009 C 
ENDBRANCH   6   7
ENDBRANCH   5   6
BRANCH   5  10
HETATM   10  N           1     -23.452  -4.058  -7.522  0.00  0.00    -0.066 N 
HETATM   11  H           1     -23.544  -4.055  -6.481  0.00  0.00     0.275 HD
HETATM   12  H           1     -24.291  -4.516  -7.944  0.00  0.00     0.275 HD
HETATM   13  H           1     -23.380  -3.075  -7.868  0.00  0.00     0.275 HD
ENDBRANCH   5  10
ENDBRANCH   4   5
BRANCH   2  14
HETATM   14  C           1     -21.025  -6.784  -4.849  0.00  0.00     0.185 C 
BRANCH  14  15
HETATM   15  C           1     -21.978  -6.821  -3.663  0.00  0.00     0.036 C 
BRANCH  15  16
HETATM   16  C           1     -21.223  -6.455  -2.392  0.00  0.00     0.003 C 
BRANCH  16  17
HETATM   17 Se           1     -21.136  -8.007  -1.216  0.00  0.00     0.000 Se
HETATM   18  C           1     -22.677  -7.485  -0.144  0.00  0.00     0.000 C 
ENDBRANCH  16  17
ENDBRANCH  15  16
ENDBRANCH  14  15
BRANCH  14  19
HETATM   19  C           1     -20.417  -8.151  -5.050  0.00  0.00     0.196 C 
HETATM   20  O           1     -19.328  -8.268  -5.653  0.00  0.00    -0.646 OA
HETATM   21  O           1     -21.003  -9.164  -4.614  0.00  0.00    -0.646 OA
ENDBRANCH  14  19
ENDBRANCH   2  14
TORSDOF 9
ENDMDL
MODEL 7
REMARK VINA RESULT:      -5.0     16.054     18.200
REMARK  9 active torsions:
REMARK  status: ('A' for Active; 'I' for Inactive)
REMARK    1  A    between atoms: C_1  and  C_12 
REMARK    2  A    between atoms: C_1  and  C_5 
REMARK    3  A    between atoms: C_2  and  Se_10 
REMARK    4  A    between atoms: C_2  and  C_14 
REMARK    5  A    between atoms: N_8  and  C_12 
REMARK    6  A    between atoms: N_11  and  C_20 
REMARK       I    between atoms: N_11  and  C_19 
REMARK    7  A    between atoms: C_12  and  C_19 
REMARK    8  A    between atoms: C_14  and  C_20 
REMARK    9  A    between atoms: C_18  and  C_20 
ROOT
HETATM    1  H           1     -20.255  -7.137  -2.381  0.00  0.00     0.163 HD
HETATM    2  N           1     -20.938  -7.833  -2.651  0.00  0.00    -0.345 N 
HETATM    3  O           1     -21.901  -9.002  -4.292  0.00  0.00    -0.271 OA
HETATM    4  C           1     -21.087  -8.170  -3.970  0.00  0.00     0.249 C 
ENDROOT
BRANCH   4   5
HETATM    5  C           1     -20.233  -7.504  -5.020  0.00  0.00     0.275 C 
BRANCH   5   6
HETATM    6  C           1     -21.128  -6.904  -6.097  0.00  0.00     0.046 C 
BRANCH   6   7
HETATM    7  C           1     -21.322  -5.418  -5.827  0.00  0.00    -0.020 C 
HETATM    8  C           1     -19.964  -4.739  -5.715  0.00  0.00     0.009 C 
HETATM    9  C           1     -22.108  -4.792  -6.972  0.00  0.00     0.009 C 
ENDBRANCH   6   7
ENDBRANCH   5   6
BRANCH   5  10
HETATM   10  N           1     -19.319  -8.519  -5.639  0.00  0.00    -0.066 N 
HETATM   11  H           1     -19.810  -8.994  -6.429  0.00  0.00     0.275 HD
HETATM   12  H           1     -19.049  -9.228  -4.920  0.00  0.00     0.275 HD
HETATM   13  H           1     -18.461  -8.043  -5.998  0.00  0.00     0.275 HD
ENDBRANCH   5  10
ENDBRANCH   4   5
BRANCH   2  14
HETATM   14  C           1     -21.759  -8.473  -1.642  0.00  0.00     0.185 C 
BRANCH  14  15
HETATM   15  C           1     -20.885  -9.362  -0.767  0.00  0.00     0.036 C 
BRANCH  15  16
HETATM   16  C           1     -21.123 -10.822  -1.127  0.00  0.00     0.003 C 
BRANCH  16  17
HETATM   17 Se           1     -22.985 -11.069  -1.647  0.00  0.00     0.000 Se
HETATM   18  C           1     -23.573 -11.644   0.120  0.00  0.00     0.000 C 
ENDBRANCH  16  17
ENDBRANCH  15  16
ENDBRANCH  14  15
BRANCH  14  19
HETATM   19  C           1     -22.420  -7.419  -0.788  0.00  0.00     0.196 C 
HETATM   20  O           1     -22.947  -7.737   0.300  0.00  0.00    -0.646 OA
HETATM   21  O           1     -22.440  -6.230  -1.169  0.00  0.00    -0.646 OA
ENDBRANCH  14  19
ENDBRANCH   2  14
TORSDOF 9
ENDMDL
MODEL 8
REMARK VINA RESULT:      -4.9      9.714     12.168
REMARK  9 active torsions:
REMARK  status: ('A' for Active; 'I' for Inactive)
REMARK    1  A    between atoms: C_1  and  C_12 
REMARK    2  A    between atoms: C_1  and  C_5 
REMARK    3  A    between atoms: C_2  and  Se_10 
REMARK    4  A    between atoms: C_2  and  C_14 
REMARK    5  A    between atoms: N_8  and  C_12 
REMARK    6  A    between atoms: N_11  and  C_20 
REMARK       I    between atoms: N_11  and  C_19 
REMARK    7  A    between atoms: C_12  and  C_19 
REMARK    8  A    between atoms: C_14  and  C_20 
REMARK    9  A    between atoms: C_18  and  C_20 
ROOT
HETATM    1  H           1     -26.588  -4.814 -17.745  0.00  0.00     0.163 HD
HETATM    2  N           1     -26.861  -5.721 -17.390  0.00  0.00    -0.345 N 
HETATM    3  O           1     -28.403  -6.964 -16.358  0.00  0.00    -0.271 OA
HETATM    4  C           1     -28.078  -5.880 -16.781  0.00  0.00     0.249 C 
ENDROOT
BRANCH   4   5
HETATM    5  C           1     -29.011  -4.704 -16.641  0.00  0.00     0.275 C 
BRANCH   5   6
HETATM    6  C           1     -30.178  -4.862 -17.608  0.00  0.00     0.046 C 
BRANCH   6   7
HETATM    7  C           1     -31.393  -5.389 -16.858  0.00  0.00    -0.020 C 
HETATM    8  C           1     -32.513  -4.358 -16.915  0.00  0.00     0.009 C 
HETATM    9  C           1     -31.864  -6.686 -17.502  0.00  0.00     0.009 C 
ENDBRANCH   6   7
ENDBRANCH   5   6
BRANCH   5  10
HETATM   10  N           1     -28.270  -3.438 -16.955  0.00  0.00    -0.066 N 
HETATM   11  H           1     -27.569  -3.250 -16.203  0.00  0.00     0.275 HD
HETATM   12  H           1     -28.946  -2.643 -17.008  0.00  0.00     0.275 HD
HETATM   13  H           1     -27.779  -3.541 -17.871  0.00  0.00     0.275 HD
ENDBRANCH   5  10
ENDBRANCH   4   5
BRANCH   2  14
HETATM   14  C           1     -25.964  -6.852 -17.524  0.00  0.00     0.185 C 
BRANCH  14  15
HETATM   15  C           1     -25.150  -6.704 -18.802  0.00  0.00     0.036 C 
BRANCH  15  16
HETATM   16  C           1     -26.091  -6.553 -19.990  0.00  0.00     0.003 C 
BRANCH  16  17
HETATM   17 Se           1     -25.879  -8.078 -21.185  0.00  0.00     0.000 Se
HETATM   18  C           1     -23.936  -8.126 -21.046  0.00  0.00     0.000 C 
ENDBRANCH  16  17
ENDBRANCH  15  16
ENDBRANCH  14  15
BRANCH  14  19
HETATM   19  C           1     -25.034  -6.901 -16.337  0.00  0.00     0.196 C 
HETATM   20  O           1     -24.400  -7.947 -16.082  0.00  0.00    -0.646 OA
HETATM   21  O           1     -24.899  -5.894 -15.609  0.00  0.00    -0.646 OA
ENDBRANCH  14  19
ENDBRANCH   2  14
TORSDOF 9
ENDMDL
MODEL 9
REMARK VINA RESULT:      -4.9     17.890     19.425
REMARK  9 active torsions:
REMARK  status: ('A' for Active; 'I' for Inactive)
REMARK    1  A    between atoms: C_1  and  C_12 
REMARK    2  A    between atoms: C_1  and  C_5 
REMARK    3  A    between atoms: C_2  and  Se_10 
REMARK    4  A    between atoms: C_2  and  C_14 
REMARK    5  A    between atoms: N_8  and  C_12 
REMARK    6  A    between atoms: N_11  and  C_20 
REMARK       I    between atoms: N_11  and  C_19 
REMARK    7  A    between atoms: C_12  and  C_19 
REMARK    8  A    between atoms: C_14  and  C_20 
REMARK    9  A    between atoms: C_18  and  C_20 
ROOT
HETATM    1  H           1     -19.926  -9.188  -2.814  0.00  0.00     0.163 HD
HETATM    2  N           1     -20.254  -8.659  -3.612  0.00  0.00    -0.345 N 
HETATM    3  O           1     -21.388  -6.893  -4.375  0.00  0.00    -0.271 OA
HETATM    4  C           1     -20.997  -7.524  -3.422  0.00  0.00     0.249 C 
ENDROOT
BRANCH   4   5
HETATM    5  C           1     -21.324  -7.062  -2.024  0.00  0.00     0.275 C 
BRANCH   5   6
HETATM    6  C           1     -21.864  -8.234  -1.214  0.00  0.00     0.046 C 
BRANCH   6   7
HETATM    7  C           1     -22.029  -7.815   0.240  0.00  0.00    -0.020 C 
HETATM    8  C           1     -23.468  -8.052   0.677  0.00  0.00     0.009 C 
HETATM    9  C           1     -21.092  -8.636   1.115  0.00  0.00     0.009 C 
ENDBRANCH   6   7
ENDBRANCH   5   6
BRANCH   5  10
HETATM   10  N           1     -22.360  -5.979  -2.086  0.00  0.00    -0.066 N 
HETATM   11  H           1     -22.540  -5.725  -3.084  0.00  0.00     0.275 HD
HETATM   12  H           1     -22.015  -5.138  -1.570  0.00  0.00     0.275 HD
HETATM   13  H           1     -23.246  -6.318  -1.648  0.00  0.00     0.275 HD
ENDBRANCH   5  10
ENDBRANCH   4   5
BRANCH   2  14
HETATM   14  C           1     -19.940  -9.104  -4.956  0.00  0.00     0.185 C 
BRANCH  14  15
HETATM   15  C           1     -18.472  -9.503  -5.027  0.00  0.00     0.036 C 
BRANCH  15  16
HETATM   16  C           1     -18.101 -10.301  -3.784  0.00  0.00     0.003 C 
BRANCH  16  17
HETATM   17 Se           1     -16.449  -9.598  -3.027  0.00  0.00     0.000 Se
HETATM   18  C           1     -16.147 -11.122  -1.851  0.00  0.00     0.000 C 
ENDBRANCH  16  17
ENDBRANCH  15  16
ENDBRANCH  14  15
BRANCH  14  19
HETATM   19  C           1     -20.802 -10.291  -5.308  0.00  0.00     0.196 C 
HETATM   20  O           1     -21.630 -10.730  -4.480  0.00  0.00    -0.646 OA
HETATM   21  O           1     -20.688 -10.835  -6.427  0.00  0.00    -0.646 OA
ENDBRANCH  14  19
ENDBRANCH   2  14
TORSDOF 9
ENDMDL
