MODEL 1
REMARK VINA RESULT:      -6.3      0.000      0.000
REMARK  5 active torsions:
REMARK  status: ('A' for Active; 'I' for Inactive)
REMARK    1  A    between atoms: C_2  and  C_18 
REMARK    2  A    between atoms: S_3  and  C_19 
REMARK       I    between atoms: C_9  and  N_11 
REMARK    3  A    between atoms: C_9  and  C_10 
REMARK    4  A    between atoms: N_11  and  C_18 
REMARK    5  A    between atoms: C_18  and  C_19 
ROOT
HETATM    1  H           1     -34.469  -6.835 -12.391  0.00  0.00     0.274 HD
HETATM    2  H           1     -35.067  -5.264 -12.093  0.00  0.00     0.274 HD
HETATM    3  C           1     -32.408  -5.242 -11.772  0.00  0.00     0.027 C 
HETATM    4  C           1     -33.474  -5.821 -10.852  0.00  0.00     0.229 C 
HETATM    5  C           1     -34.755  -2.595 -11.430  0.00  0.00     0.274 C 
HETATM    6  H           1     -35.344  -4.529 -11.976  0.00  0.00     0.275 HD
HETATM    7  N           1     -34.705  -6.138 -11.649  0.00  0.00    -0.079 N 
HETATM    8  C           1     -33.277  -2.951 -11.341  0.00  0.00     0.042 C 
HETATM    9  C           1     -32.933  -3.969 -12.421  0.00  0.00     0.004 C 
HETATM   10  H           1     -36.594  -3.587 -11.296  0.00  0.00     0.275 HD
HETATM   11  N           1     -35.581  -3.832 -11.234  0.00  0.00    -0.067 N 
HETATM   12  H           1     -35.377  -4.242 -10.294  0.00  0.00     0.275 HD
HETATM   13  H           1     -35.437  -6.535 -11.018  0.00  0.00     0.274 HD
ENDROOT
BRANCH   5  14
HETATM   14  C           1     -35.050  -2.005 -12.787  0.00  0.00     0.249 C 
HETATM   15  N           1     -35.702  -0.805 -12.886  0.00  0.00    -0.344 N 
HETATM   16  H           1     -35.986  -0.313 -12.048  0.00  0.00     0.163 HD
HETATM   17  O           1     -34.710  -2.592 -13.787  0.00  0.00    -0.271 OA
BRANCH  15  18
HETATM   18  C           1     -35.985  -0.239 -14.190  0.00  0.00     0.194 C 
BRANCH  18  19
HETATM   19  C           1     -35.202   1.040 -14.363  0.00  0.00     0.197 C 
HETATM   20  O           1     -35.433   1.787 -15.339  0.00  0.00    -0.646 OA
HETATM   21  O           1     -34.321   1.351 -13.533  0.00  0.00    -0.646 OA
ENDBRANCH  18  19
BRANCH  18  22
HETATM   22  C           1     -37.475   0.059 -14.302  0.00  0.00     0.106 C 
BRANCH  22  23
HETATM   23  S           1     -38.075  -0.455 -15.936  0.00  0.00    -0.180 SA
HETATM   24  H           1     -39.283  -0.872 -15.516  0.00  0.00     0.101 HD
ENDBRANCH  22  23
ENDBRANCH  18  22
ENDBRANCH  15  18
ENDBRANCH   5  14
TORSDOF 5
ENDMDL
MODEL 2
REMARK VINA RESULT:      -5.8      1.782      2.084
REMARK  5 active torsions:
REMARK  status: ('A' for Active; 'I' for Inactive)
REMARK    1  A    between atoms: C_2  and  C_18 
REMARK    2  A    between atoms: S_3  and  C_19 
REMARK       I    between atoms: C_9  and  N_11 
REMARK    3  A    between atoms: C_9  and  C_10 
REMARK    4  A    between atoms: N_11  and  C_18 
REMARK    5  A    between atoms: C_18  and  C_19 
ROOT
HETATM    1  H           1     -34.534  -6.130 -12.844  0.00  0.00     0.274 HD
HETATM    2  H           1     -35.271  -4.862 -11.972  0.00  0.00     0.274 HD
HETATM    3  C           1     -32.630  -4.423 -12.050  0.00  0.00     0.027 C 
HETATM    4  C           1     -33.403  -5.441 -11.222  0.00  0.00     0.229 C 
HETATM    5  C           1     -35.205  -2.498 -10.535  0.00  0.00     0.274 C 
HETATM    6  H           1     -35.619  -4.262 -11.585  0.00  0.00     0.275 HD
HETATM    7  N           1     -34.711  -5.741 -11.891  0.00  0.00    -0.079 N 
HETATM    8  C           1     -33.705  -2.573 -10.781  0.00  0.00     0.042 C 
HETATM    9  C           1     -33.444  -3.142 -12.169  0.00  0.00     0.004 C 
HETATM   10  H           1     -36.827  -3.820 -10.463  0.00  0.00     0.275 HD
HETATM   11  N           1     -35.797  -3.873 -10.632  0.00  0.00    -0.067 N 
HETATM   12  H           1     -35.357  -4.493  -9.914  0.00  0.00     0.275 HD
HETATM   13  H           1     -35.243  -6.439 -11.324  0.00  0.00     0.274 HD
ENDROOT
BRANCH   5  14
HETATM   14  C           1     -35.841  -1.604 -11.571  0.00  0.00     0.249 C 
HETATM   15  N           1     -35.067  -1.010 -12.532  0.00  0.00    -0.344 N 
HETATM   16  H           1     -34.068  -1.170 -12.547  0.00  0.00     0.163 HD
HETATM   17  O           1     -37.034  -1.413 -11.553  0.00  0.00    -0.271 OA
BRANCH  15  18
HETATM   18  C           1     -35.680  -0.151 -13.526  0.00  0.00     0.194 C 
BRANCH  18  19
HETATM   19  C           1     -36.011  -0.962 -14.755  0.00  0.00     0.197 C 
HETATM   20  O           1     -37.164  -0.923 -15.237  0.00  0.00    -0.646 OA
HETATM   21  O           1     -35.134  -1.675 -15.289  0.00  0.00    -0.646 OA
ENDBRANCH  18  19
BRANCH  18  22
HETATM   22  C           1     -34.710   0.964 -13.900  0.00  0.00     0.106 C 
BRANCH  22  23
HETATM   23  S           1     -35.379   1.905 -15.300  0.00  0.00    -0.180 SA
HETATM   24  H           1     -35.918   0.849 -15.935  0.00  0.00     0.101 HD
ENDBRANCH  22  23
ENDBRANCH  18  22
ENDBRANCH  15  18
ENDBRANCH   5  14
TORSDOF 5
ENDMDL
MODEL 3
REMARK VINA RESULT:      -5.8     15.044     16.918
REMARK  5 active torsions:
REMARK  status: ('A' for Active; 'I' for Inactive)
REMARK    1  A    between atoms: C_2  and  C_18 
REMARK    2  A    between atoms: S_3  and  C_19 
REMARK       I    between atoms: C_9  and  N_11 
REMARK    3  A    between atoms: C_9  and  C_10 
REMARK    4  A    between atoms: N_11  and  C_18 
REMARK    5  A    between atoms: C_18  and  C_19 
ROOT
HETATM    1  H           1     -20.591  -5.417 -11.112  0.00  0.00     0.274 HD
HETATM    2  H           1     -20.101  -5.307  -9.480  0.00  0.00     0.274 HD
HETATM    3  C           1     -22.320  -3.844  -9.806  0.00  0.00     0.027 C 
HETATM    4  C           1     -20.899  -3.532 -10.254  0.00  0.00     0.229 C 
HETATM    5  C           1     -20.376  -4.394  -6.883  0.00  0.00     0.274 C 
HETATM    6  H           1     -19.883  -5.275  -8.718  0.00  0.00     0.275 HD
HETATM    7  N           1     -20.127  -4.810 -10.399  0.00  0.00    -0.079 N 
HETATM    8  C           1     -21.609  -3.686  -7.428  0.00  0.00     0.042 C 
HETATM    9  C           1     -22.284  -4.569  -8.468  0.00  0.00     0.004 C 
HETATM   10  H           1     -18.574  -5.154  -7.630  0.00  0.00     0.275 HD
HETATM   11  N           1     -19.419  -4.668  -8.005  0.00  0.00    -0.067 N 
HETATM   12  H           1     -19.134  -3.765  -8.448  0.00  0.00     0.275 HD
HETATM   13  H           1     -19.151  -4.596 -10.706  0.00  0.00     0.274 HD
ENDROOT
BRANCH   5  14
HETATM   14  C           1     -20.786  -5.697  -6.243  0.00  0.00     0.249 C 
HETATM   15  N           1     -20.896  -5.788  -4.881  0.00  0.00    -0.344 N 
HETATM   16  H           1     -20.703  -4.980  -4.303  0.00  0.00     0.163 HD
HETATM   17  O           1     -21.018  -6.662  -6.933  0.00  0.00    -0.271 OA
BRANCH  15  18
HETATM   18  C           1     -21.290  -7.041  -4.268  0.00  0.00     0.194 C 
BRANCH  18  19
HETATM   19  C           1     -21.658  -6.800  -2.824  0.00  0.00     0.197 C 
HETATM   20  O           1     -22.482  -5.907  -2.531  0.00  0.00    -0.646 OA
HETATM   21  O           1     -21.137  -7.491  -1.922  0.00  0.00    -0.646 OA
ENDBRANCH  18  19
BRANCH  18  22
HETATM   22  C           1     -20.130  -8.027  -4.339  0.00  0.00     0.106 C 
BRANCH  22  23
HETATM   23  S           1     -20.743  -9.646  -4.883  0.00  0.00    -0.180 SA
HETATM   24  H           1     -22.023  -9.264  -5.044  0.00  0.00     0.101 HD
ENDBRANCH  22  23
ENDBRANCH  18  22
ENDBRANCH  15  18
ENDBRANCH   5  14
TORSDOF 5
ENDMDL
MODEL 4
REMARK VINA RESULT:      -5.6     13.407     15.024
REMARK  5 active torsions:
REMARK  status: ('A' for Active; 'I' for Inactive)
REMARK    1  A    between atoms: C_2  and  C_18 
REMARK    2  A    between atoms: S_3  and  C_19 
REMARK       I    between atoms: C_9  and  N_11 
REMARK    3  A    between atoms: C_9  and  C_10 
REMARK    4  A    between atoms: N_11  and  C_18 
REMARK    5  A    between atoms: C_18  and  C_19 
ROOT
HETATM    1  H           1     -22.406  -6.180  -3.282  0.00  0.00     0.274 HD
HETATM    2  H           1     -21.490  -5.228  -4.362  0.00  0.00     0.274 HD
HETATM    3  C           1     -21.564  -7.739  -5.288  0.00  0.00     0.027 C 
HETATM    4  C           1     -20.767  -7.178  -4.118  0.00  0.00     0.229 C 
HETATM    5  C           1     -19.977  -4.866  -6.651  0.00  0.00     0.274 C 
HETATM    6  H           1     -21.083  -4.778  -4.874  0.00  0.00     0.275 HD
HETATM    7  N           1     -21.440  -5.942  -3.601  0.00  0.00    -0.079 N 
HETATM    8  C           1     -20.231  -6.352  -6.865  0.00  0.00     0.042 C 
HETATM    9  C           1     -21.638  -6.700  -6.398  0.00  0.00     0.004 C 
HETATM   10  H           1     -19.942  -3.520  -5.048  0.00  0.00     0.275 HD
HETATM   11  N           1     -20.116  -4.540  -5.193  0.00  0.00    -0.067 N 
HETATM   12  H           1     -19.421  -5.095  -4.644  0.00  0.00     0.275 HD
HETATM   13  H           1     -20.894  -5.556  -2.798  0.00  0.00     0.274 HD
ENDROOT
BRANCH   5  14
HETATM   14  C           1     -20.981  -4.065  -7.443  0.00  0.00     0.249 C 
HETATM   15  N           1     -21.234  -4.384  -8.750  0.00  0.00    -0.344 N 
HETATM   16  H           1     -20.749  -5.157  -9.185  0.00  0.00     0.163 HD
HETATM   17  O           1     -21.561  -3.141  -6.922  0.00  0.00    -0.271 OA
BRANCH  15  18
HETATM   18  C           1     -22.199  -3.613  -9.510  0.00  0.00     0.194 C 
BRANCH  18  19
HETATM   19  C           1     -23.515  -4.350  -9.545  0.00  0.00     0.197 C 
HETATM   20  O           1     -24.379  -4.129  -8.668  0.00  0.00    -0.646 OA
HETATM   21  O           1     -23.741  -5.182 -10.450  0.00  0.00    -0.646 OA
ENDBRANCH  18  19
BRANCH  18  22
HETATM   22  C           1     -21.686  -3.419 -10.931  0.00  0.00     0.106 C 
BRANCH  22  23
HETATM   23  S           1     -20.146  -4.353 -11.153  0.00  0.00    -0.180 SA
HETATM   24  H           1     -19.664  -3.594 -12.153  0.00  0.00     0.101 HD
ENDBRANCH  22  23
ENDBRANCH  18  22
ENDBRANCH  15  18
ENDBRANCH   5  14
TORSDOF 5
ENDMDL
MODEL 5
REMARK VINA RESULT:      -5.2     17.050     19.099
REMARK  5 active torsions:
REMARK  status: ('A' for Active; 'I' for Inactive)
REMARK    1  A    between atoms: C_2  and  C_18 
REMARK    2  A    between atoms: S_3  and  C_19 
REMARK       I    between atoms: C_9  and  N_11 
REMARK    3  A    between atoms: C_9  and  C_10 
REMARK    4  A    between atoms: N_11  and  C_18 
REMARK    5  A    between atoms: C_18  and  C_19 
ROOT
HETATM    1  H           1     -21.524  -8.752  -6.299  0.00  0.00     0.274 HD
HETATM    2  H           1     -21.008  -8.704  -4.672  0.00  0.00     0.274 HD
HETATM    3  C           1     -22.059  -6.323  -5.306  0.00  0.00     0.027 C 
HETATM    4  C           1     -20.715  -6.911  -5.714  0.00  0.00     0.229 C 
HETATM    5  C           1     -20.658  -7.439  -2.236  0.00  0.00     0.274 C 
HETATM    6  H           1     -20.787  -8.691  -3.910  0.00  0.00     0.275 HD
HETATM    7  N           1     -20.782  -8.408  -5.649  0.00  0.00    -0.079 N 
HETATM    8  C           1     -21.310  -6.254  -2.935  0.00  0.00     0.042 C 
HETATM    9  C           1     -22.391  -6.754  -3.884  0.00  0.00     0.004 C 
HETATM   10  H           1     -19.598  -9.160  -2.780  0.00  0.00     0.275 HD
HETATM   11  N           1     -20.044  -8.348  -3.260  0.00  0.00    -0.067 N 
HETATM   12  H           1     -19.322  -7.823  -3.803  0.00  0.00     0.275 HD
HETATM   13  H           1     -19.860  -8.812  -5.929  0.00  0.00     0.274 HD
ENDROOT
BRANCH   5  14
HETATM   14  C           1     -21.701  -8.198  -1.453  0.00  0.00     0.249 C 
HETATM   15  N           1     -21.789  -9.559  -1.569  0.00  0.00    -0.344 N 
HETATM   16  H           1     -21.154 -10.057  -2.179  0.00  0.00     0.163 HD
HETATM   17  O           1     -22.459  -7.603  -0.723  0.00  0.00    -0.271 OA
BRANCH  15  18
HETATM   18  C           1     -22.792 -10.287  -0.816  0.00  0.00     0.194 C 
BRANCH  18  19
HETATM   19  C           1     -22.118 -11.095   0.266  0.00  0.00     0.197 C 
HETATM   20  O           1     -22.551 -12.231   0.558  0.00  0.00    -0.646 OA
HETATM   21  O           1     -21.129 -10.629   0.871  0.00  0.00    -0.646 OA
ENDBRANCH  18  19
BRANCH  18  22
HETATM   22  C           1     -23.549 -11.221  -1.751  0.00  0.00     0.106 C 
BRANCH  22  23
HETATM   23  S           1     -22.628 -11.401  -3.305  0.00  0.00    -0.180 SA
HETATM   24  H           1     -23.691 -11.251  -4.116  0.00  0.00     0.101 HD
ENDBRANCH  22  23
ENDBRANCH  18  22
ENDBRANCH  15  18
ENDBRANCH   5  14
TORSDOF 5
ENDMDL
MODEL 6
REMARK VINA RESULT:      -5.2     17.519     19.023
REMARK  5 active torsions:
REMARK  status: ('A' for Active; 'I' for Inactive)
REMARK    1  A    between atoms: C_2  and  C_18 
REMARK    2  A    between atoms: S_3  and  C_19 
REMARK       I    between atoms: C_9  and  N_11 
REMARK    3  A    between atoms: C_9  and  C_10 
REMARK    4  A    between atoms: N_11  and  C_18 
REMARK    5  A    between atoms: C_18  and  C_19 
ROOT
HETATM    1  H           1     -22.132 -12.168   1.982  0.00  0.00     0.274 HD
HETATM    2  H           1     -21.425 -11.869   0.458  0.00  0.00     0.274 HD
HETATM    3  C           1     -24.086 -11.699   0.213  0.00  0.00     0.027 C 
HETATM    4  C           1     -23.221 -12.942   0.370  0.00  0.00     0.229 C 
HETATM    5  C           1     -21.552 -11.279  -2.243  0.00  0.00     0.274 C 
HETATM    6  H           1     -21.093 -11.709  -0.245  0.00  0.00     0.275 HD
HETATM    7  N           1     -21.931 -12.574   1.041  0.00  0.00    -0.079 N 
HETATM    8  C           1     -23.056 -11.260  -2.008  0.00  0.00     0.042 C 
HETATM    9  C           1     -23.350 -10.671  -0.634  0.00  0.00     0.004 C 
HETATM   10  H           1     -19.860 -12.127  -1.349  0.00  0.00     0.275 HD
HETATM   11  N           1     -20.891 -12.116  -1.187  0.00  0.00    -0.067 N 
HETATM   12  H           1     -21.263 -13.091  -1.233  0.00  0.00     0.275 HD
HETATM   13  H           1     -21.337 -13.427   1.148  0.00  0.00     0.274 HD
ENDROOT
BRANCH   5  14
HETATM   14  C           1     -21.015  -9.871  -2.176  0.00  0.00     0.249 C 
HETATM   15  N           1     -21.646  -8.863  -2.855  0.00  0.00    -0.344 N 
HETATM   16  H           1     -22.474  -9.063  -3.401  0.00  0.00     0.163 HD
HETATM   17  O           1     -20.027  -9.632  -1.523  0.00  0.00    -0.271 OA
BRANCH  15  18
HETATM   18  C           1     -21.129  -7.510  -2.790  0.00  0.00     0.194 C 
BRANCH  18  19
HETATM   19  C           1     -21.975  -6.694  -1.844  0.00  0.00     0.197 C 
HETATM   20  O           1     -22.405  -5.575  -2.198  0.00  0.00    -0.646 OA
HETATM   21  O           1     -22.244  -7.136  -0.706  0.00  0.00    -0.646 OA
ENDBRANCH  18  19
BRANCH  18  22
HETATM   22  C           1     -21.171  -6.884  -4.179  0.00  0.00     0.106 C 
BRANCH  22  23
HETATM   23  S           1     -20.075  -7.806  -5.293  0.00  0.00    -0.180 SA
HETATM   24  H           1     -20.712  -8.984  -5.174  0.00  0.00     0.101 HD
ENDBRANCH  22  23
ENDBRANCH  18  22
ENDBRANCH  15  18
ENDBRANCH   5  14
TORSDOF 5
ENDMDL
MODEL 7
REMARK VINA RESULT:      -5.1     16.875     18.809
REMARK  5 active torsions:
REMARK  status: ('A' for Active; 'I' for Inactive)
REMARK    1  A    between atoms: C_2  and  C_18 
REMARK    2  A    between atoms: S_3  and  C_19 
REMARK       I    between atoms: C_9  and  N_11 
REMARK    3  A    between atoms: C_9  and  C_10 
REMARK    4  A    between atoms: N_11  and  C_18 
REMARK    5  A    between atoms: C_18  and  C_19 
ROOT
HETATM    1  H           1     -17.260 -12.513  -7.361  0.00  0.00     0.274 HD
HETATM    2  H           1     -18.403 -11.917  -6.241  0.00  0.00     0.274 HD
HETATM    3  C           1     -16.109 -10.575  -5.917  0.00  0.00     0.027 C 
HETATM    4  C           1     -16.446 -12.000  -5.501  0.00  0.00     0.229 C 
HETATM    5  C           1     -19.195 -10.241  -4.187  0.00  0.00     0.274 C 
HETATM    6  H           1     -18.943 -11.627  -5.737  0.00  0.00     0.275 HD
HETATM    7  N           1     -17.559 -12.523  -6.359  0.00  0.00    -0.079 N 
HETATM    8  C           1     -17.774  -9.704  -4.288  0.00  0.00     0.042 C 
HETATM    9  C           1     -17.337  -9.692  -5.747  0.00  0.00     0.004 C 
HETATM   10  H           1     -20.217 -12.005  -4.666  0.00  0.00     0.275 HD
HETATM   11  N           1     -19.242 -11.637  -4.735  0.00  0.00    -0.067 N 
HETATM   12  H           1     -18.598 -12.249  -4.185  0.00  0.00     0.275 HD
HETATM   13  H           1     -17.791 -13.501  -6.074  0.00  0.00     0.274 HD
ENDROOT
BRANCH   5  14
HETATM   14  C           1     -20.125  -9.358  -4.982  0.00  0.00     0.249 C 
HETATM   15  N           1     -20.234  -8.028  -4.677  0.00  0.00    -0.344 N 
HETATM   16  H           1     -19.691  -7.636  -3.919  0.00  0.00     0.163 HD
HETATM   17  O           1     -20.773  -9.826  -5.888  0.00  0.00    -0.271 OA
BRANCH  15  18
HETATM   18  C           1     -21.128  -7.180  -5.442  0.00  0.00     0.194 C 
BRANCH  18  19
HETATM   19  C           1     -20.324  -6.138  -6.179  0.00  0.00     0.197 C 
HETATM   20  O           1     -20.253  -4.973  -5.732  0.00  0.00    -0.646 OA
HETATM   21  O           1     -19.730  -6.439  -7.237  0.00  0.00    -0.646 OA
ENDBRANCH  18  19
BRANCH  18  22
HETATM   22  C           1     -22.107  -6.494  -4.498  0.00  0.00     0.106 C 
BRANCH  22  23
HETATM   23  S           1     -21.499  -6.627  -2.792  0.00  0.00    -0.180 SA
HETATM   24  H           1     -21.574  -7.968  -2.722  0.00  0.00     0.101 HD
ENDBRANCH  22  23
ENDBRANCH  18  22
ENDBRANCH  15  18
ENDBRANCH   5  14
TORSDOF 5
ENDMDL
MODEL 8
REMARK VINA RESULT:      -5.1     17.352     19.078
REMARK  5 active torsions:
REMARK  status: ('A' for Active; 'I' for Inactive)
REMARK    1  A    between atoms: C_2  and  C_18 
REMARK    2  A    between atoms: S_3  and  C_19 
REMARK       I    between atoms: C_9  and  N_11 
REMARK    3  A    between atoms: C_9  and  C_10 
REMARK    4  A    between atoms: N_11  and  C_18 
REMARK    5  A    between atoms: C_18  and  C_19 
ROOT
HETATM    1  H           1     -21.499 -13.346  -2.793  0.00  0.00     0.274 HD
HETATM    2  H           1     -22.127 -11.888  -2.166  0.00  0.00     0.274 HD
HETATM    3  C           1     -20.521 -12.987  -0.326  0.00  0.00     0.027 C 
HETATM    4  C           1     -21.923 -13.411  -0.743  0.00  0.00     0.229 C 
HETATM    5  C           1     -22.390  -9.967  -0.191  0.00  0.00     0.274 C 
HETATM    6  H           1     -22.403 -11.199  -1.886  0.00  0.00     0.275 HD
HETATM    7  N           1     -22.198 -12.930  -2.137  0.00  0.00    -0.079 N 
HETATM    8  C           1     -21.433 -10.860   0.586  0.00  0.00     0.042 C 
HETATM    9  C           1     -20.415 -11.469  -0.369  0.00  0.00     0.004 C 
HETATM   10  H           1     -23.759 -10.169  -1.763  0.00  0.00     0.275 HD
HETATM   11  N           1     -23.103 -10.782  -1.230  0.00  0.00    -0.067 N 
HETATM   12  H           1     -23.641 -11.547  -0.763  0.00  0.00     0.275 HD
HETATM   13  H           1     -23.160 -13.220  -2.424  0.00  0.00     0.274 HD
ENDROOT
BRANCH   5  14
HETATM   14  C           1     -21.613  -8.863  -0.866  0.00  0.00     0.249 C 
HETATM   15  N           1     -21.699  -8.695  -2.222  0.00  0.00    -0.344 N 
HETATM   16  H           1     -22.284  -9.311  -2.772  0.00  0.00     0.163 HD
HETATM   17  O           1     -20.916  -8.128  -0.209  0.00  0.00    -0.271 OA
BRANCH  15  18
HETATM   18  C           1     -20.953  -7.634  -2.870  0.00  0.00     0.194 C 
BRANCH  18  19
HETATM   19  C           1     -21.871  -6.468  -3.143  0.00  0.00     0.197 C 
HETATM   20  O           1     -22.193  -6.189  -4.318  0.00  0.00    -0.646 OA
HETATM   21  O           1     -22.308  -5.781  -2.194  0.00  0.00    -0.646 OA
ENDBRANCH  18  19
BRANCH  18  22
HETATM   22  C           1     -20.378  -8.148  -4.184  0.00  0.00     0.106 C 
BRANCH  22  23
HETATM   23  S           1     -21.135  -9.746  -4.593  0.00  0.00    -0.180 SA
HETATM   24  H           1     -20.916  -9.669  -5.918  0.00  0.00     0.101 HD
ENDBRANCH  22  23
ENDBRANCH  18  22
ENDBRANCH  15  18
ENDBRANCH   5  14
TORSDOF 5
ENDMDL
MODEL 9
REMARK VINA RESULT:      -5.0      2.787      2.946
REMARK  5 active torsions:
REMARK  status: ('A' for Active; 'I' for Inactive)
REMARK    1  A    between atoms: C_2  and  C_18 
REMARK    2  A    between atoms: S_3  and  C_19 
REMARK       I    between atoms: C_9  and  N_11 
REMARK    3  A    between atoms: C_9  and  C_10 
REMARK    4  A    between atoms: N_11  and  C_18 
REMARK    5  A    between atoms: C_18  and  C_19 
ROOT
HETATM    1  H           1     -33.867  -6.762 -12.279  0.00  0.00     0.274 HD
HETATM    2  H           1     -34.313  -5.537 -11.177  0.00  0.00     0.274 HD
HETATM    3  C           1     -32.492  -4.542 -12.871  0.00  0.00     0.027 C 
HETATM    4  C           1     -32.288  -5.509 -11.712  0.00  0.00     0.229 C 
HETATM    5  C           1     -34.160  -2.970 -10.155  0.00  0.00     0.274 C 
HETATM    6  H           1     -34.537  -4.963 -10.677  0.00  0.00     0.275 HD
HETATM    7  N           1     -33.572  -6.230 -11.429  0.00  0.00    -0.079 N 
HETATM    8  C           1     -33.142  -2.756 -11.267  0.00  0.00     0.042 C 
HETATM    9  C           1     -33.571  -3.532 -12.505  0.00  0.00     0.004 C 
HETATM   10  H           1     -34.941  -4.577  -9.064  0.00  0.00     0.275 HD
HETATM   11  N           1     -34.242  -4.431  -9.826  0.00  0.00    -0.067 N 
HETATM   12  H           1     -33.305  -4.770  -9.511  0.00  0.00     0.275 HD
HETATM   13  H           1     -33.433  -6.894 -10.634  0.00  0.00     0.274 HD
ENDROOT
BRANCH   5  14
HETATM   14  C           1     -35.513  -2.481 -10.610  0.00  0.00     0.249 C 
HETATM   15  N           1     -35.718  -1.147 -10.841  0.00  0.00    -0.344 N 
HETATM   16  H           1     -34.962  -0.489 -10.707  0.00  0.00     0.163 HD
HETATM   17  O           1     -36.416  -3.268 -10.772  0.00  0.00    -0.271 OA
BRANCH  15  18
HETATM   18  C           1     -37.019  -0.679 -11.279  0.00  0.00     0.194 C 
BRANCH  18  19
HETATM   19  C           1     -36.943  -0.265 -12.728  0.00  0.00     0.197 C 
HETATM   20  O           1     -37.836  -0.620 -13.527  0.00  0.00    -0.646 OA
HETATM   21  O           1     -35.985   0.431 -13.129  0.00  0.00    -0.646 OA
ENDBRANCH  18  19
BRANCH  18  22
HETATM   22  C           1     -37.440   0.515 -10.431  0.00  0.00     0.106 C 
BRANCH  22  23
HETATM   23  S           1     -37.263   0.102  -8.672  0.00  0.00    -0.180 SA
HETATM   24  H           1     -37.292   1.371  -8.227  0.00  0.00     0.101 HD
ENDBRANCH  22  23
ENDBRANCH  18  22
ENDBRANCH  15  18
ENDBRANCH   5  14
TORSDOF 5
ENDMDL
