MODEL 1
REMARK VINA RESULT:      -6.3      0.000      0.000
REMARK  6 active torsions:
REMARK  status: ('A' for Active; 'I' for Inactive)
REMARK    1  A    between atoms: C_2  and  C_3 
REMARK    2  A    between atoms: C_3  and  C_8 
REMARK    3  A    between atoms: C_3  and  N_16 
REMARK    4  A    between atoms: N_4  and  C_19 
REMARK       I    between atoms: N_4  and  C_8 
REMARK    5  A    between atoms: C_11  and  C_19 
REMARK    6  A    between atoms: C_18  and  C_19 
ROOT
HETATM    1  N           1     -22.303  -4.789  -9.150  0.00  0.00    -0.344 N 
HETATM    2  C           1     -21.853  -4.638  -7.867  0.00  0.00     0.249 C 
HETATM    3  H           1     -22.278  -5.700  -9.591  0.00  0.00     0.163 HD
HETATM    4  O           1     -21.881  -3.552  -7.340  0.00  0.00    -0.271 OA
ENDROOT
BRANCH   2   5
HETATM    5  C           1     -21.318  -5.829  -7.110  0.00  0.00     0.278 C 
BRANCH   5   6
HETATM    6  C           1     -21.451  -5.582  -5.613  0.00  0.00     0.017 C 
HETATM    7  C           1     -21.725  -6.901  -4.902  0.00  0.00     0.012 C 
HETATM    8  C           1     -20.157  -4.979  -5.081  0.00  0.00     0.012 C 
ENDBRANCH   5   6
BRANCH   5   9
HETATM    9  N           1     -19.874  -6.034  -7.455  0.00  0.00    -0.066 N 
HETATM   10  H           1     -19.623  -7.040  -7.324  0.00  0.00     0.275 HD
HETATM   11  H           1     -19.279  -5.443  -6.832  0.00  0.00     0.275 HD
HETATM   12  H           1     -19.711  -5.762  -8.451  0.00  0.00     0.275 HD
ENDBRANCH   5   9
ENDBRANCH   2   5
BRANCH   1  13
HETATM   13  C           1     -22.816  -3.645  -9.878  0.00  0.00     0.189 C 
BRANCH  13  14
HETATM   14  C           1     -22.040  -3.484 -11.181  0.00  0.00     0.010 C 
HETATM   15  C           1     -20.557  -3.333 -10.872  0.00  0.00     0.012 C 
HETATM   16  C           1     -22.257  -4.711 -12.054  0.00  0.00     0.012 C 
ENDBRANCH  13  14
BRANCH  13  17
HETATM   17  C           1     -24.277  -3.859 -10.186  0.00  0.00     0.197 C 
HETATM   18  O           1     -24.866  -4.873  -9.751  0.00  0.00    -0.646 OA
HETATM   19  O           1     -24.900  -3.022 -10.875  0.00  0.00    -0.646 OA
ENDBRANCH  13  17
ENDBRANCH   1  13
TORSDOF 6
ENDMDL
MODEL 2
REMARK VINA RESULT:      -5.9     10.090     11.483
REMARK  6 active torsions:
REMARK  status: ('A' for Active; 'I' for Inactive)
REMARK    1  A    between atoms: C_2  and  C_3 
REMARK    2  A    between atoms: C_3  and  C_8 
REMARK    3  A    between atoms: C_3  and  N_16 
REMARK    4  A    between atoms: N_4  and  C_19 
REMARK       I    between atoms: N_4  and  C_8 
REMARK    5  A    between atoms: C_11  and  C_19 
REMARK    6  A    between atoms: C_18  and  C_19 
ROOT
HETATM    1  N           1     -27.254  -6.515 -17.898  0.00  0.00    -0.344 N 
HETATM    2  C           1     -25.934  -6.284 -17.623  0.00  0.00     0.249 C 
HETATM    3  H           1     -27.526  -6.881 -18.803  0.00  0.00     0.163 HD
HETATM    4  O           1     -25.609  -5.848 -16.545  0.00  0.00    -0.271 OA
ENDROOT
BRANCH   2   5
HETATM    5  C           1     -24.883  -6.573 -18.667  0.00  0.00     0.278 C 
BRANCH   5   6
HETATM    6  C           1     -25.556  -7.051 -19.946  0.00  0.00     0.017 C 
HETATM    7  C           1     -25.809  -5.862 -20.864  0.00  0.00     0.012 C 
HETATM    8  C           1     -24.651  -8.052 -20.653  0.00  0.00     0.012 C 
ENDBRANCH   5   6
BRANCH   5   9
HETATM    9  N           1     -23.955  -7.637 -18.163  0.00  0.00    -0.066 N 
HETATM   10  H           1     -24.486  -8.527 -18.029  0.00  0.00     0.275 HD
HETATM   11  H           1     -23.543  -7.336 -17.251  0.00  0.00     0.275 HD
HETATM   12  H           1     -23.189  -7.789 -18.858  0.00  0.00     0.275 HD
ENDBRANCH   5   9
ENDBRANCH   2   5
BRANCH   1  13
HETATM   13  C           1     -28.264  -6.237 -16.895  0.00  0.00     0.189 C 
BRANCH  13  14
HETATM   14  C           1     -29.539  -5.757 -17.579  0.00  0.00     0.010 C 
HETATM   15  C           1     -30.483  -5.172 -16.537  0.00  0.00     0.012 C 
HETATM   16  C           1     -29.191  -4.690 -18.607  0.00  0.00     0.012 C 
ENDBRANCH  13  14
BRANCH  13  17
HETATM   17  C           1     -28.554  -7.494 -16.113  0.00  0.00     0.197 C 
HETATM   18  O           1     -28.039  -7.662 -14.986  0.00  0.00    -0.646 OA
HETATM   19  O           1     -29.309  -8.368 -16.592  0.00  0.00    -0.646 OA
ENDBRANCH  13  17
ENDBRANCH   1  13
TORSDOF 6
ENDMDL
MODEL 3
REMARK VINA RESULT:      -5.4      5.869      8.044
REMARK  6 active torsions:
REMARK  status: ('A' for Active; 'I' for Inactive)
REMARK    1  A    between atoms: C_2  and  C_3 
REMARK    2  A    between atoms: C_3  and  C_8 
REMARK    3  A    between atoms: C_3  and  N_16 
REMARK    4  A    between atoms: N_4  and  C_19 
REMARK       I    between atoms: N_4  and  C_8 
REMARK    5  A    between atoms: C_11  and  C_19 
REMARK    6  A    between atoms: C_18  and  C_19 
ROOT
HETATM    1  N           1     -20.981  -8.517  -2.480  0.00  0.00    -0.344 N 
HETATM    2  C           1     -21.689  -9.586  -1.999  0.00  0.00     0.249 C 
HETATM    3  H           1     -20.475  -7.917  -1.840  0.00  0.00     0.163 HD
HETATM    4  O           1     -22.293 -10.302  -2.761  0.00  0.00    -0.271 OA
ENDROOT
BRANCH   2   5
HETATM    5  C           1     -21.716  -9.867  -0.516  0.00  0.00     0.278 C 
BRANCH   5   6
HETATM    6  C           1     -21.687  -8.552   0.251  0.00  0.00     0.017 C 
HETATM    7  C           1     -23.113  -8.093   0.526  0.00  0.00     0.012 C 
HETATM    8  C           1     -20.956  -8.751   1.572  0.00  0.00     0.012 C 
ENDBRANCH   5   6
BRANCH   5   9
HETATM    9  N           1     -20.522 -10.691  -0.141  0.00  0.00    -0.066 N 
HETATM   10  H           1     -19.825 -10.089   0.354  0.00  0.00     0.275 HD
HETATM   11  H           1     -20.087 -11.088  -1.005  0.00  0.00     0.275 HD
HETATM   12  H           1     -20.819 -11.470   0.489  0.00  0.00     0.275 HD
ENDBRANCH   5   9
ENDBRANCH   2   5
BRANCH   1  13
HETATM   13  C           1     -20.955  -8.246  -3.904  0.00  0.00     0.189 C 
BRANCH  13  14
HETATM   14  C           1     -21.186  -6.758  -4.141  0.00  0.00     0.010 C 
HETATM   15  C           1     -22.385  -6.572  -5.061  0.00  0.00     0.012 C 
HETATM   16  C           1     -21.454  -6.069  -2.810  0.00  0.00     0.012 C 
ENDBRANCH  13  14
BRANCH  13  17
HETATM   17  C           1     -19.613  -8.643  -4.467  0.00  0.00     0.197 C 
HETATM   18  O           1     -18.694  -9.001  -3.698  0.00  0.00    -0.646 OA
HETATM   19  O           1     -19.419  -8.613  -5.702  0.00  0.00    -0.646 OA
ENDBRANCH  13  17
ENDBRANCH   1  13
TORSDOF 6
ENDMDL
MODEL 4
REMARK VINA RESULT:      -5.4      2.993      6.455
REMARK  6 active torsions:
REMARK  status: ('A' for Active; 'I' for Inactive)
REMARK    1  A    between atoms: C_2  and  C_3 
REMARK    2  A    between atoms: C_3  and  C_8 
REMARK    3  A    between atoms: C_3  and  N_16 
REMARK    4  A    between atoms: N_4  and  C_19 
REMARK       I    between atoms: N_4  and  C_8 
REMARK    5  A    between atoms: C_11  and  C_19 
REMARK    6  A    between atoms: C_18  and  C_19 
ROOT
HETATM    1  N           1     -20.885  -6.419  -4.836  0.00  0.00    -0.344 N 
HETATM    2  C           1     -21.652  -5.635  -5.654  0.00  0.00     0.249 C 
HETATM    3  H           1     -19.878  -6.311  -4.829  0.00  0.00     0.163 HD
HETATM    4  O           1     -22.853  -5.764  -5.663  0.00  0.00    -0.271 OA
ENDROOT
BRANCH   2   5
HETATM    5  C           1     -20.997  -4.609  -6.547  0.00  0.00     0.278 C 
BRANCH   5   6
HETATM    6  C           1     -21.376  -4.883  -7.997  0.00  0.00     0.017 C 
HETATM    7  C           1     -22.356  -3.820  -8.475  0.00  0.00     0.012 C 
HETATM    8  C           1     -20.124  -4.844  -8.864  0.00  0.00     0.012 C 
ENDBRANCH   5   6
BRANCH   5   9
HETATM    9  N           1     -19.508  -4.692  -6.396  0.00  0.00    -0.066 N 
HETATM   10  H           1     -19.209  -4.123  -5.572  0.00  0.00     0.275 HD
HETATM   11  H           1     -19.049  -4.322  -7.259  0.00  0.00     0.275 HD
HETATM   12  H           1     -19.227  -5.688  -6.253  0.00  0.00     0.275 HD
ENDBRANCH   5   9
ENDBRANCH   2   5
BRANCH   1  13
HETATM   13  C           1     -21.514  -7.405  -3.978  0.00  0.00     0.189 C 
BRANCH  13  14
HETATM   14  C           1     -20.681  -8.681  -3.977  0.00  0.00     0.010 C 
HETATM   15  C           1     -21.571  -9.868  -4.322  0.00  0.00     0.012 C 
HETATM   16  C           1     -19.570  -8.562  -5.011  0.00  0.00     0.012 C 
ENDBRANCH  13  14
BRANCH  13  17
HETATM   17  C           1     -21.606  -6.863  -2.573  0.00  0.00     0.197 C 
HETATM   18  O           1     -20.890  -7.345  -1.669  0.00  0.00    -0.646 OA
HETATM   19  O           1     -22.399  -5.931  -2.313  0.00  0.00    -0.646 OA
ENDBRANCH  13  17
ENDBRANCH   1  13
TORSDOF 6
ENDMDL
MODEL 5
REMARK VINA RESULT:      -5.3      5.808      8.588
REMARK  6 active torsions:
REMARK  status: ('A' for Active; 'I' for Inactive)
REMARK    1  A    between atoms: C_2  and  C_3 
REMARK    2  A    between atoms: C_3  and  C_8 
REMARK    3  A    between atoms: C_3  and  N_16 
REMARK    4  A    between atoms: N_4  and  C_19 
REMARK       I    between atoms: N_4  and  C_8 
REMARK    5  A    between atoms: C_11  and  C_19 
REMARK    6  A    between atoms: C_18  and  C_19 
ROOT
HETATM    1  N           1     -21.524  -8.484  -2.730  0.00  0.00    -0.344 N 
HETATM    2  C           1     -20.373  -8.353  -3.459  0.00  0.00     0.249 C 
HETATM    3  H           1     -22.393  -8.103  -3.082  0.00  0.00     0.163 HD
HETATM    4  O           1     -19.336  -8.807  -3.039  0.00  0.00    -0.271 OA
ENDROOT
BRANCH   2   5
HETATM    5  C           1     -20.400  -7.637  -4.788  0.00  0.00     0.278 C 
BRANCH   5   6
HETATM    6  C           1     -21.103  -6.296  -4.628  0.00  0.00     0.017 C 
HETATM    7  C           1     -20.339  -5.226  -5.397  0.00  0.00     0.012 C 
HETATM    8  C           1     -22.521  -6.397  -5.175  0.00  0.00     0.012 C 
ENDBRANCH   5   6
BRANCH   5   9
HETATM    9  N           1     -21.137  -8.471  -5.791  0.00  0.00    -0.066 N 
HETATM   10  H           1     -22.149  -8.515  -5.532  0.00  0.00     0.275 HD
HETATM   11  H           1     -20.738  -9.437  -5.802  0.00  0.00     0.275 HD
HETATM   12  H           1     -21.039  -8.044  -6.740  0.00  0.00     0.275 HD
ENDBRANCH   5   9
ENDBRANCH   2   5
BRANCH   1  13
HETATM   13  C           1     -21.498  -9.171  -1.453  0.00  0.00     0.189 C 
BRANCH  13  14
HETATM   14  C           1     -22.269  -8.355  -0.423  0.00  0.00     0.010 C 
HETATM   15  C           1     -21.545  -8.413   0.916  0.00  0.00     0.012 C 
HETATM   16  C           1     -22.362  -6.908  -0.889  0.00  0.00     0.012 C 
ENDBRANCH  13  14
BRANCH  13  17
HETATM   17  C           1     -22.138 -10.529  -1.600  0.00  0.00     0.197 C 
HETATM   18  O           1     -21.464 -11.496  -2.019  0.00  0.00    -0.646 OA
HETATM   19  O           1     -23.343 -10.689  -1.304  0.00  0.00    -0.646 OA
ENDBRANCH  13  17
ENDBRANCH   1  13
TORSDOF 6
ENDMDL
MODEL 6
REMARK VINA RESULT:      -5.2      6.296      8.220
REMARK  6 active torsions:
REMARK  status: ('A' for Active; 'I' for Inactive)
REMARK    1  A    between atoms: C_2  and  C_3 
REMARK    2  A    between atoms: C_3  and  C_8 
REMARK    3  A    between atoms: C_3  and  N_16 
REMARK    4  A    between atoms: N_4  and  C_19 
REMARK       I    between atoms: N_4  and  C_8 
REMARK    5  A    between atoms: C_11  and  C_19 
REMARK    6  A    between atoms: C_18  and  C_19 
ROOT
HETATM    1  N           1     -21.941  -8.497  -2.082  0.00  0.00    -0.344 N 
HETATM    2  C           1     -21.527  -8.579  -0.780  0.00  0.00     0.249 C 
HETATM    3  H           1     -22.797  -8.953  -2.371  0.00  0.00     0.163 HD
HETATM    4  O           1     -20.505  -8.036  -0.435  0.00  0.00    -0.271 OA
ENDROOT
BRANCH   2   5
HETATM    5  C           1     -22.346  -9.353   0.225  0.00  0.00     0.278 C 
BRANCH   5   6
HETATM    6  C           1     -22.636 -10.745  -0.321  0.00  0.00     0.017 C 
HETATM    7  C           1     -21.837 -11.776   0.465  0.00  0.00     0.012 C 
HETATM    8  C           1     -24.123 -11.045  -0.182  0.00  0.00     0.012 C 
ENDBRANCH   5   6
BRANCH   5   9
HETATM    9  N           1     -23.638  -8.636   0.475  0.00  0.00    -0.066 N 
HETATM   10  H           1     -23.569  -8.094   1.366  0.00  0.00     0.275 HD
HETATM   11  H           1     -24.414  -9.332   0.551  0.00  0.00     0.275 HD
HETATM   12  H           1     -23.834  -7.982  -0.316  0.00  0.00     0.275 HD
ENDBRANCH   5   9
ENDBRANCH   2   5
BRANCH   1  13
HETATM   13  C           1     -21.154  -7.754  -3.047  0.00  0.00     0.189 C 
BRANCH  13  14
HETATM   14  C           1     -21.042  -8.560  -4.336  0.00  0.00     0.010 C 
HETATM   15  C           1     -19.572  -8.744  -4.693  0.00  0.00     0.012 C 
HETATM   16  C           1     -21.692  -9.922  -4.141  0.00  0.00     0.012 C 
ENDBRANCH  13  14
BRANCH  13  17
HETATM   17  C           1     -21.825  -6.434  -3.335  0.00  0.00     0.197 C 
HETATM   18  O           1     -22.388  -5.805  -2.412  0.00  0.00    -0.646 OA
HETATM   19  O           1     -21.820  -5.970  -4.496  0.00  0.00    -0.646 OA
ENDBRANCH  13  17
ENDBRANCH   1  13
TORSDOF 6
ENDMDL
MODEL 7
REMARK VINA RESULT:      -5.2     17.341     19.650
REMARK  6 active torsions:
REMARK  status: ('A' for Active; 'I' for Inactive)
REMARK    1  A    between atoms: C_2  and  C_3 
REMARK    2  A    between atoms: C_3  and  C_8 
REMARK    3  A    between atoms: C_3  and  N_16 
REMARK    4  A    between atoms: N_4  and  C_19 
REMARK       I    between atoms: N_4  and  C_8 
REMARK    5  A    between atoms: C_11  and  C_19 
REMARK    6  A    between atoms: C_18  and  C_19 
ROOT
HETATM    1  N           1     -12.086   5.677 -20.509  0.00  0.00    -0.344 N 
HETATM    2  C           1     -11.281   6.466 -21.286  0.00  0.00     0.249 C 
HETATM    3  H           1     -12.019   5.724 -19.500  0.00  0.00     0.163 HD
HETATM    4  O           1     -11.359   6.409 -22.490  0.00  0.00    -0.271 OA
ENDROOT
BRANCH   2   5
HETATM    5  C           1     -10.294   7.406 -20.638  0.00  0.00     0.278 C 
BRANCH   5   6
HETATM    6  C           1     -10.201   8.688 -21.454  0.00  0.00     0.017 C 
HETATM    7  C           1     -11.168   9.721 -20.889  0.00  0.00     0.012 C 
HETATM    8  C           1      -8.781   9.232 -21.385  0.00  0.00     0.012 C 
ENDBRANCH   5   6
BRANCH   5   9
HETATM    9  N           1      -8.946   6.753 -20.579  0.00  0.00    -0.066 N 
HETATM   10  H           1      -8.664   6.624 -19.581  0.00  0.00     0.275 HD
HETATM   11  H           1      -8.245   7.358 -21.064  0.00  0.00     0.275 HD
HETATM   12  H           1      -8.988   5.822 -21.052  0.00  0.00     0.275 HD
ENDBRANCH   5   9
ENDBRANCH   2   5
BRANCH   1  13
HETATM   13  C           1     -13.033   4.773 -21.132  0.00  0.00     0.189 C 
BRANCH  13  14
HETATM   14  C           1     -12.802   3.359 -20.612  0.00  0.00     0.010 C 
HETATM   15  C           1     -13.599   2.372 -21.455  0.00  0.00     0.012 C 
HETATM   16  C           1     -11.319   3.023 -20.701  0.00  0.00     0.012 C 
ENDBRANCH  13  14
BRANCH  13  17
HETATM   17  C           1     -14.438   5.209 -20.797  0.00  0.00     0.197 C 
HETATM   18  O           1     -14.799   5.290 -19.602  0.00  0.00    -0.646 OA
HETATM   19  O           1     -15.242   5.489 -21.713  0.00  0.00    -0.646 OA
ENDBRANCH  13  17
ENDBRANCH   1  13
TORSDOF 6
ENDMDL
MODEL 8
REMARK VINA RESULT:      -5.1      9.114     11.542
REMARK  6 active torsions:
REMARK  status: ('A' for Active; 'I' for Inactive)
REMARK    1  A    between atoms: C_2  and  C_3 
REMARK    2  A    between atoms: C_3  and  C_8 
REMARK    3  A    between atoms: C_3  and  N_16 
REMARK    4  A    between atoms: N_4  and  C_19 
REMARK       I    between atoms: N_4  and  C_8 
REMARK    5  A    between atoms: C_11  and  C_19 
REMARK    6  A    between atoms: C_18  and  C_19 
ROOT
HETATM    1  N           1     -21.518 -10.896  -0.250  0.00  0.00    -0.344 N 
HETATM    2  C           1     -20.983  -9.802   0.374  0.00  0.00     0.249 C 
HETATM    3  H           1     -21.881 -10.814  -1.191  0.00  0.00     0.163 HD
HETATM    4  O           1     -20.549  -9.899   1.497  0.00  0.00    -0.271 OA
ENDROOT
BRANCH   2   5
HETATM    5  C           1     -20.938  -8.473  -0.340  0.00  0.00     0.278 C 
BRANCH   5   6
HETATM    6  C           1     -22.357  -8.010  -0.643  0.00  0.00     0.017 C 
HETATM    7  C           1     -23.144  -7.901   0.657  0.00  0.00     0.012 C 
HETATM    8  C           1     -22.312  -6.649  -1.325  0.00  0.00     0.012 C 
ENDBRANCH   5   6
BRANCH   5   9
HETATM    9  N           1     -20.176  -8.619  -1.622  0.00  0.00    -0.066 N 
HETATM   10  H           1     -19.509  -7.821  -1.725  0.00  0.00     0.275 HD
HETATM   11  H           1     -20.844  -8.621  -2.426  0.00  0.00     0.275 HD
HETATM   12  H           1     -19.644  -9.519  -1.611  0.00  0.00     0.275 HD
ENDBRANCH   5   9
ENDBRANCH   2   5
BRANCH   1  13
HETATM   13  C           1     -21.562 -12.173   0.436  0.00  0.00     0.189 C 
BRANCH  13  14
HETATM   14  C           1     -22.960 -12.766   0.313  0.00  0.00     0.010 C 
HETATM   15  C           1     -23.340 -13.445   1.622  0.00  0.00     0.012 C 
HETATM   16  C           1     -23.957 -11.656   0.009  0.00  0.00     0.012 C 
ENDBRANCH  13  14
BRANCH  13  17
HETATM   17  C           1     -20.560 -13.113  -0.186  0.00  0.00     0.197 C 
HETATM   18  O           1     -19.983 -13.969   0.520  0.00  0.00    -0.646 OA
HETATM   19  O           1     -20.305 -13.036  -1.408  0.00  0.00    -0.646 OA
ENDBRANCH  13  17
ENDBRANCH   1  13
TORSDOF 6
ENDMDL
MODEL 9
REMARK VINA RESULT:      -5.1      7.596      9.206
REMARK  6 active torsions:
REMARK  status: ('A' for Active; 'I' for Inactive)
REMARK    1  A    between atoms: C_2  and  C_3 
REMARK    2  A    between atoms: C_3  and  C_8 
REMARK    3  A    between atoms: C_3  and  N_16 
REMARK    4  A    between atoms: N_4  and  C_19 
REMARK       I    between atoms: N_4  and  C_8 
REMARK    5  A    between atoms: C_11  and  C_19 
REMARK    6  A    between atoms: C_18  and  C_19 
ROOT
HETATM    1  N           1     -20.388  -8.929  -1.547  0.00  0.00    -0.344 N 
HETATM    2  C           1     -20.006  -9.990  -2.323  0.00  0.00     0.249 C 
HETATM    3  H           1     -19.705  -8.452  -0.971  0.00  0.00     0.163 HD
HETATM    4  O           1     -20.820 -10.560  -3.010  0.00  0.00    -0.271 OA
ENDROOT
BRANCH   2   5
HETATM    5  C           1     -18.568 -10.450  -2.318  0.00  0.00     0.278 C 
BRANCH   5   6
HETATM    6  C           1     -17.717  -9.463  -3.105  0.00  0.00     0.017 C 
HETATM    7  C           1     -16.251  -9.643  -2.730  0.00  0.00     0.012 C 
HETATM    8  C           1     -17.892  -9.718  -4.597  0.00  0.00     0.012 C 
ENDBRANCH   5   6
BRANCH   5   9
HETATM    9  N           1     -18.474 -11.806  -2.950  0.00  0.00    -0.066 N 
HETATM   10  H           1     -17.492 -12.155  -2.881  0.00  0.00     0.275 HD
HETATM   11  H           1     -18.752 -11.741  -3.955  0.00  0.00     0.275 HD
HETATM   12  H           1     -19.115 -12.467  -2.454  0.00  0.00     0.275 HD
ENDBRANCH   5   9
ENDBRANCH   2   5
BRANCH   1  13
HETATM   13  C           1     -21.769  -8.488  -1.551  0.00  0.00     0.189 C 
BRANCH  13  14
HETATM   14  C           1     -22.373  -8.701  -0.168  0.00  0.00     0.010 C 
HETATM   15  C           1     -23.186  -9.989  -0.163  0.00  0.00     0.012 C 
HETATM   16  C           1     -21.257  -8.800   0.863  0.00  0.00     0.012 C 
ENDBRANCH  13  14
BRANCH  13  17
HETATM   17  C           1     -21.828  -7.023  -1.905  0.00  0.00     0.197 C 
HETATM   18  O           1     -22.558  -6.249  -1.248  0.00  0.00    -0.646 OA
HETATM   19  O           1     -21.146  -6.581  -2.857  0.00  0.00    -0.646 OA
ENDBRANCH  13  17
ENDBRANCH   1  13
TORSDOF 6
ENDMDL
