MODEL 1
REMARK VINA RESULT:      -7.7      0.000      0.000
REMARK  15 active torsions:
REMARK  status: ('A' for Active; 'I' for Inactive)
REMARK    1  A    between atoms: C_8  and  N_9 
REMARK    2  A    between atoms: C_8  and  C_36 
REMARK    3  A    between atoms: N_9  and  C_28 
REMARK    4  A    between atoms: N_14  and  C_15 
REMARK       I    between atoms: N_14  and  C_40 
REMARK    5  A    between atoms: C_15  and  C_16 
REMARK    6  A    between atoms: C_16  and  C_18 
REMARK    7  A    between atoms: C_18  and  C_19 
REMARK    8  A    between atoms: C_19  and  C_20 
REMARK    9  A    between atoms: C_19  and  N_26 
REMARK       I    between atoms: C_20  and  N_21 
REMARK   10  A    between atoms: N_21  and  C_35 
REMARK   11  A    between atoms: C_24  and  C_35 
REMARK       I    between atoms: N_25  and  C_40 
REMARK   12  A    between atoms: C_28  and  C_34 
REMARK   13  A    between atoms: C_28  and  C_29 
REMARK   14  A    between atoms: C_29  and  C_30 
REMARK   15  A    between atoms: C_35  and  C_36 
ROOT
HETATM    1  C           1     -21.492  -7.863  -0.983  0.00  0.00     0.187 C 
ENDROOT
BRANCH   1   2
HETATM    2  N           1     -21.822  -8.998  -1.822  0.00  0.00    -0.345 N 
HETATM    3  H           1     -22.663  -8.984  -2.385  0.00  0.00     0.163 HD
HETATM    4  C           1     -20.997 -10.089  -1.853  0.00  0.00     0.249 C 
HETATM    5  O           1     -19.993 -10.107  -1.180  0.00  0.00    -0.271 OA
BRANCH   4   6
HETATM    6  C           1     -21.340 -11.271  -2.726  0.00  0.00     0.274 C 
BRANCH   6   7
HETATM    7  C           1     -22.254 -10.819  -3.857  0.00  0.00     0.044 C 
BRANCH   7   8
HETATM    8  C           1     -21.811 -11.471  -5.160  0.00  0.00     0.023 C 
BRANCH   8   9
HETATM    9  C           1     -20.321 -11.781  -5.093  0.00  0.00     0.138 C 
BRANCH   9  10
HETATM   10  N           1     -19.594 -10.906  -6.023  0.00  0.00    -0.227 N 
HETATM   11  H           1     -19.971 -10.739  -6.989  0.00  0.00     0.177 HD
HETATM   12  C           1     -18.514 -10.353  -5.662  0.00  0.00     0.665 C 
HETATM   13  N           1     -17.889  -9.600  -6.463  0.00  0.00    -0.235 N 
HETATM   14  N           1     -18.047 -10.561  -4.466  0.00  0.00    -0.235 N 
HETATM   15  H           1     -18.265  -9.432  -7.429  0.00  0.00     0.174 HD
HETATM   16  H           1     -16.992  -9.142  -6.162  0.00  0.00     0.174 HD
HETATM   17  H           1     -18.563 -11.184  -3.804  0.00  0.00     0.174 HD
HETATM   18  H           1     -17.156 -10.106  -4.167  0.00  0.00     0.174 HD
ENDBRANCH   9  10
ENDBRANCH   8   9
ENDBRANCH   7   8
ENDBRANCH   6   7
BRANCH   6  19
HETATM   19  N           1     -22.040 -12.312  -1.903  0.00  0.00    -0.067 N 
HETATM   20  H           1     -21.791 -12.188  -0.896  0.00  0.00     0.275 HD
HETATM   21  H           1     -23.074 -12.209  -2.021  0.00  0.00     0.275 HD
HETATM   22  H           1     -21.746 -13.262  -2.221  0.00  0.00     0.275 HD
ENDBRANCH   6  19
ENDBRANCH   4   6
ENDBRANCH   1   2
BRANCH   1  23
HETATM   23  C           1     -22.140  -8.033   0.370  0.00  0.00     0.196 C 
HETATM   24  O           1     -23.384  -7.972   0.480  0.00  0.00    -0.646 OA
HETATM   25  O           1     -21.433  -8.236   1.380  0.00  0.00    -0.646 OA
ENDBRANCH   1  23
BRANCH   1  26
HETATM   26  C           1     -22.004  -6.584  -1.633  0.00  0.00     0.066 C 
BRANCH  26  27
HETATM   27  C           1     -22.200  -6.816  -3.126  0.00  0.00     0.273 C 
BRANCH  27  28
HETATM   28  N           1     -21.458  -5.831  -3.865  0.00  0.00     0.098 N 
HETATM   29  H           1     -20.481  -5.852  -3.575  0.00  0.00     0.317 HD
BRANCH  28  30
HETATM   30  C           1     -21.552  -6.170  -5.260  0.00  0.00     0.324 C 
BRANCH  30  31
HETATM   31  C           1     -20.843  -7.479  -5.507  0.00  0.00     0.207 C 
HETATM   32  O           1     -21.359  -8.338  -6.253  0.00  0.00    -0.646 OA
HETATM   33  O           1     -19.739  -7.704  -4.965  0.00  0.00    -0.646 OA
ENDBRANCH  30  31
BRANCH  30  34
HETATM   34  C           1     -20.901  -5.074  -6.093  0.00  0.00     0.087 C 
BRANCH  34  35
HETATM   35  C           1     -21.816  -4.685  -7.211  0.00  0.00    -0.028 A 
HETATM   36  C           1     -21.448  -4.506  -8.574  0.00  0.00    -0.002 A 
HETATM   37  C           1     -20.238  -4.618  -9.283  0.00  0.00     0.014 A 
HETATM   38  C           1     -22.603  -4.148  -9.268  0.00  0.00     0.042 A 
HETATM   39  C           1     -20.225  -4.366 -10.661  0.00  0.00     0.001 A 
HETATM   40  C           1     -21.395  -4.009 -11.328  0.00  0.00     0.002 A 
HETATM   41  C           1     -22.609  -3.892 -10.645  0.00  0.00     0.030 A 
HETATM   42  N           1     -23.631  -4.111  -8.352  0.00  0.00    -0.365 N 
HETATM   43  H           1     -24.628  -3.869  -8.576  0.00  0.00     0.165 HD
HETATM   44  C           1     -23.165  -4.434  -7.105  0.00  0.00     0.096 A 
ENDBRANCH  34  35
ENDBRANCH  30  34
ENDBRANCH  28  30
ENDBRANCH  27  28
ENDBRANCH  26  27
ENDBRANCH   1  26
TORSDOF 15
ENDMDL
MODEL 2
REMARK VINA RESULT:      -7.7      2.269      8.463
REMARK  15 active torsions:
REMARK  status: ('A' for Active; 'I' for Inactive)
REMARK    1  A    between atoms: C_8  and  N_9 
REMARK    2  A    between atoms: C_8  and  C_36 
REMARK    3  A    between atoms: N_9  and  C_28 
REMARK    4  A    between atoms: N_14  and  C_15 
REMARK       I    between atoms: N_14  and  C_40 
REMARK    5  A    between atoms: C_15  and  C_16 
REMARK    6  A    between atoms: C_16  and  C_18 
REMARK    7  A    between atoms: C_18  and  C_19 
REMARK    8  A    between atoms: C_19  and  C_20 
REMARK    9  A    between atoms: C_19  and  N_26 
REMARK       I    between atoms: C_20  and  N_21 
REMARK   10  A    between atoms: N_21  and  C_35 
REMARK   11  A    between atoms: C_24  and  C_35 
REMARK       I    between atoms: N_25  and  C_40 
REMARK   12  A    between atoms: C_28  and  C_34 
REMARK   13  A    between atoms: C_28  and  C_29 
REMARK   14  A    between atoms: C_29  and  C_30 
REMARK   15  A    between atoms: C_35  and  C_36 
ROOT
HETATM    1  C           1     -20.605  -9.468  -4.756  0.00  0.00     0.187 C 
ENDROOT
BRANCH   1   2
HETATM    2  N           1     -21.398  -8.332  -5.185  0.00  0.00    -0.345 N 
HETATM    3  H           1     -22.382  -8.286  -4.955  0.00  0.00     0.163 HD
HETATM    4  C           1     -20.815  -7.322  -5.902  0.00  0.00     0.249 C 
HETATM    5  O           1     -19.641  -7.377  -6.177  0.00  0.00    -0.271 OA
BRANCH   4   6
HETATM    6  C           1     -21.640  -6.141  -6.349  0.00  0.00     0.274 C 
BRANCH   6   7
HETATM    7  C           1     -20.734  -4.932  -6.542  0.00  0.00     0.044 C 
BRANCH   7   8
HETATM    8  C           1     -21.541  -3.780  -7.129  0.00  0.00     0.023 C 
BRANCH   8   9
HETATM    9  C           1     -22.126  -4.201  -8.471  0.00  0.00     0.138 C 
BRANCH   9  10
HETATM   10  N           1     -23.483  -3.655  -8.608  0.00  0.00    -0.227 N 
HETATM   11  H           1     -23.835  -2.946  -7.919  0.00  0.00     0.177 HD
HETATM   12  C           1     -24.228  -4.039  -9.557  0.00  0.00     0.665 C 
HETATM   13  N           1     -25.397  -3.567  -9.675  0.00  0.00    -0.235 N 
HETATM   14  N           1     -23.792  -4.917 -10.411  0.00  0.00    -0.235 N 
HETATM   15  H           1     -25.750  -2.859  -8.986  0.00  0.00     0.174 HD
HETATM   16  H           1     -26.015  -3.887 -10.463  0.00  0.00     0.174 HD
HETATM   17  H           1     -22.827  -5.306 -10.313  0.00  0.00     0.174 HD
HETATM   18  H           1     -24.406  -5.234 -11.194  0.00  0.00     0.174 HD
ENDBRANCH   9  10
ENDBRANCH   8   9
ENDBRANCH   7   8
ENDBRANCH   6   7
BRANCH   6  19
HETATM   19  N           1     -22.672  -5.828  -5.305  0.00  0.00    -0.067 N 
HETATM   20  H           1     -23.526  -5.438  -5.764  0.00  0.00     0.275 HD
HETATM   21  H           1     -22.923  -6.704  -4.792  0.00  0.00     0.275 HD
HETATM   22  H           1     -22.286  -5.128  -4.633  0.00  0.00     0.275 HD
ENDBRANCH   6  19
ENDBRANCH   4   6
ENDBRANCH   1   2
BRANCH   1  23
HETATM   23  C           1     -21.075 -10.708  -5.475  0.00  0.00     0.196 C 
HETATM   24  O           1     -20.661 -10.957  -6.628  0.00  0.00    -0.646 OA
HETATM   25  O           1     -21.878 -11.487  -4.918  0.00  0.00    -0.646 OA
ENDBRANCH   1  23
BRANCH   1  26
HETATM   26  C           1     -20.766  -9.660  -3.254  0.00  0.00     0.066 C 
BRANCH  26  27
HETATM   27  C           1     -19.494  -9.212  -2.544  0.00  0.00     0.273 C 
BRANCH  27  28
HETATM   28  N           1     -19.788  -8.083  -1.703  0.00  0.00     0.098 N 
HETATM   29  H           1     -19.574  -7.220  -2.203  0.00  0.00     0.317 HD
BRANCH  28  30
HETATM   30  C           1     -21.192  -8.122  -1.394  0.00  0.00     0.324 C 
BRANCH  30  31
HETATM   31  C           1     -21.826  -6.807  -1.773  0.00  0.00     0.207 C 
HETATM   32  O           1     -21.390  -6.161  -2.749  0.00  0.00    -0.646 OA
HETATM   33  O           1     -22.789  -6.363  -1.110  0.00  0.00    -0.646 OA
ENDBRANCH  30  31
BRANCH  30  34
HETATM   34  C           1     -21.376  -8.365   0.098  0.00  0.00     0.087 C 
BRANCH  34  35
HETATM   35  C           1     -21.386  -9.836   0.369  0.00  0.00    -0.028 A 
HETATM   36  C           1     -22.382 -10.760  -0.053  0.00  0.00    -0.002 A 
HETATM   37  C           1     -23.575 -10.645  -0.791  0.00  0.00     0.014 A 
HETATM   38  C           1     -21.998 -12.018   0.412  0.00  0.00     0.042 A 
HETATM   39  C           1     -24.343 -11.790  -1.036  0.00  0.00     0.001 A 
HETATM   40  C           1     -23.936 -13.034  -0.557  0.00  0.00     0.002 A 
HETATM   41  C           1     -22.755 -13.173   0.177  0.00  0.00     0.030 A 
HETATM   42  N           1     -20.813 -11.854   1.092  0.00  0.00    -0.365 N 
HETATM   43  H           1     -20.276 -12.627   1.560  0.00  0.00     0.165 HD
HETATM   44  C           1     -20.433 -10.538   1.072  0.00  0.00     0.096 A 
ENDBRANCH  34  35
ENDBRANCH  30  34
ENDBRANCH  28  30
ENDBRANCH  27  28
ENDBRANCH  26  27
ENDBRANCH   1  26
TORSDOF 15
ENDMDL
MODEL 3
REMARK VINA RESULT:      -7.2      2.351      8.640
REMARK  15 active torsions:
REMARK  status: ('A' for Active; 'I' for Inactive)
REMARK    1  A    between atoms: C_8  and  N_9 
REMARK    2  A    between atoms: C_8  and  C_36 
REMARK    3  A    between atoms: N_9  and  C_28 
REMARK    4  A    between atoms: N_14  and  C_15 
REMARK       I    between atoms: N_14  and  C_40 
REMARK    5  A    between atoms: C_15  and  C_16 
REMARK    6  A    between atoms: C_16  and  C_18 
REMARK    7  A    between atoms: C_18  and  C_19 
REMARK    8  A    between atoms: C_19  and  C_20 
REMARK    9  A    between atoms: C_19  and  N_26 
REMARK       I    between atoms: C_20  and  N_21 
REMARK   10  A    between atoms: N_21  and  C_35 
REMARK   11  A    between atoms: C_24  and  C_35 
REMARK       I    between atoms: N_25  and  C_40 
REMARK   12  A    between atoms: C_28  and  C_34 
REMARK   13  A    between atoms: C_28  and  C_29 
REMARK   14  A    between atoms: C_29  and  C_30 
REMARK   15  A    between atoms: C_35  and  C_36 
ROOT
HETATM    1  C           1     -19.280  -8.971  -4.789  0.00  0.00     0.187 C 
ENDROOT
BRANCH   1   2
HETATM    2  N           1     -20.307  -8.416  -5.650  0.00  0.00    -0.345 N 
HETATM    3  H           1     -20.785  -9.010  -6.315  0.00  0.00     0.163 HD
HETATM    4  C           1     -20.627  -7.088  -5.564  0.00  0.00     0.249 C 
HETATM    5  O           1     -20.056  -6.379  -4.771  0.00  0.00    -0.271 OA
BRANCH   4   6
HETATM    6  C           1     -21.695  -6.510  -6.460  0.00  0.00     0.274 C 
BRANCH   6   7
HETATM    7  C           1     -21.051  -5.589  -7.489  0.00  0.00     0.044 C 
BRANCH   7   8
HETATM    8  C           1     -21.727  -4.225  -7.443  0.00  0.00     0.023 C 
BRANCH   8   9
HETATM    9  C           1     -22.140  -3.815  -8.851  0.00  0.00     0.138 C 
BRANCH   9  10
HETATM   10  N           1     -23.552  -3.407  -8.849  0.00  0.00    -0.227 N 
HETATM   11  H           1     -23.891  -2.691  -8.159  0.00  0.00     0.177 HD
HETATM   12  C           1     -24.361  -3.918  -9.678  0.00  0.00     0.665 C 
HETATM   13  N           1     -25.577  -3.567  -9.677  0.00  0.00    -0.235 N 
HETATM   14  N           1     -23.942  -4.805 -10.532  0.00  0.00    -0.235 N 
HETATM   15  H           1     -25.916  -2.851  -8.987  0.00  0.00     0.174 HD
HETATM   16  H           1     -26.247  -3.992 -10.365  0.00  0.00     0.174 HD
HETATM   17  H           1     -22.937  -5.095 -10.533  0.00  0.00     0.174 HD
HETATM   18  H           1     -24.608  -5.227 -11.217  0.00  0.00     0.174 HD
ENDBRANCH   9  10
ENDBRANCH   8   9
ENDBRANCH   7   8
ENDBRANCH   6   7
BRANCH   6  19
HETATM   19  N           1     -22.671  -5.727  -5.632  0.00  0.00    -0.067 N 
HETATM   20  H           1     -22.155  -5.031  -5.048  0.00  0.00     0.275 HD
HETATM   21  H           1     -23.338  -5.226  -6.263  0.00  0.00     0.275 HD
HETATM   22  H           1     -23.201  -6.378  -5.011  0.00  0.00     0.275 HD
ENDBRANCH   6  19
ENDBRANCH   4   6
ENDBRANCH   1   2
BRANCH   1  23
HETATM   23  C           1     -18.440  -9.948  -5.575  0.00  0.00     0.196 C 
HETATM   24  O           1     -18.977 -10.695  -6.422  0.00  0.00    -0.646 OA
HETATM   25  O           1     -17.207 -10.010  -5.380  0.00  0.00    -0.646 OA
ENDBRANCH   1  23
BRANCH   1  26
HETATM   26  C           1     -19.935  -9.691  -3.618  0.00  0.00     0.066 C 
BRANCH  26  27
HETATM   27  C           1     -19.417  -9.111  -2.309  0.00  0.00     0.273 C 
BRANCH  27  28
HETATM   28  N           1     -20.072  -7.858  -2.048  0.00  0.00     0.098 N 
HETATM   29  H           1     -20.136  -7.320  -2.912  0.00  0.00     0.317 HD
BRANCH  28  30
HETATM   30  C           1     -21.396  -8.149  -1.566  0.00  0.00     0.324 C 
BRANCH  30  31
HETATM   31  C           1     -22.214  -6.882  -1.550  0.00  0.00     0.207 C 
HETATM   32  O           1     -22.236  -6.139  -2.555  0.00  0.00    -0.646 OA
HETATM   33  O           1     -22.872  -6.575  -0.532  0.00  0.00    -0.646 OA
ENDBRANCH  30  31
BRANCH  30  34
HETATM   34  C           1     -21.308  -8.715  -0.155  0.00  0.00     0.087 C 
BRANCH  34  35
HETATM   35  C           1     -22.171  -9.933  -0.050  0.00  0.00    -0.028 A 
HETATM   36  C           1     -21.716 -11.271   0.117  0.00  0.00    -0.002 A 
HETATM   37  C           1     -20.447 -11.867   0.233  0.00  0.00     0.014 A 
HETATM   38  C           1     -22.848 -12.086   0.167  0.00  0.00     0.042 A 
HETATM   39  C           1     -20.352 -13.255   0.392  0.00  0.00     0.001 A 
HETATM   40  C           1     -21.500 -14.044   0.438  0.00  0.00     0.002 A 
HETATM   41  C           1     -22.772 -13.475   0.325  0.00  0.00     0.030 A 
HETATM   42  N           1     -23.944 -11.264   0.033  0.00  0.00    -0.365 N 
HETATM   43  H           1     -24.943 -11.590   0.031  0.00  0.00     0.165 HD
HETATM   44  C           1     -23.546  -9.960  -0.099  0.00  0.00     0.096 A 
ENDBRANCH  34  35
ENDBRANCH  30  34
ENDBRANCH  28  30
ENDBRANCH  27  28
ENDBRANCH  26  27
ENDBRANCH   1  26
TORSDOF 15
ENDMDL
MODEL 4
REMARK VINA RESULT:      -7.1     14.729     17.528
REMARK  15 active torsions:
REMARK  status: ('A' for Active; 'I' for Inactive)
REMARK    1  A    between atoms: C_8  and  N_9 
REMARK    2  A    between atoms: C_8  and  C_36 
REMARK    3  A    between atoms: N_9  and  C_28 
REMARK    4  A    between atoms: N_14  and  C_15 
REMARK       I    between atoms: N_14  and  C_40 
REMARK    5  A    between atoms: C_15  and  C_16 
REMARK    6  A    between atoms: C_16  and  C_18 
REMARK    7  A    between atoms: C_18  and  C_19 
REMARK    8  A    between atoms: C_19  and  C_20 
REMARK    9  A    between atoms: C_19  and  N_26 
REMARK       I    between atoms: C_20  and  N_21 
REMARK   10  A    between atoms: N_21  and  C_35 
REMARK   11  A    between atoms: C_24  and  C_35 
REMARK       I    between atoms: N_25  and  C_40 
REMARK   12  A    between atoms: C_28  and  C_34 
REMARK   13  A    between atoms: C_28  and  C_29 
REMARK   14  A    between atoms: C_29  and  C_30 
REMARK   15  A    between atoms: C_35  and  C_36 
ROOT
HETATM    1  C           1     -35.614  -1.332 -15.464  0.00  0.00     0.187 C 
ENDROOT
BRANCH   1   2
HETATM    2  N           1     -34.704  -1.903 -16.438  0.00  0.00    -0.345 N 
HETATM    3  H           1     -34.479  -1.390 -17.281  0.00  0.00     0.163 HD
HETATM    4  C           1     -34.152  -3.136 -16.219  0.00  0.00     0.249 C 
HETATM    5  O           1     -34.422  -3.748 -15.213  0.00  0.00    -0.271 OA
BRANCH   4   6
HETATM    6  C           1     -33.206  -3.730 -17.232  0.00  0.00     0.274 C 
BRANCH   6   7
HETATM    7  C           1     -32.485  -4.923 -16.617  0.00  0.00     0.044 C 
BRANCH   7   8
HETATM    8  C           1     -30.988  -4.799 -16.873  0.00  0.00     0.023 C 
BRANCH   8   9
HETATM    9  C           1     -30.281  -6.050 -16.367  0.00  0.00     0.138 C 
BRANCH   9  10
HETATM   10  N           1     -30.481  -7.148 -17.322  0.00  0.00    -0.227 N 
HETATM   11  H           1     -31.407  -7.641 -17.368  0.00  0.00     0.177 HD
HETATM   12  C           1     -29.538  -7.500 -18.090  0.00  0.00     0.665 C 
HETATM   13  N           1     -29.711  -8.446 -18.913  0.00  0.00    -0.235 N 
HETATM   14  N           1     -28.391  -6.889 -18.033  0.00  0.00    -0.235 N 
HETATM   15  H           1     -30.636  -8.939 -18.960  0.00  0.00     0.174 HD
HETATM   16  H           1     -28.928  -8.738 -19.550  0.00  0.00     0.174 HD
HETATM   17  H           1     -28.249  -6.108 -17.353  0.00  0.00     0.174 HD
HETATM   18  H           1     -27.613  -7.179 -18.666  0.00  0.00     0.174 HD
ENDBRANCH   9  10
ENDBRANCH   8   9
ENDBRANCH   7   8
ENDBRANCH   6   7
BRANCH   6  19
HETATM   19  N           1     -32.199  -2.696 -17.642  0.00  0.00    -0.067 N 
HETATM   20  H           1     -31.296  -3.163 -17.882  0.00  0.00     0.275 HD
HETATM   21  H           1     -32.555  -2.177 -18.478  0.00  0.00     0.275 HD
HETATM   22  H           1     -32.047  -2.027 -16.855  0.00  0.00     0.275 HD
ENDBRANCH   6  19
ENDBRANCH   4   6
ENDBRANCH   1   2
BRANCH   1  23
HETATM   23  C           1     -36.725  -0.604 -16.181  0.00  0.00     0.196 C 
HETATM   24  O           1     -36.653   0.633 -16.351  0.00  0.00    -0.646 OA
HETATM   25  O           1     -37.716  -1.236 -16.604  0.00  0.00    -0.646 OA
ENDBRANCH   1  23
BRANCH   1  26
HETATM   26  C           1     -34.857  -0.356 -14.574  0.00  0.00     0.066 C 
BRANCH  26  27
HETATM   27  C           1     -35.562  -0.241 -13.228  0.00  0.00     0.273 C 
BRANCH  27  28
HETATM   28  N           1     -34.664  -0.648 -12.181  0.00  0.00     0.098 N 
HETATM   29  H           1     -34.441   0.154 -11.592  0.00  0.00     0.317 HD
BRANCH  28  30
HETATM   30  C           1     -35.335  -1.649 -11.395  0.00  0.00     0.324 C 
BRANCH  30  31
HETATM   31  C           1     -36.523  -1.029 -10.703  0.00  0.00     0.207 C 
HETATM   32  O           1     -36.351  -0.140  -9.842  0.00  0.00    -0.646 OA
HETATM   33  O           1     -37.681  -1.404 -10.991  0.00  0.00    -0.646 OA
ENDBRANCH  30  31
BRANCH  30  34
HETATM   34  C           1     -34.373  -2.205 -10.354  0.00  0.00     0.087 C 
BRANCH  34  35
HETATM   35  C           1     -33.750  -3.464 -10.870  0.00  0.00    -0.028 A 
HETATM   36  C           1     -34.127  -4.790 -10.521  0.00  0.00    -0.002 A 
HETATM   37  C           1     -35.103  -5.339  -9.669  0.00  0.00     0.014 A 
HETATM   38  C           1     -33.291  -5.654 -11.229  0.00  0.00     0.042 A 
HETATM   39  C           1     -35.209  -6.730  -9.553  0.00  0.00     0.001 A 
HETATM   40  C           1     -34.359  -7.569 -10.272  0.00  0.00     0.002 A 
HETATM   41  C           1     -33.382  -7.048 -11.125  0.00  0.00     0.030 A 
HETATM   42  N           1     -32.440  -4.872 -11.977  0.00  0.00    -0.365 N 
HETATM   43  H           1     -31.691  -5.239 -12.615  0.00  0.00     0.165 HD
HETATM   44  C           1     -32.709  -3.545 -11.767  0.00  0.00     0.096 A 
ENDBRANCH  34  35
ENDBRANCH  30  34
ENDBRANCH  28  30
ENDBRANCH  27  28
ENDBRANCH  26  27
ENDBRANCH   1  26
TORSDOF 15
ENDMDL
MODEL 5
REMARK VINA RESULT:      -7.1      2.781      8.378
REMARK  15 active torsions:
REMARK  status: ('A' for Active; 'I' for Inactive)
REMARK    1  A    between atoms: C_8  and  N_9 
REMARK    2  A    between atoms: C_8  and  C_36 
REMARK    3  A    between atoms: N_9  and  C_28 
REMARK    4  A    between atoms: N_14  and  C_15 
REMARK       I    between atoms: N_14  and  C_40 
REMARK    5  A    between atoms: C_15  and  C_16 
REMARK    6  A    between atoms: C_16  and  C_18 
REMARK    7  A    between atoms: C_18  and  C_19 
REMARK    8  A    between atoms: C_19  and  C_20 
REMARK    9  A    between atoms: C_19  and  N_26 
REMARK       I    between atoms: C_20  and  N_21 
REMARK   10  A    between atoms: N_21  and  C_35 
REMARK   11  A    between atoms: C_24  and  C_35 
REMARK       I    between atoms: N_25  and  C_40 
REMARK   12  A    between atoms: C_28  and  C_34 
REMARK   13  A    between atoms: C_28  and  C_29 
REMARK   14  A    between atoms: C_29  and  C_30 
REMARK   15  A    between atoms: C_35  and  C_36 
ROOT
HETATM    1  C           1     -21.497  -7.582  -2.560  0.00  0.00     0.187 C 
ENDROOT
BRANCH   1   2
HETATM    2  N           1     -20.920  -6.733  -3.584  0.00  0.00    -0.345 N 
HETATM    3  H           1     -20.034  -6.274  -3.420  0.00  0.00     0.163 HD
HETATM    4  C           1     -21.575  -6.553  -4.772  0.00  0.00     0.249 C 
HETATM    5  O           1     -22.633  -7.102  -4.968  0.00  0.00    -0.271 OA
BRANCH   4   6
HETATM    6  C           1     -20.976  -5.670  -5.838  0.00  0.00     0.274 C 
BRANCH   6   7
HETATM    7  C           1     -22.091  -5.032  -6.657  0.00  0.00     0.044 C 
BRANCH   7   8
HETATM    8  C           1     -21.539  -3.839  -7.425  0.00  0.00     0.023 C 
BRANCH   8   9
HETATM    9  C           1     -22.124  -3.824  -8.832  0.00  0.00     0.138 C 
BRANCH   9  10
HETATM   10  N           1     -23.559  -3.513  -8.763  0.00  0.00    -0.227 N 
HETATM   11  H           1     -23.948  -3.016  -7.925  0.00  0.00     0.177 HD
HETATM   12  C           1     -24.325  -3.845  -9.715  0.00  0.00     0.665 C 
HETATM   13  N           1     -25.560  -3.576  -9.656  0.00  0.00    -0.235 N 
HETATM   14  N           1     -23.842  -4.461 -10.754  0.00  0.00    -0.235 N 
HETATM   15  H           1     -25.951  -3.079  -8.818  0.00  0.00     0.174 HD
HETATM   16  H           1     -26.196  -3.852 -10.446  0.00  0.00     0.174 HD
HETATM   17  H           1     -22.822  -4.683 -10.802  0.00  0.00     0.174 HD
HETATM   18  H           1     -24.474  -4.735 -11.539  0.00  0.00     0.174 HD
ENDBRANCH   9  10
ENDBRANCH   8   9
ENDBRANCH   7   8
ENDBRANCH   6   7
BRANCH   6  19
HETATM   19  N           1     -20.105  -6.495  -6.739  0.00  0.00    -0.067 N 
HETATM   20  H           1     -20.670  -6.849  -7.543  0.00  0.00     0.275 HD
HETATM   21  H           1     -19.319  -5.905  -7.098  0.00  0.00     0.275 HD
HETATM   22  H           1     -19.717  -7.303  -6.203  0.00  0.00     0.275 HD
ENDBRANCH   6  19
ENDBRANCH   4   6
ENDBRANCH   1   2
BRANCH   1  23
HETATM   23  C           1     -22.164  -6.724  -1.513  0.00  0.00     0.196 C 
HETATM   24  O           1     -22.343  -5.505  -1.726  0.00  0.00    -0.646 OA
HETATM   25  O           1     -22.537  -7.231  -0.433  0.00  0.00    -0.646 OA
ENDBRANCH   1  23
BRANCH   1  26
HETATM   26  C           1     -20.397  -8.413  -1.911  0.00  0.00     0.066 C 
BRANCH  26  27
HETATM   27  C           1     -20.774  -9.888  -1.966  0.00  0.00     0.273 C 
BRANCH  27  28
HETATM   28  N           1     -20.794 -10.326  -3.335  0.00  0.00     0.098 N 
HETATM   29  H           1     -21.467  -9.770  -3.861  0.00  0.00     0.317 HD
BRANCH  28  30
HETATM   30  C           1     -19.477 -10.124  -3.878  0.00  0.00     0.324 C 
BRANCH  30  31
HETATM   31  C           1     -19.590  -9.632  -5.300  0.00  0.00     0.207 C 
HETATM   32  O           1     -18.579  -9.202  -5.894  0.00  0.00    -0.646 OA
HETATM   33  O           1     -20.696  -9.656  -5.884  0.00  0.00    -0.646 OA
ENDBRANCH  30  31
BRANCH  30  34
HETATM   34  C           1     -18.710 -11.439  -3.853  0.00  0.00     0.087 C 
BRANCH  34  35
HETATM   35  C           1     -17.522 -11.309  -2.954  0.00  0.00    -0.028 A 
HETATM   36  C           1     -17.408 -11.828  -1.634  0.00  0.00    -0.002 A 
HETATM   37  C           1     -18.264 -12.564  -0.794  0.00  0.00     0.014 A 
HETATM   38  C           1     -16.141 -11.480  -1.164  0.00  0.00     0.042 A 
HETATM   39  C           1     -17.825 -12.925   0.486  0.00  0.00     0.001 A 
HETATM   40  C           1     -16.555 -12.562   0.930  0.00  0.00     0.002 A 
HETATM   41  C           1     -15.686 -11.832   0.113  0.00  0.00     0.030 A 
HETATM   42  N           1     -15.517 -10.774  -2.168  0.00  0.00    -0.365 N 
HETATM   43  H           1     -14.547 -10.376  -2.109  0.00  0.00     0.165 HD
HETATM   44  C           1     -16.343 -10.665  -3.255  0.00  0.00     0.096 A 
ENDBRANCH  34  35
ENDBRANCH  30  34
ENDBRANCH  28  30
ENDBRANCH  27  28
ENDBRANCH  26  27
ENDBRANCH   1  26
TORSDOF 15
ENDMDL
MODEL 6
REMARK VINA RESULT:      -7.1      2.228      8.249
REMARK  15 active torsions:
REMARK  status: ('A' for Active; 'I' for Inactive)
REMARK    1  A    between atoms: C_8  and  N_9 
REMARK    2  A    between atoms: C_8  and  C_36 
REMARK    3  A    between atoms: N_9  and  C_28 
REMARK    4  A    between atoms: N_14  and  C_15 
REMARK       I    between atoms: N_14  and  C_40 
REMARK    5  A    between atoms: C_15  and  C_16 
REMARK    6  A    between atoms: C_16  and  C_18 
REMARK    7  A    between atoms: C_18  and  C_19 
REMARK    8  A    between atoms: C_19  and  C_20 
REMARK    9  A    between atoms: C_19  and  N_26 
REMARK       I    between atoms: C_20  and  N_21 
REMARK   10  A    between atoms: N_21  and  C_35 
REMARK   11  A    between atoms: C_24  and  C_35 
REMARK       I    between atoms: N_25  and  C_40 
REMARK   12  A    between atoms: C_28  and  C_34 
REMARK   13  A    between atoms: C_28  and  C_29 
REMARK   14  A    between atoms: C_29  and  C_30 
REMARK   15  A    between atoms: C_35  and  C_36 
ROOT
HETATM    1  C           1     -21.288  -7.815  -2.626  0.00  0.00     0.187 C 
ENDROOT
BRANCH   1   2
HETATM    2  N           1     -21.049  -6.593  -3.369  0.00  0.00    -0.345 N 
HETATM    3  H           1     -20.636  -5.793  -2.908  0.00  0.00     0.163 HD
HETATM    4  C           1     -21.384  -6.522  -4.694  0.00  0.00     0.249 C 
HETATM    5  O           1     -21.878  -7.476  -5.245  0.00  0.00    -0.271 OA
BRANCH   4   6
HETATM    6  C           1     -21.136  -5.250  -5.468  0.00  0.00     0.274 C 
BRANCH   6   7
HETATM    7  C           1     -22.190  -5.104  -6.558  0.00  0.00     0.044 C 
BRANCH   7   8
HETATM    8  C           1     -21.848  -3.909  -7.438  0.00  0.00     0.023 C 
BRANCH   8   9
HETATM    9  C           1     -22.515  -4.071  -8.798  0.00  0.00     0.138 C 
BRANCH   9  10
HETATM   10  N           1     -23.926  -3.673  -8.704  0.00  0.00    -0.227 N 
HETATM   11  H           1     -24.302  -3.279  -7.807  0.00  0.00     0.177 HD
HETATM   12  C           1     -24.690  -3.803  -9.706  0.00  0.00     0.665 C 
HETATM   13  N           1     -25.905  -3.459  -9.625  0.00  0.00    -0.235 N 
HETATM   14  N           1     -24.224  -4.291 -10.818  0.00  0.00    -0.235 N 
HETATM   15  H           1     -26.281  -3.065  -8.728  0.00  0.00     0.174 HD
HETATM   16  H           1     -26.538  -3.568 -10.457  0.00  0.00     0.174 HD
HETATM   17  H           1     -23.221  -4.575 -10.885  0.00  0.00     0.174 HD
HETATM   18  H           1     -24.854  -4.399 -11.645  0.00  0.00     0.174 HD
ENDBRANCH   9  10
ENDBRANCH   8   9
ENDBRANCH   7   8
ENDBRANCH   6   7
BRANCH   6  19
HETATM   19  N           1     -19.774  -5.305  -6.095  0.00  0.00    -0.067 N 
HETATM   20  H           1     -19.046  -5.342  -5.346  0.00  0.00     0.275 HD
HETATM   21  H           1     -19.701  -6.159  -6.694  0.00  0.00     0.275 HD
HETATM   22  H           1     -19.627  -4.454  -6.682  0.00  0.00     0.275 HD
ENDBRANCH   6  19
ENDBRANCH   4   6
ENDBRANCH   1   2
BRANCH   1  23
HETATM   23  C           1     -21.848  -7.474  -1.267  0.00  0.00     0.196 C 
HETATM   24  O           1     -22.698  -6.564  -1.150  0.00  0.00    -0.646 OA
HETATM   25  O           1     -21.464  -8.102  -0.257  0.00  0.00    -0.646 OA
ENDBRANCH   1  23
BRANCH   1  26
HETATM   26  C           1     -19.978  -8.573  -2.460  0.00  0.00     0.066 C 
BRANCH  26  27
HETATM   27  C           1     -20.148 -10.001  -2.963  0.00  0.00     0.273 C 
BRANCH  27  28
HETATM   28  N           1     -21.063 -10.012  -4.072  0.00  0.00     0.098 N 
HETATM   29  H           1     -20.755  -9.341  -4.776  0.00  0.00     0.317 HD
BRANCH  28  30
HETATM   30  C           1     -21.051 -11.336  -4.634  0.00  0.00     0.324 C 
BRANCH  30  31
HETATM   31  C           1     -20.636 -11.262  -6.083  0.00  0.00     0.207 C 
HETATM   32  O           1     -19.463 -10.951  -6.381  0.00  0.00    -0.646 OA
HETATM   33  O           1     -21.464 -11.514  -6.985  0.00  0.00    -0.646 OA
ENDBRANCH  30  31
BRANCH  30  34
HETATM   34  C           1     -22.445 -11.941  -4.535  0.00  0.00     0.087 C 
BRANCH  34  35
HETATM   35  C           1     -22.537 -12.788  -3.305  0.00  0.00    -0.028 A 
HETATM   36  C           1     -22.976 -12.358  -2.022  0.00  0.00    -0.002 A 
HETATM   37  C           1     -23.431 -11.132  -1.502  0.00  0.00     0.014 A 
HETATM   38  C           1     -22.904 -13.463  -1.172  0.00  0.00     0.042 A 
HETATM   39  C           1     -23.796 -11.052  -0.152  0.00  0.00     0.001 A 
HETATM   40  C           1     -23.712 -12.172   0.673  0.00  0.00     0.002 A 
HETATM   41  C           1     -23.264 -13.401   0.180  0.00  0.00     0.030 A 
HETATM   42  N           1     -22.435 -14.519  -1.921  0.00  0.00    -0.365 N 
HETATM   43  H           1     -22.273 -15.490  -1.554  0.00  0.00     0.165 HD
HETATM   44  C           1     -22.210 -14.122  -3.212  0.00  0.00     0.096 A 
ENDBRANCH  34  35
ENDBRANCH  30  34
ENDBRANCH  28  30
ENDBRANCH  27  28
ENDBRANCH  26  27
ENDBRANCH   1  26
TORSDOF 15
ENDMDL
MODEL 7
REMARK VINA RESULT:      -7.1      3.007      8.276
REMARK  15 active torsions:
REMARK  status: ('A' for Active; 'I' for Inactive)
REMARK    1  A    between atoms: C_8  and  N_9 
REMARK    2  A    between atoms: C_8  and  C_36 
REMARK    3  A    between atoms: N_9  and  C_28 
REMARK    4  A    between atoms: N_14  and  C_15 
REMARK       I    between atoms: N_14  and  C_40 
REMARK    5  A    between atoms: C_15  and  C_16 
REMARK    6  A    between atoms: C_16  and  C_18 
REMARK    7  A    between atoms: C_18  and  C_19 
REMARK    8  A    between atoms: C_19  and  C_20 
REMARK    9  A    between atoms: C_19  and  N_26 
REMARK       I    between atoms: C_20  and  N_21 
REMARK   10  A    between atoms: N_21  and  C_35 
REMARK   11  A    between atoms: C_24  and  C_35 
REMARK       I    between atoms: N_25  and  C_40 
REMARK   12  A    between atoms: C_28  and  C_34 
REMARK   13  A    between atoms: C_28  and  C_29 
REMARK   14  A    between atoms: C_29  and  C_30 
REMARK   15  A    between atoms: C_35  and  C_36 
ROOT
HETATM    1  C           1     -21.740  -7.644  -3.504  0.00  0.00     0.187 C 
ENDROOT
BRANCH   1   2
HETATM    2  N           1     -20.963  -6.851  -4.438  0.00  0.00    -0.345 N 
HETATM    3  H           1     -19.953  -6.908  -4.431  0.00  0.00     0.163 HD
HETATM    4  C           1     -21.596  -6.026  -5.327  0.00  0.00     0.249 C 
HETATM    5  O           1     -22.802  -5.957  -5.334  0.00  0.00    -0.271 OA
BRANCH   4   6
HETATM    6  C           1     -20.788  -5.200  -6.297  0.00  0.00     0.274 C 
BRANCH   6   7
HETATM    7  C           1     -21.723  -4.325  -7.122  0.00  0.00     0.044 C 
BRANCH   7   8
HETATM    8  C           1     -21.040  -3.943  -8.429  0.00  0.00     0.023 C 
BRANCH   8   9
HETATM    9  C           1     -22.033  -4.070  -9.577  0.00  0.00     0.138 C 
BRANCH   9  10
HETATM   10  N           1     -23.355  -3.603  -9.138  0.00  0.00    -0.227 N 
HETATM   11  H           1     -23.454  -3.088  -8.228  0.00  0.00     0.177 HD
HETATM   12  C           1     -24.376  -3.820  -9.855  0.00  0.00     0.665 C 
HETATM   13  N           1     -25.514  -3.417  -9.477  0.00  0.00    -0.235 N 
HETATM   14  N           1     -24.253  -4.458 -10.982  0.00  0.00    -0.235 N 
HETATM   15  H           1     -25.613  -2.903  -8.567  0.00  0.00     0.174 HD
HETATM   16  H           1     -26.360  -3.599 -10.073  0.00  0.00     0.174 HD
HETATM   17  H           1     -23.313  -4.791 -11.295  0.00  0.00     0.174 HD
HETATM   18  H           1     -25.094  -4.638 -11.575  0.00  0.00     0.174 HD
ENDBRANCH   9  10
ENDBRANCH   8   9
ENDBRANCH   7   8
ENDBRANCH   6   7
BRANCH   6  19
HETATM   19  N           1     -20.023  -6.112  -7.211  0.00  0.00    -0.067 N 
HETATM   20  H           1     -20.690  -6.640  -7.817  0.00  0.00     0.275 HD
HETATM   21  H           1     -19.382  -5.543  -7.812  0.00  0.00     0.275 HD
HETATM   22  H           1     -19.462  -6.784  -6.642  0.00  0.00     0.275 HD
ENDBRANCH   6  19
ENDBRANCH   4   6
ENDBRANCH   1   2
BRANCH   1  23
HETATM   23  C           1     -21.724  -6.982  -2.149  0.00  0.00     0.196 C 
HETATM   24  O           1     -21.105  -7.512  -1.200  0.00  0.00    -0.646 OA
HETATM   25  O           1     -22.331  -5.903  -1.973  0.00  0.00    -0.646 OA
ENDBRANCH   1  23
BRANCH   1  26
HETATM   26  C           1     -21.135  -9.038  -3.396  0.00  0.00     0.066 C 
BRANCH  26  27
HETATM   27  C           1     -19.675  -8.994  -3.828  0.00  0.00     0.273 C 
BRANCH  27  28
HETATM   28  N           1     -18.830  -9.091  -2.668  0.00  0.00     0.098 N 
HETATM   29  H           1     -19.406  -9.218  -1.836  0.00  0.00     0.317 HD
BRANCH  28  30
HETATM   30  C           1     -17.980 -10.238  -2.842  0.00  0.00     0.324 C 
BRANCH  30  31
HETATM   31  C           1     -18.082 -11.127  -1.627  0.00  0.00     0.207 C 
HETATM   32  O           1     -19.204 -11.438  -1.173  0.00  0.00    -0.646 OA
HETATM   33  O           1     -17.044 -11.552  -1.075  0.00  0.00    -0.646 OA
ENDBRANCH  30  31
BRANCH  30  34
HETATM   34  C           1     -16.538  -9.780  -3.017  0.00  0.00     0.087 C 
BRANCH  34  35
HETATM   35  C           1     -15.968 -10.386  -4.261  0.00  0.00    -0.028 A 
HETATM   36  C           1     -15.066 -11.484  -4.321  0.00  0.00    -0.002 A 
HETATM   37  C           1     -14.455 -12.304  -3.354  0.00  0.00     0.014 A 
HETATM   38  C           1     -14.794 -11.718  -5.670  0.00  0.00     0.042 A 
HETATM   39  C           1     -13.594 -13.328  -3.768  0.00  0.00     0.001 A 
HETATM   40  C           1     -13.340 -13.538  -5.122  0.00  0.00     0.002 A 
HETATM   41  C           1     -13.935 -12.737  -6.101  0.00  0.00     0.030 A 
HETATM   42  N           1     -15.508 -10.790  -6.394  0.00  0.00    -0.365 N 
HETATM   43  H           1     -15.506 -10.714  -7.441  0.00  0.00     0.165 HD
HETATM   44  C           1     -16.222  -9.979  -5.552  0.00  0.00     0.096 A 
ENDBRANCH  34  35
ENDBRANCH  30  34
ENDBRANCH  28  30
ENDBRANCH  27  28
ENDBRANCH  26  27
ENDBRANCH   1  26
TORSDOF 15
ENDMDL
MODEL 8
REMARK VINA RESULT:      -7.0     13.467     16.473
REMARK  15 active torsions:
REMARK  status: ('A' for Active; 'I' for Inactive)
REMARK    1  A    between atoms: C_8  and  N_9 
REMARK    2  A    between atoms: C_8  and  C_36 
REMARK    3  A    between atoms: N_9  and  C_28 
REMARK    4  A    between atoms: N_14  and  C_15 
REMARK       I    between atoms: N_14  and  C_40 
REMARK    5  A    between atoms: C_15  and  C_16 
REMARK    6  A    between atoms: C_16  and  C_18 
REMARK    7  A    between atoms: C_18  and  C_19 
REMARK    8  A    between atoms: C_19  and  C_20 
REMARK    9  A    between atoms: C_19  and  N_26 
REMARK       I    between atoms: C_20  and  N_21 
REMARK   10  A    between atoms: N_21  and  C_35 
REMARK   11  A    between atoms: C_24  and  C_35 
REMARK       I    between atoms: N_25  and  C_40 
REMARK   12  A    between atoms: C_28  and  C_34 
REMARK   13  A    between atoms: C_28  and  C_29 
REMARK   14  A    between atoms: C_29  and  C_30 
REMARK   15  A    between atoms: C_35  and  C_36 
ROOT
HETATM    1  C           1     -33.428  -4.175 -15.790  0.00  0.00     0.187 C 
ENDROOT
BRANCH   1   2
HETATM    2  N           1     -34.230  -4.427 -14.608  0.00  0.00    -0.345 N 
HETATM    3  H           1     -35.222  -4.602 -14.698  0.00  0.00     0.163 HD
HETATM    4  C           1     -33.645  -4.426 -13.371  0.00  0.00     0.249 C 
HETATM    5  O           1     -32.461  -4.216 -13.263  0.00  0.00    -0.271 OA
BRANCH   4   6
HETATM    6  C           1     -34.479  -4.688 -12.142  0.00  0.00     0.274 C 
BRANCH   6   7
HETATM    7  C           1     -33.655  -4.392 -10.895  0.00  0.00     0.044 C 
BRANCH   7   8
HETATM    8  C           1     -33.870  -2.943 -10.476  0.00  0.00     0.023 C 
BRANCH   8   9
HETATM    9  C           1     -35.157  -2.419 -11.099  0.00  0.00     0.138 C 
BRANCH   9  10
HETATM   10  N           1     -35.054  -0.965 -11.291  0.00  0.00    -0.227 N 
HETATM   11  H           1     -35.027  -0.327 -10.458  0.00  0.00     0.177 HD
HETATM   12  C           1     -34.996  -0.483 -12.460  0.00  0.00     0.665 C 
HETATM   13  N           1     -34.906   0.769 -12.625  0.00  0.00    -0.235 N 
HETATM   14  N           1     -35.030  -1.274 -13.492  0.00  0.00    -0.235 N 
HETATM   15  H           1     -34.880   1.408 -11.793  0.00  0.00     0.174 HD
HETATM   16  H           1     -34.859   1.169 -13.596  0.00  0.00     0.174 HD
HETATM   17  H           1     -35.104  -2.308 -13.356  0.00  0.00     0.174 HD
HETATM   18  H           1     -34.983  -0.876 -14.457  0.00  0.00     0.174 HD
ENDBRANCH   9  10
ENDBRANCH   8   9
ENDBRANCH   7   8
ENDBRANCH   6   7
BRANCH   6  19
HETATM   19  N           1     -34.908  -6.126 -12.126  0.00  0.00    -0.067 N 
HETATM   20  H           1     -34.294  -6.680 -12.764  0.00  0.00     0.275 HD
HETATM   21  H           1     -34.828  -6.501 -11.153  0.00  0.00     0.275 HD
HETATM   22  H           1     -35.899  -6.197 -12.447  0.00  0.00     0.275 HD
ENDBRANCH   6  19
ENDBRANCH   4   6
ENDBRANCH   1   2
BRANCH   1  23
HETATM   23  C           1     -34.034  -3.037 -16.575  0.00  0.00     0.196 C 
HETATM   24  O           1     -33.494  -2.651 -17.635  0.00  0.00    -0.646 OA
HETATM   25  O           1     -35.075  -2.480 -16.165  0.00  0.00    -0.646 OA
ENDBRANCH   1  23
BRANCH   1  26
HETATM   26  C           1     -33.392  -5.427 -16.655  0.00  0.00     0.066 C 
BRANCH  26  27
HETATM   27  C           1     -31.945  -5.817 -16.928  0.00  0.00     0.273 C 
BRANCH  27  28
HETATM   28  N           1     -31.086  -5.163 -15.978  0.00  0.00     0.098 N 
HETATM   29  H           1     -30.991  -5.745 -15.146  0.00  0.00     0.317 HD
BRANCH  28  30
HETATM   30  C           1     -29.799  -4.996 -16.597  0.00  0.00     0.324 C 
BRANCH  30  31
HETATM   31  C           1     -29.874  -3.894 -17.624  0.00  0.00     0.207 C 
HETATM   32  O           1     -30.255  -2.752 -17.288  0.00  0.00    -0.646 OA
HETATM   33  O           1     -29.555  -4.122 -18.811  0.00  0.00    -0.646 OA
ENDBRANCH  30  31
BRANCH  30  34
HETATM   34  C           1     -29.391  -6.297 -17.276  0.00  0.00     0.087 C 
BRANCH  34  35
HETATM   35  C           1     -27.909  -6.474 -17.169  0.00  0.00    -0.028 A 
HETATM   36  C           1     -26.995  -6.569 -18.255  0.00  0.00    -0.002 A 
HETATM   37  C           1     -27.131  -6.535 -19.655  0.00  0.00     0.014 A 
HETATM   38  C           1     -25.721  -6.727 -17.707  0.00  0.00     0.042 A 
HETATM   39  C           1     -25.990  -6.661 -20.458  0.00  0.00     0.001 A 
HETATM   40  C           1     -24.730  -6.817 -19.883  0.00  0.00     0.002 A 
HETATM   41  C           1     -24.570  -6.854 -18.495  0.00  0.00     0.030 A 
HETATM   42  N           1     -25.867  -6.727 -16.338  0.00  0.00    -0.365 N 
HETATM   43  H           1     -25.080  -6.830 -15.650  0.00  0.00     0.165 HD
HETATM   44  C           1     -27.186  -6.575 -16.002  0.00  0.00     0.096 A 
ENDBRANCH  34  35
ENDBRANCH  30  34
ENDBRANCH  28  30
ENDBRANCH  27  28
ENDBRANCH  26  27
ENDBRANCH   1  26
TORSDOF 15
ENDMDL
MODEL 9
REMARK VINA RESULT:      -7.0      2.586      7.777
REMARK  15 active torsions:
REMARK  status: ('A' for Active; 'I' for Inactive)
REMARK    1  A    between atoms: C_8  and  N_9 
REMARK    2  A    between atoms: C_8  and  C_36 
REMARK    3  A    between atoms: N_9  and  C_28 
REMARK    4  A    between atoms: N_14  and  C_15 
REMARK       I    between atoms: N_14  and  C_40 
REMARK    5  A    between atoms: C_15  and  C_16 
REMARK    6  A    between atoms: C_16  and  C_18 
REMARK    7  A    between atoms: C_18  and  C_19 
REMARK    8  A    between atoms: C_19  and  C_20 
REMARK    9  A    between atoms: C_19  and  N_26 
REMARK       I    between atoms: C_20  and  N_21 
REMARK   10  A    between atoms: N_21  and  C_35 
REMARK   11  A    between atoms: C_24  and  C_35 
REMARK       I    between atoms: N_25  and  C_40 
REMARK   12  A    between atoms: C_28  and  C_34 
REMARK   13  A    between atoms: C_28  and  C_29 
REMARK   14  A    between atoms: C_29  and  C_30 
REMARK   15  A    between atoms: C_35  and  C_36 
ROOT
HETATM    1  C           1     -21.379  -7.974  -2.479  0.00  0.00     0.187 C 
ENDROOT
BRANCH   1   2
HETATM    2  N           1     -20.933  -6.966  -3.421  0.00  0.00    -0.345 N 
HETATM    3  H           1     -20.414  -6.162  -3.093  0.00  0.00     0.163 HD
HETATM    4  C           1     -21.215  -7.102  -4.753  0.00  0.00     0.249 C 
HETATM    5  O           1     -21.835  -8.061  -5.145  0.00  0.00    -0.271 OA
BRANCH   4   6
HETATM    6  C           1     -20.751  -6.053  -5.733  0.00  0.00     0.274 C 
BRANCH   6   7
HETATM    7  C           1     -21.956  -5.461  -6.453  0.00  0.00     0.044 C 
BRANCH   7   8
HETATM    8  C           1     -21.550  -4.165  -7.144  0.00  0.00     0.023 C 
BRANCH   8   9
HETATM    9  C           1     -22.046  -4.180  -8.584  0.00  0.00     0.138 C 
BRANCH   9  10
HETATM   10  N           1     -23.427  -3.681  -8.633  0.00  0.00    -0.227 N 
HETATM   11  H           1     -23.782  -3.045  -7.877  0.00  0.00     0.177 HD
HETATM   12  C           1     -24.190  -4.018  -9.586  0.00  0.00     0.665 C 
HETATM   13  N           1     -25.379  -3.588  -9.628  0.00  0.00    -0.235 N 
HETATM   14  N           1     -23.750  -4.807 -10.522  0.00  0.00    -0.235 N 
HETATM   15  H           1     -25.735  -2.952  -8.872  0.00  0.00     0.174 HD
HETATM   16  H           1     -26.012  -3.869 -10.419  0.00  0.00     0.174 HD
HETATM   17  H           1     -22.767  -5.162 -10.487  0.00  0.00     0.174 HD
HETATM   18  H           1     -24.378  -5.085 -11.308  0.00  0.00     0.174 HD
ENDBRANCH   9  10
ENDBRANCH   8   9
ENDBRANCH   7   8
ENDBRANCH   6   7
BRANCH   6  19
HETATM   19  N           1     -19.829  -6.680  -6.737  0.00  0.00    -0.067 N 
HETATM   20  H           1     -19.365  -7.514  -6.312  0.00  0.00     0.275 HD
HETATM   21  H           1     -20.378  -6.977  -7.576  0.00  0.00     0.275 HD
HETATM   22  H           1     -19.102  -5.986  -7.024  0.00  0.00     0.275 HD
ENDBRANCH   6  19
ENDBRANCH   4   6
ENDBRANCH   1   2
BRANCH   1  23
HETATM   23  C           1     -21.949  -7.301  -1.255  0.00  0.00     0.196 C 
HETATM   24  O           1     -22.697  -6.307  -1.380  0.00  0.00    -0.646 OA
HETATM   25  O           1     -21.674  -7.737  -0.117  0.00  0.00    -0.646 OA
ENDBRANCH   1  23
BRANCH   1  26
HETATM   26  C           1     -20.200  -8.849  -2.075  0.00  0.00     0.066 C 
BRANCH  26  27
HETATM   27  C           1     -20.572 -10.316  -2.244  0.00  0.00     0.273 C 
BRANCH  27  28
HETATM   28  N           1     -20.593 -10.647  -3.644  0.00  0.00     0.098 N 
HETATM   29  H           1     -21.127  -9.942  -4.153  0.00  0.00     0.317 HD
BRANCH  28  30
HETATM   30  C           1     -19.233 -10.647  -4.112  0.00  0.00     0.324 C 
BRANCH  30  31
HETATM   31  C           1     -19.200 -10.224  -5.560  0.00  0.00     0.207 C 
HETATM   32  O           1     -19.931 -10.799  -6.396  0.00  0.00    -0.646 OA
HETATM   33  O           1     -18.443  -9.299  -5.925  0.00  0.00    -0.646 OA
ENDBRANCH  30  31
BRANCH  30  34
HETATM   34  C           1     -18.651 -12.049  -3.979  0.00  0.00     0.087 C 
BRANCH  34  35
HETATM   35  C           1     -17.181 -11.957  -3.718  0.00  0.00    -0.028 A 
HETATM   36  C           1     -16.146 -12.116  -4.682  0.00  0.00    -0.002 A 
HETATM   37  C           1     -16.128 -12.382  -6.064  0.00  0.00     0.014 A 
HETATM   38  C           1     -14.933 -11.952  -4.013  0.00  0.00     0.042 A 
HETATM   39  C           1     -14.898 -12.476  -6.728  0.00  0.00     0.001 A 
HETATM   40  C           1     -13.701 -12.309  -6.033  0.00  0.00     0.002 A 
HETATM   41  C           1     -13.695 -12.044  -4.661  0.00  0.00     0.030 A 
HETATM   42  N           1     -15.230 -11.705  -2.691  0.00  0.00    -0.365 N 
HETATM   43  H           1     -14.518 -11.540  -1.936  0.00  0.00     0.165 HD
HETATM   44  C           1     -16.586 -11.706  -2.502  0.00  0.00     0.096 A 
ENDBRANCH  34  35
ENDBRANCH  30  34
ENDBRANCH  28  30
ENDBRANCH  27  28
ENDBRANCH  26  27
ENDBRANCH   1  26
TORSDOF 15
ENDMDL
