MODEL 1
REMARK VINA RESULT:      -5.9      0.000      0.000
REMARK  8 active torsions:
REMARK  status: ('A' for Active; 'I' for Inactive)
REMARK    1  A    between atoms: C_2  and  C_4 
REMARK    2  A    between atoms: C_4  and  C_5 
REMARK    3  A    between atoms: C_5  and  C_14 
REMARK    4  A    between atoms: C_5  and  N_11 
REMARK    5  A    between atoms: N_8  and  C_20 
REMARK    6  A    between atoms: S_9  and  C_16 
REMARK       I    between atoms: N_11  and  C_19 
REMARK    7  A    between atoms: C_16  and  C_20 
REMARK    8  A    between atoms: C_19  and  C_20 
ROOT
HETATM    1  O           1     -26.213  -6.007 -17.596  0.00  0.00    -0.271 OA
HETATM    2  H           1     -27.787  -7.168 -20.049  0.00  0.00     0.163 HD
HETATM    3  N           1     -27.646  -6.766 -19.132  0.00  0.00    -0.345 N 
HETATM    4  C           1     -26.380  -6.488 -18.692  0.00  0.00     0.249 C 
ENDROOT
BRANCH   3   5
HETATM    5  C           1     -28.787  -6.484 -18.282  0.00  0.00     0.185 C 
BRANCH   5   6
HETATM    6  C           1     -29.358  -5.117 -18.637  0.00  0.00     0.040 C 
BRANCH   6   7
HETATM    7  C           1     -29.686  -4.356 -17.359  0.00  0.00    -0.020 C 
HETATM    8  C           1     -28.761  -3.152 -17.235  0.00  0.00     0.009 C 
HETATM    9  C           1     -31.133  -3.883 -17.408  0.00  0.00     0.009 C 
ENDBRANCH   6   7
ENDBRANCH   5   6
BRANCH   5  10
HETATM   10  C           1     -29.843  -7.541 -18.492  0.00  0.00     0.196 C 
HETATM   11  O           1     -29.628  -8.491 -19.276  0.00  0.00    -0.646 OA
HETATM   12  O           1     -30.931  -7.468 -17.881  0.00  0.00    -0.646 OA
ENDBRANCH   5  10
ENDBRANCH   3   5
BRANCH   4  13
HETATM   13  C           1     -25.193  -6.782 -19.576  0.00  0.00     0.283 C 
BRANCH  13  14
HETATM   14  N           1     -24.158  -7.530 -18.790  0.00  0.00    -0.066 N 
HETATM   15  H           1     -23.898  -6.978 -17.940  0.00  0.00     0.275 HD
HETATM   16  H           1     -24.544  -8.455 -18.498  0.00  0.00     0.275 HD
HETATM   17  H           1     -23.310  -7.675 -19.382  0.00  0.00     0.275 HD
ENDBRANCH  13  14
BRANCH  13  18
HETATM   18  C           1     -25.639  -7.628 -20.761  0.00  0.00     0.113 C 
BRANCH  18  19
HETATM   19  S           1     -24.238  -7.882 -21.886  0.00  0.00    -0.180 SA
HETATM   20  H           1     -23.951  -9.129 -21.474  0.00  0.00     0.101 HD
ENDBRANCH  18  19
ENDBRANCH  13  18
ENDBRANCH   4  13
TORSDOF 8
ENDMDL
MODEL 2
REMARK VINA RESULT:      -5.9     10.419     12.087
REMARK  8 active torsions:
REMARK  status: ('A' for Active; 'I' for Inactive)
REMARK    1  A    between atoms: C_2  and  C_4 
REMARK    2  A    between atoms: C_4  and  C_5 
REMARK    3  A    between atoms: C_5  and  C_14 
REMARK    4  A    between atoms: C_5  and  N_11 
REMARK    5  A    between atoms: N_8  and  C_20 
REMARK    6  A    between atoms: S_9  and  C_16 
REMARK       I    between atoms: N_11  and  C_19 
REMARK    7  A    between atoms: C_16  and  C_20 
REMARK    8  A    between atoms: C_19  and  C_20 
ROOT
HETATM    1  O           1     -37.003  -1.099 -13.200  0.00  0.00    -0.271 OA
HETATM    2  H           1     -34.343   0.070 -12.015  0.00  0.00     0.163 HD
HETATM    3  N           1     -35.163  -0.521 -12.074  0.00  0.00    -0.345 N 
HETATM    4  C           1     -36.024  -0.393 -13.130  0.00  0.00     0.249 C 
ENDROOT
BRANCH   3   5
HETATM    5  C           1     -35.424  -1.503 -11.039  0.00  0.00     0.185 C 
BRANCH   5   6
HETATM    6  C           1     -34.104  -1.973 -10.441  0.00  0.00     0.040 C 
BRANCH   6   7
HETATM    7  C           1     -33.959  -3.475 -10.648  0.00  0.00    -0.020 C 
HETATM    8  C           1     -35.281  -4.049 -11.139  0.00  0.00     0.009 C 
HETATM    9  C           1     -32.874  -3.741 -11.684  0.00  0.00     0.009 C 
ENDBRANCH   6   7
ENDBRANCH   5   6
BRANCH   5  10
HETATM   10  C           1     -36.273  -0.880  -9.959  0.00  0.00     0.196 C 
HETATM   11  O           1     -37.520  -0.887 -10.062  0.00  0.00    -0.646 OA
HETATM   12  O           1     -35.732  -0.359  -8.960  0.00  0.00    -0.646 OA
ENDBRANCH   5  10
ENDBRANCH   3   5
BRANCH   4  13
HETATM   13  C           1     -35.753   0.628 -14.206  0.00  0.00     0.283 C 
BRANCH  13  14
HETATM   14  N           1     -34.313   0.548 -14.618  0.00  0.00    -0.066 N 
HETATM   15  H           1     -34.047   1.420 -15.131  0.00  0.00     0.275 HD
HETATM   16  H           1     -33.712   0.447 -13.770  0.00  0.00     0.275 HD
HETATM   17  H           1     -34.176  -0.278 -15.244  0.00  0.00     0.275 HD
ENDBRANCH  13  14
BRANCH  13  18
HETATM   18  C           1     -36.642   0.346 -15.410  0.00  0.00     0.113 C 
BRANCH  18  19
HETATM   19  S           1     -35.842  -0.882 -16.479  0.00  0.00    -0.180 SA
HETATM   20  H           1     -36.909  -1.097 -17.270  0.00  0.00     0.101 HD
ENDBRANCH  18  19
ENDBRANCH  13  18
ENDBRANCH   4  13
TORSDOF 8
ENDMDL
MODEL 3
REMARK VINA RESULT:      -5.8      2.209      2.984
REMARK  8 active torsions:
REMARK  status: ('A' for Active; 'I' for Inactive)
REMARK    1  A    between atoms: C_2  and  C_4 
REMARK    2  A    between atoms: C_4  and  C_5 
REMARK    3  A    between atoms: C_5  and  C_14 
REMARK    4  A    between atoms: C_5  and  N_11 
REMARK    5  A    between atoms: N_8  and  C_20 
REMARK    6  A    between atoms: S_9  and  C_16 
REMARK       I    between atoms: N_11  and  C_19 
REMARK    7  A    between atoms: C_16  and  C_20 
REMARK    8  A    between atoms: C_19  and  C_20 
ROOT
HETATM    1  O           1     -24.325  -6.436 -18.611  0.00  0.00    -0.271 OA
HETATM    2  H           1     -27.396  -7.078 -18.555  0.00  0.00     0.163 HD
HETATM    3  N           1     -26.508  -6.714 -18.232  0.00  0.00    -0.345 N 
HETATM    4  C           1     -25.385  -6.871 -18.997  0.00  0.00     0.249 C 
ENDROOT
BRANCH   3   5
HETATM    5  C           1     -26.428  -6.026 -16.957  0.00  0.00     0.185 C 
BRANCH   5   6
HETATM    6  C           1     -27.722  -5.261 -16.712  0.00  0.00     0.040 C 
BRANCH   6   7
HETATM    7  C           1     -28.760  -5.675 -17.746  0.00  0.00    -0.020 C 
HETATM    8  C           1     -29.877  -6.452 -17.061  0.00  0.00     0.009 C 
HETATM    9  C           1     -29.339  -4.431 -18.409  0.00  0.00     0.009 C 
ENDBRANCH   6   7
ENDBRANCH   5   6
BRANCH   5  10
HETATM   10  C           1     -26.221  -7.035 -15.854  0.00  0.00     0.196 C 
HETATM   11  O           1     -25.063  -7.379 -15.532  0.00  0.00    -0.646 OA
HETATM   12  O           1     -27.207  -7.525 -15.264  0.00  0.00    -0.646 OA
ENDBRANCH   5  10
ENDBRANCH   3   5
BRANCH   4  13
HETATM   13  C           1     -25.468  -7.586 -20.323  0.00  0.00     0.283 C 
BRANCH  13  14
HETATM   14  N           1     -26.908  -7.830 -20.668  0.00  0.00    -0.066 N 
HETATM   15  H           1     -27.509  -7.136 -20.169  0.00  0.00     0.275 HD
HETATM   16  H           1     -27.041  -7.727 -21.699  0.00  0.00     0.275 HD
HETATM   17  H           1     -27.176  -8.797 -20.376  0.00  0.00     0.275 HD
ENDBRANCH  13  14
BRANCH  13  18
HETATM   18  C           1     -24.825  -6.729 -21.405  0.00  0.00     0.113 C 
BRANCH  18  19
HETATM   19  S           1     -23.859  -7.785 -22.520  0.00  0.00    -0.180 SA
HETATM   20  H           1     -24.813  -8.716 -22.695  0.00  0.00     0.101 HD
ENDBRANCH  18  19
ENDBRANCH  13  18
ENDBRANCH   4  13
TORSDOF 8
ENDMDL
MODEL 4
REMARK VINA RESULT:      -5.7     11.006     12.167
REMARK  8 active torsions:
REMARK  status: ('A' for Active; 'I' for Inactive)
REMARK    1  A    between atoms: C_2  and  C_4 
REMARK    2  A    between atoms: C_4  and  C_5 
REMARK    3  A    between atoms: C_5  and  C_14 
REMARK    4  A    between atoms: C_5  and  N_11 
REMARK    5  A    between atoms: N_8  and  C_20 
REMARK    6  A    between atoms: S_9  and  C_16 
REMARK       I    between atoms: N_11  and  C_19 
REMARK    7  A    between atoms: C_16  and  C_20 
REMARK    8  A    between atoms: C_19  and  C_20 
ROOT
HETATM    1  O           1     -21.501  -3.278  -7.736  0.00  0.00    -0.271 OA
HETATM    2  H           1     -23.662  -5.395  -8.568  0.00  0.00     0.163 HD
HETATM    3  N           1     -23.053  -4.592  -8.659  0.00  0.00    -0.345 N 
HETATM    4  C           1     -22.228  -4.238  -7.627  0.00  0.00     0.249 C 
ENDROOT
BRANCH   3   5
HETATM    5  C           1     -23.057  -3.816  -9.885  0.00  0.00     0.185 C 
BRANCH   5   6
HETATM    6  C           1     -22.532  -4.673 -11.029  0.00  0.00     0.040 C 
BRANCH   6   7
HETATM    7  C           1     -21.175  -4.148 -11.476  0.00  0.00    -0.020 C 
HETATM    8  C           1     -21.149  -2.631 -11.342  0.00  0.00     0.009 C 
HETATM    9  C           1     -20.084  -4.754 -10.603  0.00  0.00     0.009 C 
ENDBRANCH   6   7
ENDBRANCH   5   6
BRANCH   5  10
HETATM   10  C           1     -24.465  -3.370 -10.193  0.00  0.00     0.196 C 
HETATM   11  O           1     -25.137  -2.775  -9.322  0.00  0.00    -0.646 OA
HETATM   12  O           1     -24.960  -3.595 -11.318  0.00  0.00    -0.646 OA
ENDBRANCH   5  10
ENDBRANCH   3   5
BRANCH   4  13
HETATM   13  C           1     -22.224  -5.045  -6.352  0.00  0.00     0.283 C 
BRANCH  13  14
HETATM   14  N           1     -23.630  -5.443  -6.010  0.00  0.00    -0.066 N 
HETATM   15  H           1     -23.845  -5.154  -5.028  0.00  0.00     0.275 HD
HETATM   16  H           1     -24.294  -4.973  -6.664  0.00  0.00     0.275 HD
HETATM   17  H           1     -23.727  -6.480  -6.097  0.00  0.00     0.275 HD
ENDBRANCH  13  14
BRANCH  13  18
HETATM   18  C           1     -21.375  -6.295  -6.544  0.00  0.00     0.113 C 
BRANCH  18  19
HETATM   19  S           1     -21.456  -7.318  -5.049  0.00  0.00    -0.180 SA
HETATM   20  H           1     -20.151  -7.219  -4.739  0.00  0.00     0.101 HD
ENDBRANCH  18  19
ENDBRANCH  13  18
ENDBRANCH   4  13
TORSDOF 8
ENDMDL
MODEL 5
REMARK VINA RESULT:      -5.5     12.308     14.064
REMARK  8 active torsions:
REMARK  status: ('A' for Active; 'I' for Inactive)
REMARK    1  A    between atoms: C_2  and  C_4 
REMARK    2  A    between atoms: C_4  and  C_5 
REMARK    3  A    between atoms: C_5  and  C_14 
REMARK    4  A    between atoms: C_5  and  N_11 
REMARK    5  A    between atoms: N_8  and  C_20 
REMARK    6  A    between atoms: S_9  and  C_16 
REMARK       I    between atoms: N_11  and  C_19 
REMARK    7  A    between atoms: C_16  and  C_20 
REMARK    8  A    between atoms: C_19  and  C_20 
ROOT
HETATM    1  O           1     -38.026  -0.565 -10.113  0.00  0.00    -0.271 OA
HETATM    2  H           1     -34.927  -0.414  -9.650  0.00  0.00     0.163 HD
HETATM    3  N           1     -35.796  -0.682 -10.094  0.00  0.00    -0.345 N 
HETATM    4  C           1     -36.988  -0.245  -9.583  0.00  0.00     0.249 C 
ENDROOT
BRANCH   3   5
HETATM    5  C           1     -35.777  -1.529 -11.271  0.00  0.00     0.185 C 
BRANCH   5   6
HETATM    6  C           1     -34.883  -0.902 -12.333  0.00  0.00     0.040 C 
BRANCH   6   7
HETATM    7  C           1     -35.591   0.297 -12.949  0.00  0.00    -0.020 C 
HETATM    8  C           1     -34.706   0.909 -14.027  0.00  0.00     0.009 C 
HETATM    9  C           1     -36.907  -0.154 -13.568  0.00  0.00     0.009 C 
ENDBRANCH   6   7
ENDBRANCH   5   6
BRANCH   5  10
HETATM   10  C           1     -35.243  -2.891 -10.902  0.00  0.00     0.196 C 
HETATM   11  O           1     -34.031  -3.032 -10.624  0.00  0.00    -0.646 OA
HETATM   12  O           1     -36.010  -3.877 -10.872  0.00  0.00    -0.646 OA
ENDBRANCH   5  10
ENDBRANCH   3   5
BRANCH   4  13
HETATM   13  C           1     -37.007   0.635  -8.358  0.00  0.00     0.283 C 
BRANCH  13  14
HETATM   14  N           1     -37.605   1.966  -8.710  0.00  0.00    -0.066 N 
HETATM   15  H           1     -38.179   2.313  -7.908  0.00  0.00     0.275 HD
HETATM   16  H           1     -36.841   2.649  -8.911  0.00  0.00     0.275 HD
HETATM   17  H           1     -38.213   1.862  -9.553  0.00  0.00     0.275 HD
ENDBRANCH  13  14
BRANCH  13  18
HETATM   18  C           1     -37.844  -0.025  -7.270  0.00  0.00     0.113 C 
BRANCH  18  19
HETATM   19  S           1     -37.387   0.662  -5.654  0.00  0.00    -0.180 SA
HETATM   20  H           1     -38.515   0.294  -5.021  0.00  0.00     0.101 HD
ENDBRANCH  18  19
ENDBRANCH  13  18
ENDBRANCH   4  13
TORSDOF 8
ENDMDL
MODEL 6
REMARK VINA RESULT:      -5.5      2.008      2.946
REMARK  8 active torsions:
REMARK  status: ('A' for Active; 'I' for Inactive)
REMARK    1  A    between atoms: C_2  and  C_4 
REMARK    2  A    between atoms: C_4  and  C_5 
REMARK    3  A    between atoms: C_5  and  C_14 
REMARK    4  A    between atoms: C_5  and  N_11 
REMARK    5  A    between atoms: N_8  and  C_20 
REMARK    6  A    between atoms: S_9  and  C_16 
REMARK       I    between atoms: N_11  and  C_19 
REMARK    7  A    between atoms: C_16  and  C_20 
REMARK    8  A    between atoms: C_19  and  C_20 
ROOT
HETATM    1  O           1     -27.222  -6.209 -20.190  0.00  0.00    -0.271 OA
HETATM    2  H           1     -26.121  -6.602 -17.278  0.00  0.00     0.163 HD
HETATM    3  N           1     -26.792  -6.392 -18.006  0.00  0.00    -0.345 N 
HETATM    4  C           1     -26.420  -6.460 -19.321  0.00  0.00     0.249 C 
ENDROOT
BRANCH   3   5
HETATM    5  C           1     -28.149  -6.019 -17.654  0.00  0.00     0.185 C 
BRANCH   5   6
HETATM    6  C           1     -28.770  -7.113 -16.797  0.00  0.00     0.040 C 
BRANCH   6   7
HETATM    7  C           1     -30.123  -7.504 -17.374  0.00  0.00    -0.020 C 
HETATM    8  C           1     -31.069  -6.313 -17.300  0.00  0.00     0.009 C 
HETATM    9  C           1     -29.952  -7.927 -18.827  0.00  0.00     0.009 C 
ENDBRANCH   6   7
ENDBRANCH   5   6
BRANCH   5  10
HETATM   10  C           1     -28.128  -4.723 -16.880  0.00  0.00     0.196 C 
HETATM   11  O           1     -28.521  -3.666 -17.421  0.00  0.00    -0.646 OA
HETATM   12  O           1     -27.719  -4.707 -15.700  0.00  0.00    -0.646 OA
ENDBRANCH   5  10
ENDBRANCH   3   5
BRANCH   4  13
HETATM   13  C           1     -25.009  -6.848 -19.687  0.00  0.00     0.283 C 
BRANCH  13  14
HETATM   14  N           1     -24.339  -7.472 -18.499  0.00  0.00    -0.066 N 
HETATM   15  H           1     -24.921  -8.267 -18.147  0.00  0.00     0.275 HD
HETATM   16  H           1     -23.397  -7.829 -18.777  0.00  0.00     0.275 HD
HETATM   17  H           1     -24.233  -6.757 -17.744  0.00  0.00     0.275 HD
ENDBRANCH  13  14
BRANCH  13  18
HETATM   18  C           1     -25.038  -7.848 -20.836  0.00  0.00     0.113 C 
BRANCH  18  19
HETATM   19  S           1     -23.340  -8.257 -21.327  0.00  0.00    -0.180 SA
HETATM   20  H           1     -23.020  -8.911 -20.197  0.00  0.00     0.101 HD
ENDBRANCH  18  19
ENDBRANCH  13  18
ENDBRANCH   4  13
TORSDOF 8
ENDMDL
MODEL 7
REMARK VINA RESULT:      -5.4     10.289     11.613
REMARK  8 active torsions:
REMARK  status: ('A' for Active; 'I' for Inactive)
REMARK    1  A    between atoms: C_2  and  C_4 
REMARK    2  A    between atoms: C_4  and  C_5 
REMARK    3  A    between atoms: C_5  and  C_14 
REMARK    4  A    between atoms: C_5  and  N_11 
REMARK    5  A    between atoms: N_8  and  C_20 
REMARK    6  A    between atoms: S_9  and  C_16 
REMARK       I    between atoms: N_11  and  C_19 
REMARK    7  A    between atoms: C_16  and  C_20 
REMARK    8  A    between atoms: C_19  and  C_20 
ROOT
HETATM    1  O           1     -33.817  -1.685 -11.236  0.00  0.00    -0.271 OA
HETATM    2  H           1     -36.436  -2.458 -12.781  0.00  0.00     0.163 HD
HETATM    3  N           1     -35.764  -1.861 -12.316  0.00  0.00    -0.345 N 
HETATM    4  C           1     -34.620  -2.398 -11.791  0.00  0.00     0.249 C 
ENDROOT
BRANCH   3   5
HETATM    5  C           1     -36.015  -0.437 -12.205  0.00  0.00     0.185 C 
BRANCH   5   6
HETATM    6  C           1     -36.655   0.067 -13.491  0.00  0.00     0.040 C 
BRANCH   6   7
HETATM    7  C           1     -35.571   0.339 -14.525  0.00  0.00    -0.020 C 
HETATM    8  C           1     -36.176   1.079 -15.711  0.00  0.00     0.009 C 
HETATM    9  C           1     -34.476   1.192 -13.899  0.00  0.00     0.009 C 
ENDBRANCH   6   7
ENDBRANCH   5   6
BRANCH   5  10
HETATM   10  C           1     -36.944  -0.180 -11.044  0.00  0.00     0.196 C 
HETATM   11  O           1     -38.074  -0.715 -11.018  0.00  0.00    -0.646 OA
HETATM   12  O           1     -36.585   0.567 -10.109  0.00  0.00    -0.646 OA
ENDBRANCH   5  10
ENDBRANCH   3   5
BRANCH   4  13
HETATM   13  C           1     -34.359  -3.880 -11.907  0.00  0.00     0.283 C 
BRANCH  13  14
HETATM   14  N           1     -33.207  -4.113 -12.839  0.00  0.00    -0.066 N 
HETATM   15  H           1     -32.420  -4.559 -12.316  0.00  0.00     0.275 HD
HETATM   16  H           1     -33.509  -4.743 -13.615  0.00  0.00     0.275 HD
HETATM   17  H           1     -32.889  -3.199 -13.234  0.00  0.00     0.275 HD
ENDBRANCH  13  14
BRANCH  13  18
HETATM   18  C           1     -34.022  -4.446 -10.533  0.00  0.00     0.113 C 
BRANCH  18  19
HETATM   19  S           1     -34.325  -6.234 -10.524  0.00  0.00    -0.180 SA
HETATM   20  H           1     -33.945  -6.448 -11.796  0.00  0.00     0.101 HD
ENDBRANCH  18  19
ENDBRANCH  13  18
ENDBRANCH   4  13
TORSDOF 8
ENDMDL
MODEL 8
REMARK VINA RESULT:      -5.0     10.289     11.686
REMARK  8 active torsions:
REMARK  status: ('A' for Active; 'I' for Inactive)
REMARK    1  A    between atoms: C_2  and  C_4 
REMARK    2  A    between atoms: C_4  and  C_5 
REMARK    3  A    between atoms: C_5  and  C_14 
REMARK    4  A    between atoms: C_5  and  N_11 
REMARK    5  A    between atoms: N_8  and  C_20 
REMARK    6  A    between atoms: S_9  and  C_16 
REMARK       I    between atoms: N_11  and  C_19 
REMARK    7  A    between atoms: C_16  and  C_20 
REMARK    8  A    between atoms: C_19  and  C_20 
ROOT
HETATM    1  O           1     -36.237  -4.067 -10.863  0.00  0.00    -0.271 OA
HETATM    2  H           1     -33.837  -2.800 -12.437  0.00  0.00     0.163 HD
HETATM    3  N           1     -34.733  -2.841 -11.969  0.00  0.00    -0.345 N 
HETATM    4  C           1     -35.166  -4.019 -11.421  0.00  0.00     0.249 C 
ENDROOT
BRANCH   3   5
HETATM    5  C           1     -35.561  -1.653 -11.882  0.00  0.00     0.185 C 
BRANCH   5   6
HETATM    6  C           1     -35.447  -1.058 -10.484  0.00  0.00     0.040 C 
BRANCH   6   7
HETATM    7  C           1     -36.835  -0.937  -9.869  0.00  0.00    -0.020 C 
HETATM    8  C           1     -36.760  -0.077  -8.615  0.00  0.00     0.009 C 
HETATM    9  C           1     -37.779  -0.290 -10.873  0.00  0.00     0.009 C 
ENDBRANCH   6   7
ENDBRANCH   5   6
BRANCH   5  10
HETATM   10  C           1     -35.095  -0.641 -12.900  0.00  0.00     0.196 C 
HETATM   11  O           1     -34.783   0.514 -12.535  0.00  0.00    -0.646 OA
HETATM   12  O           1     -35.019  -0.958 -14.106  0.00  0.00    -0.646 OA
ENDBRANCH   5  10
ENDBRANCH   3   5
BRANCH   4  13
HETATM   13  C           1     -34.306  -5.254 -11.512  0.00  0.00     0.283 C 
BRANCH  13  14
HETATM   14  N           1     -32.938  -4.876 -11.999  0.00  0.00    -0.066 N 
HETATM   15  H           1     -33.020  -4.128 -12.724  0.00  0.00     0.275 HD
HETATM   16  H           1     -32.369  -4.521 -11.198  0.00  0.00     0.275 HD
HETATM   17  H           1     -32.473  -5.714 -12.414  0.00  0.00     0.275 HD
ENDBRANCH  13  14
BRANCH  13  18
HETATM   18  C           1     -34.194  -5.899 -10.136  0.00  0.00     0.113 C 
BRANCH  18  19
HETATM   19  S           1     -34.751  -7.623 -10.228  0.00  0.00    -0.180 SA
HETATM   20  H           1     -33.674  -8.084 -10.887  0.00  0.00     0.101 HD
ENDBRANCH  18  19
ENDBRANCH  13  18
ENDBRANCH   4  13
TORSDOF 8
ENDMDL
MODEL 9
REMARK VINA RESULT:      -5.0     10.406     12.522
REMARK  8 active torsions:
REMARK  status: ('A' for Active; 'I' for Inactive)
REMARK    1  A    between atoms: C_2  and  C_4 
REMARK    2  A    between atoms: C_4  and  C_5 
REMARK    3  A    between atoms: C_5  and  C_14 
REMARK    4  A    between atoms: C_5  and  N_11 
REMARK    5  A    between atoms: N_8  and  C_20 
REMARK    6  A    between atoms: S_9  and  C_16 
REMARK       I    between atoms: N_11  and  C_19 
REMARK    7  A    between atoms: C_16  and  C_20 
REMARK    8  A    between atoms: C_19  and  C_20 
ROOT
HETATM    1  O           1     -36.363  -3.371 -10.757  0.00  0.00    -0.271 OA
HETATM    2  H           1     -34.466  -0.873 -10.843  0.00  0.00     0.163 HD
HETATM    3  N           1     -35.335  -1.391 -10.869  0.00  0.00    -0.345 N 
HETATM    4  C           1     -35.325  -2.752 -10.725  0.00  0.00     0.249 C 
ENDROOT
BRANCH   3   5
HETATM    5  C           1     -36.591  -0.691 -11.060  0.00  0.00     0.185 C 
BRANCH   5   6
HETATM    6  C           1     -36.603   0.570 -10.206  0.00  0.00     0.040 C 
BRANCH   6   7
HETATM    7  C           1     -37.834   0.563  -9.309  0.00  0.00    -0.020 C 
HETATM    8  C           1     -37.611  -0.397  -8.149  0.00  0.00     0.009 C 
HETATM    9  C           1     -38.075   1.966  -8.768  0.00  0.00     0.009 C 
ENDBRANCH   6   7
ENDBRANCH   5   6
BRANCH   5  10
HETATM   10  C           1     -36.740  -0.316 -12.515  0.00  0.00     0.196 C 
HETATM   11  O           1     -35.880   0.407 -13.065  0.00  0.00    -0.646 OA
HETATM   12  O           1     -37.722  -0.728 -13.169  0.00  0.00    -0.646 OA
ENDBRANCH   5  10
ENDBRANCH   3   5
BRANCH   4  13
HETATM   13  C           1     -34.019  -3.480 -10.526  0.00  0.00     0.283 C 
BRANCH  13  14
HETATM   14  N           1     -34.288  -4.942 -10.320  0.00  0.00    -0.066 N 
HETATM   15  H           1     -33.715  -5.293  -9.519  0.00  0.00     0.275 HD
HETATM   16  H           1     -35.302  -5.083 -10.110  0.00  0.00     0.275 HD
HETATM   17  H           1     -34.034  -5.468 -11.187  0.00  0.00     0.275 HD
ENDBRANCH  13  14
BRANCH  13  18
HETATM   18  C           1     -33.141  -3.296 -11.757  0.00  0.00     0.113 C 
BRANCH  18  19
HETATM   19  S           1     -33.945  -4.055 -13.195  0.00  0.00    -0.180 SA
HETATM   20  H           1     -34.984  -3.203 -13.242  0.00  0.00     0.101 HD
ENDBRANCH  18  19
ENDBRANCH  13  18
ENDBRANCH   4  13
TORSDOF 8
ENDMDL
