MODEL 1
REMARK VINA RESULT:      -6.4      0.000      0.000
REMARK  8 active torsions:
REMARK  status: ('A' for Active; 'I' for Inactive)
REMARK    1  A    between atoms: N_2  and  C_20 
REMARK       I    between atoms: C_11  and  N_23 
REMARK    2  A    between atoms: C_11  and  C_20 
REMARK    3  A    between atoms: C_12  and  C_13 
REMARK    4  A    between atoms: C_13  and  C_14 
REMARK    5  A    between atoms: C_13  and  N_23 
REMARK    6  A    between atoms: C_14  and  C_25 
REMARK       I    between atoms: N_15  and  C_25 
REMARK       I    between atoms: N_17  and  C_18 
REMARK    7  A    between atoms: C_18  and  C_19 
REMARK    8  A    between atoms: C_19  and  C_20 
ROOT
HETATM    1  O           1     -26.020  -6.260 -18.135  0.00  0.00    -0.271 OA
HETATM    2  H           1     -28.421  -6.554 -20.133  0.00  0.00     0.163 HD
HETATM    3  C           1     -26.586  -6.478 -19.180  0.00  0.00     0.249 C 
HETATM    4  N           1     -27.948  -6.371 -19.258  0.00  0.00    -0.344 N 
ENDROOT
BRANCH   3   5
HETATM    5  C           1     -25.789  -6.867 -20.401  0.00  0.00     0.283 C 
BRANCH   5   6
HETATM    6  N           1     -25.464  -5.639 -21.198  0.00  0.00    -0.066 N 
HETATM    7  H           1     -26.322  -5.306 -21.693  0.00  0.00     0.275 HD
HETATM    8  H           1     -25.120  -4.889 -20.557  0.00  0.00     0.275 HD
HETATM    9  H           1     -24.724  -5.865 -21.900  0.00  0.00     0.275 HD
ENDBRANCH   5   6
BRANCH   5  10
HETATM   10  C           1     -24.496  -7.548 -19.970  0.00  0.00     0.145 C 
BRANCH  10  11
HETATM   11  C           1     -23.854  -8.210 -21.164  0.00  0.00     0.217 C 
HETATM   12  O           1     -24.359  -8.108 -22.257  0.00  0.00    -0.274 OA
HETATM   13  N           1     -22.697  -8.927 -21.009  0.00  0.00    -0.370 N 
HETATM   14  H           1     -22.265  -9.370 -21.809  0.00  0.00     0.159 HD
HETATM   15  H           1     -22.273  -9.011 -20.094  0.00  0.00     0.159 HD
ENDBRANCH  10  11
ENDBRANCH   5  10
ENDBRANCH   3   5
BRANCH   4  16
HETATM   16  C           1     -28.713  -5.997 -18.084  0.00  0.00     0.194 C 
BRANCH  16  17
HETATM   17  C           1     -29.760  -7.048 -17.809  0.00  0.00     0.197 C 
HETATM   18  O           1     -30.771  -6.763 -17.130  0.00  0.00    -0.646 OA
HETATM   19  O           1     -29.617  -8.206 -18.260  0.00  0.00    -0.646 OA
ENDBRANCH  16  17
BRANCH  16  20
HETATM   20  C           1     -29.391  -4.656 -18.327  0.00  0.00     0.138 C 
BRANCH  20  21
HETATM   21  C           1     -28.822  -3.625 -17.383  0.00  0.00     0.217 C 
HETATM   22  N           1     -29.292  -2.340 -17.409  0.00  0.00    -0.370 N 
HETATM   23  H           1     -30.021  -2.081 -18.061  0.00  0.00     0.159 HD
HETATM   24  H           1     -28.910  -1.648 -16.776  0.00  0.00     0.159 HD
HETATM   25  O           1     -27.952  -3.934 -16.605  0.00  0.00    -0.274 OA
ENDBRANCH  20  21
ENDBRANCH  16  20
ENDBRANCH   4  16
TORSDOF 8
ENDMDL
MODEL 2
REMARK VINA RESULT:      -6.4      1.826      3.077
REMARK  8 active torsions:
REMARK  status: ('A' for Active; 'I' for Inactive)
REMARK    1  A    between atoms: N_2  and  C_20 
REMARK       I    between atoms: C_11  and  N_23 
REMARK    2  A    between atoms: C_11  and  C_20 
REMARK    3  A    between atoms: C_12  and  C_13 
REMARK    4  A    between atoms: C_13  and  C_14 
REMARK    5  A    between atoms: C_13  and  N_23 
REMARK    6  A    between atoms: C_14  and  C_25 
REMARK       I    between atoms: N_15  and  C_25 
REMARK       I    between atoms: N_17  and  C_18 
REMARK    7  A    between atoms: C_18  and  C_19 
REMARK    8  A    between atoms: C_19  and  C_20 
ROOT
HETATM    1  O           1     -27.258  -6.018 -20.311  0.00  0.00    -0.271 OA
HETATM    2  H           1     -26.224  -6.704 -17.429  0.00  0.00     0.163 HD
HETATM    3  C           1     -26.492  -6.399 -19.459  0.00  0.00     0.249 C 
HETATM    4  N           1     -26.867  -6.385 -18.142  0.00  0.00    -0.344 N 
ENDROOT
BRANCH   3   5
HETATM    5  C           1     -25.119  -6.894 -19.846  0.00  0.00     0.283 C 
BRANCH   5   6
HETATM    6  N           1     -24.419  -7.425 -18.631  0.00  0.00    -0.066 N 
HETATM    7  H           1     -23.407  -7.573 -18.848  0.00  0.00     0.275 HD
HETATM    8  H           1     -24.509  -6.738 -17.849  0.00  0.00     0.275 HD
HETATM    9  H           1     -24.850  -8.334 -18.349  0.00  0.00     0.275 HD
ENDBRANCH   5   6
BRANCH   5  10
HETATM   10  C           1     -25.252  -8.004 -20.881  0.00  0.00     0.145 C 
BRANCH  10  11
HETATM   11  C           1     -23.988  -8.080 -21.702  0.00  0.00     0.217 C 
HETATM   12  O           1     -23.900  -7.461 -22.736  0.00  0.00    -0.274 OA
HETATM   13  N           1     -22.940  -8.850 -21.274  0.00  0.00    -0.370 N 
HETATM   14  H           1     -22.092  -8.901 -21.824  0.00  0.00     0.159 HD
HETATM   15  H           1     -23.013  -9.368 -20.408  0.00  0.00     0.159 HD
ENDBRANCH  10  11
ENDBRANCH   5  10
ENDBRANCH   3   5
BRANCH   4  16
HETATM   16  C           1     -28.185  -5.908 -17.770  0.00  0.00     0.194 C 
BRANCH  16  17
HETATM   17  C           1     -28.051  -4.730 -16.839  0.00  0.00     0.197 C 
HETATM   18  O           1     -27.571  -4.888 -15.695  0.00  0.00    -0.646 OA
HETATM   19  O           1     -28.420  -3.594 -17.210  0.00  0.00    -0.646 OA
ENDBRANCH  16  17
BRANCH  16  20
HETATM   20  C           1     -28.948  -7.025 -17.070  0.00  0.00     0.138 C 
BRANCH  20  21
HETATM   21  C           1     -29.986  -7.592 -18.007  0.00  0.00     0.217 C 
HETATM   22  N           1     -29.628  -8.526 -18.941  0.00  0.00    -0.370 N 
HETATM   23  H           1     -28.667  -8.837 -19.003  0.00  0.00     0.159 HD
HETATM   24  H           1     -30.325  -8.906 -19.570  0.00  0.00     0.159 HD
HETATM   25  O           1     -31.133  -7.220 -17.933  0.00  0.00    -0.274 OA
ENDBRANCH  20  21
ENDBRANCH  16  20
ENDBRANCH   4  16
TORSDOF 8
ENDMDL
MODEL 3
REMARK VINA RESULT:      -6.3     11.889     13.102
REMARK  8 active torsions:
REMARK  status: ('A' for Active; 'I' for Inactive)
REMARK    1  A    between atoms: N_2  and  C_20 
REMARK       I    between atoms: C_11  and  N_23 
REMARK    2  A    between atoms: C_11  and  C_20 
REMARK    3  A    between atoms: C_12  and  C_13 
REMARK    4  A    between atoms: C_13  and  C_14 
REMARK    5  A    between atoms: C_13  and  N_23 
REMARK    6  A    between atoms: C_14  and  C_25 
REMARK       I    between atoms: N_15  and  C_25 
REMARK       I    between atoms: N_17  and  C_18 
REMARK    7  A    between atoms: C_18  and  C_19 
REMARK    8  A    between atoms: C_19  and  C_20 
ROOT
HETATM    1  O           1     -21.492  -3.514  -7.299  0.00  0.00    -0.271 OA
HETATM    2  H           1     -22.467  -5.918  -9.064  0.00  0.00     0.163 HD
HETATM    3  C           1     -21.672  -4.664  -7.621  0.00  0.00     0.249 C 
HETATM    4  N           1     -22.316  -4.955  -8.794  0.00  0.00    -0.344 N 
ENDROOT
BRANCH   3   5
HETATM    5  C           1     -21.187  -5.781  -6.731  0.00  0.00     0.283 C 
BRANCH   5   6
HETATM    6  N           1     -19.905  -6.335  -7.278  0.00  0.00    -0.066 N 
HETATM    7  H           1     -19.185  -6.363  -6.521  0.00  0.00     0.275 HD
HETATM    8  H           1     -20.070  -7.303  -7.637  0.00  0.00     0.275 HD
HETATM    9  H           1     -19.567  -5.727  -8.057  0.00  0.00     0.275 HD
ENDBRANCH   5   6
BRANCH   5  10
HETATM   10  C           1     -20.948  -5.244  -5.325  0.00  0.00     0.145 C 
BRANCH  10  11
HETATM   11  C           1     -21.214  -6.336  -4.318  0.00  0.00     0.217 C 
HETATM   12  O           1     -20.792  -7.452  -4.509  0.00  0.00    -0.274 OA
HETATM   13  N           1     -21.933  -6.062  -3.185  0.00  0.00    -0.370 N 
HETATM   14  H           1     -22.111  -6.793  -2.509  0.00  0.00     0.159 HD
HETATM   15  H           1     -22.285  -5.127  -3.024  0.00  0.00     0.159 HD
ENDBRANCH  10  11
ENDBRANCH   5  10
ENDBRANCH   3   5
BRANCH   4  16
HETATM   16  C           1     -22.782  -3.880  -9.650  0.00  0.00     0.194 C 
BRANCH  16  17
HETATM   17  C           1     -24.291  -3.874  -9.672  0.00  0.00     0.197 C 
HETATM   18  O           1     -24.914  -2.800  -9.522  0.00  0.00    -0.646 OA
HETATM   19  O           1     -24.918  -4.942  -9.841  0.00  0.00    -0.646 OA
ENDBRANCH  16  17
BRANCH  16  20
HETATM   20  C           1     -22.254  -4.091 -11.062  0.00  0.00     0.138 C 
BRANCH  20  21
HETATM   21  C           1     -20.759  -3.888 -11.076  0.00  0.00     0.217 C 
HETATM   22  N           1     -20.234  -2.692 -11.485  0.00  0.00    -0.370 N 
HETATM   23  H           1     -20.850  -1.943 -11.778  0.00  0.00     0.159 HD
HETATM   24  H           1     -19.231  -2.555 -11.495  0.00  0.00     0.159 HD
HETATM   25  O           1     -20.024  -4.781 -10.726  0.00  0.00    -0.274 OA
ENDBRANCH  20  21
ENDBRANCH  16  20
ENDBRANCH   4  16
TORSDOF 8
ENDMDL
MODEL 4
REMARK VINA RESULT:      -6.1     11.430     12.703
REMARK  8 active torsions:
REMARK  status: ('A' for Active; 'I' for Inactive)
REMARK    1  A    between atoms: N_2  and  C_20 
REMARK       I    between atoms: C_11  and  N_23 
REMARK    2  A    between atoms: C_11  and  C_20 
REMARK    3  A    between atoms: C_12  and  C_13 
REMARK    4  A    between atoms: C_13  and  C_14 
REMARK    5  A    between atoms: C_13  and  N_23 
REMARK    6  A    between atoms: C_14  and  C_25 
REMARK       I    between atoms: N_15  and  C_25 
REMARK       I    between atoms: N_17  and  C_18 
REMARK    7  A    between atoms: C_18  and  C_19 
REMARK    8  A    between atoms: C_19  and  C_20 
ROOT
HETATM    1  O           1     -21.450  -3.194  -7.649  0.00  0.00    -0.271 OA
HETATM    2  H           1     -23.505  -5.357  -8.621  0.00  0.00     0.163 HD
HETATM    3  C           1     -22.135  -4.188  -7.600  0.00  0.00     0.249 C 
HETATM    4  N           1     -22.932  -4.524  -8.662  0.00  0.00    -0.344 N 
ENDROOT
BRANCH   3   5
HETATM    5  C           1     -22.111  -5.061  -6.370  0.00  0.00     0.283 C 
BRANCH   5   6
HETATM    6  N           1     -23.508  -5.493  -6.037  0.00  0.00    -0.066 N 
HETATM    7  H           1     -24.160  -5.181  -6.791  0.00  0.00     0.275 HD
HETATM    8  H           1     -23.540  -6.535  -5.959  0.00  0.00     0.275 HD
HETATM    9  H           1     -23.798  -5.066  -5.129  0.00  0.00     0.275 HD
ENDBRANCH   5   6
BRANCH   5  10
HETATM   10  C           1     -21.249  -6.289  -6.634  0.00  0.00     0.145 C 
BRANCH  10  11
HETATM   11  C           1     -21.301  -7.207  -5.437  0.00  0.00     0.217 C 
HETATM   12  O           1     -21.517  -6.755  -4.338  0.00  0.00    -0.274 OA
HETATM   13  N           1     -21.103  -8.552  -5.598  0.00  0.00    -0.370 N 
HETATM   14  H           1     -21.138  -9.168  -4.796  0.00  0.00     0.159 HD
HETATM   15  H           1     -20.922  -8.931  -6.519  0.00  0.00     0.159 HD
ENDBRANCH  10  11
ENDBRANCH   5  10
ENDBRANCH   3   5
BRANCH   4  16
HETATM   16  C           1     -22.955  -3.684  -9.844  0.00  0.00     0.194 C 
BRANCH  16  17
HETATM   17  C           1     -24.385  -3.396 -10.228  0.00  0.00     0.197 C 
HETATM   18  O           1     -24.810  -3.733 -11.355  0.00  0.00    -0.646 OA
HETATM   19  O           1     -25.146  -2.819  -9.421  0.00  0.00    -0.646 OA
ENDBRANCH  16  17
BRANCH  16  20
HETATM   20  C           1     -22.255  -4.402 -10.990  0.00  0.00     0.138 C 
BRANCH  20  21
HETATM   21  C           1     -20.781  -4.084 -10.959  0.00  0.00     0.217 C 
HETATM   22  N           1     -20.311  -2.958 -11.579  0.00  0.00    -0.370 N 
HETATM   23  H           1     -20.952  -2.339 -12.058  0.00  0.00     0.159 HD
HETATM   24  H           1     -19.321  -2.744 -11.558  0.00  0.00     0.159 HD
HETATM   25  O           1     -20.015  -4.822 -10.387  0.00  0.00    -0.274 OA
ENDBRANCH  20  21
ENDBRANCH  16  20
ENDBRANCH   4  16
TORSDOF 8
ENDMDL
MODEL 5
REMARK VINA RESULT:      -5.9     11.332     12.629
REMARK  8 active torsions:
REMARK  status: ('A' for Active; 'I' for Inactive)
REMARK    1  A    between atoms: N_2  and  C_20 
REMARK       I    between atoms: C_11  and  N_23 
REMARK    2  A    between atoms: C_11  and  C_20 
REMARK    3  A    between atoms: C_12  and  C_13 
REMARK    4  A    between atoms: C_13  and  C_14 
REMARK    5  A    between atoms: C_13  and  N_23 
REMARK    6  A    between atoms: C_14  and  C_25 
REMARK       I    between atoms: N_15  and  C_25 
REMARK       I    between atoms: N_17  and  C_18 
REMARK    7  A    between atoms: C_18  and  C_19 
REMARK    8  A    between atoms: C_19  and  C_20 
ROOT
HETATM    1  O           1     -20.946  -5.862  -8.463  0.00  0.00    -0.271 OA
HETATM    2  H           1     -22.628  -3.287  -9.084  0.00  0.00     0.163 HD
HETATM    3  C           1     -21.556  -4.844  -8.240  0.00  0.00     0.249 C 
HETATM    4  N           1     -22.117  -4.140  -9.271  0.00  0.00    -0.344 N 
ENDROOT
BRANCH   3   5
HETATM    5  C           1     -21.701  -4.347  -6.822  0.00  0.00     0.283 C 
BRANCH   5   6
HETATM    6  N           1     -22.871  -5.023  -6.173  0.00  0.00    -0.066 N 
HETATM    7  H           1     -23.692  -4.999  -6.819  0.00  0.00     0.275 HD
HETATM    8  H           1     -22.625  -6.016  -5.960  0.00  0.00     0.275 HD
HETATM    9  H           1     -23.113  -4.526  -5.286  0.00  0.00     0.275 HD
ENDBRANCH   5   6
BRANCH   5  10
HETATM   10  C           1     -20.433  -4.666  -6.039  0.00  0.00     0.145 C 
BRANCH  10  11
HETATM   11  C           1     -20.612  -5.970  -5.302  0.00  0.00     0.217 C 
HETATM   12  O           1     -21.127  -5.982  -4.209  0.00  0.00    -0.274 OA
HETATM   13  N           1     -20.192  -7.142  -5.872  0.00  0.00    -0.370 N 
HETATM   14  H           1     -20.313  -8.017  -5.379  0.00  0.00     0.159 HD
HETATM   15  H           1     -19.762  -7.133  -6.788  0.00  0.00     0.159 HD
ENDBRANCH  10  11
ENDBRANCH   5  10
ENDBRANCH   3   5
BRANCH   4  16
HETATM   16  C           1     -21.977  -4.617 -10.634  0.00  0.00     0.194 C 
BRANCH  16  17
HETATM   17  C           1     -21.229  -3.594 -11.451  0.00  0.00     0.197 C 
HETATM   18  O           1     -21.676  -3.233 -12.562  0.00  0.00    -0.646 OA
HETATM   19  O           1     -20.161  -3.108 -11.020  0.00  0.00    -0.646 OA
ENDBRANCH  16  17
BRANCH  16  20
HETATM   20  C           1     -23.358  -4.840 -11.237  0.00  0.00     0.138 C 
BRANCH  20  21
HETATM   21  C           1     -24.384  -4.069 -10.444  0.00  0.00     0.217 C 
HETATM   22  N           1     -25.191  -4.721  -9.551  0.00  0.00    -0.370 N 
HETATM   23  H           1     -25.099  -5.720  -9.423  0.00  0.00     0.159 HD
HETATM   24  H           1     -25.879  -4.204  -9.019  0.00  0.00     0.159 HD
HETATM   25  O           1     -24.494  -2.876 -10.597  0.00  0.00    -0.274 OA
ENDBRANCH  20  21
ENDBRANCH  16  20
ENDBRANCH   4  16
TORSDOF 8
ENDMDL
MODEL 6
REMARK VINA RESULT:      -5.8     11.663     12.882
REMARK  8 active torsions:
REMARK  status: ('A' for Active; 'I' for Inactive)
REMARK    1  A    between atoms: N_2  and  C_20 
REMARK       I    between atoms: C_11  and  N_23 
REMARK    2  A    between atoms: C_11  and  C_20 
REMARK    3  A    between atoms: C_12  and  C_13 
REMARK    4  A    between atoms: C_13  and  C_14 
REMARK    5  A    between atoms: C_13  and  N_23 
REMARK    6  A    between atoms: C_14  and  C_25 
REMARK       I    between atoms: N_15  and  C_25 
REMARK       I    between atoms: N_17  and  C_18 
REMARK    7  A    between atoms: C_18  and  C_19 
REMARK    8  A    between atoms: C_19  and  C_20 
ROOT
HETATM    1  O           1     -22.046  -5.804  -8.056  0.00  0.00    -0.271 OA
HETATM    2  H           1     -20.107  -3.620  -9.202  0.00  0.00     0.163 HD
HETATM    3  C           1     -21.063  -5.105  -8.123  0.00  0.00     0.249 C 
HETATM    4  N           1     -20.930  -4.205  -9.147  0.00  0.00    -0.344 N 
ENDROOT
BRANCH   3   5
HETATM    5  C           1     -19.983  -5.221  -7.076  0.00  0.00     0.283 C 
BRANCH   5   6
HETATM    6  N           1     -18.842  -4.315  -7.434  0.00  0.00    -0.066 N 
HETATM    7  H           1     -19.150  -3.637  -8.167  0.00  0.00     0.275 HD
HETATM    8  H           1     -18.533  -3.792  -6.584  0.00  0.00     0.275 HD
HETATM    9  H           1     -18.047  -4.885  -7.801  0.00  0.00     0.275 HD
ENDBRANCH   5   6
BRANCH   5  10
HETATM   10  C           1     -20.544  -4.816  -5.719  0.00  0.00     0.145 C 
BRANCH  10  11
HETATM   11  C           1     -20.825  -6.054  -4.902  0.00  0.00     0.217 C 
HETATM   12  O           1     -20.334  -7.112  -5.218  0.00  0.00    -0.274 OA
HETATM   13  N           1     -21.636  -5.977  -3.801  0.00  0.00    -0.370 N 
HETATM   14  H           1     -21.824  -6.807  -3.253  0.00  0.00     0.159 HD
HETATM   15  H           1     -22.046  -5.091  -3.536  0.00  0.00     0.159 HD
ENDBRANCH  10  11
ENDBRANCH   5  10
ENDBRANCH   3   5
BRANCH   4  16
HETATM   16  C           1     -21.969  -4.095 -10.153  0.00  0.00     0.194 C 
BRANCH  16  17
HETATM   17  C           1     -21.383  -3.524 -11.420  0.00  0.00     0.197 C 
HETATM   18  O           1     -21.927  -3.757 -12.522  0.00  0.00    -0.646 OA
HETATM   19  O           1     -20.352  -2.818 -11.370  0.00  0.00    -0.646 OA
ENDBRANCH  16  17
BRANCH  16  20
HETATM   20  C           1     -23.072  -3.177  -9.644  0.00  0.00     0.138 C 
BRANCH  20  21
HETATM   21  C           1     -24.414  -3.714 -10.075  0.00  0.00     0.217 C 
HETATM   22  N           1     -24.917  -4.847  -9.496  0.00  0.00    -0.370 N 
HETATM   23  H           1     -24.388  -5.325  -8.778  0.00  0.00     0.159 HD
HETATM   24  H           1     -25.817  -5.207  -9.786  0.00  0.00     0.159 HD
HETATM   25  O           1     -25.045  -3.143 -10.933  0.00  0.00    -0.274 OA
ENDBRANCH  20  21
ENDBRANCH  16  20
ENDBRANCH   4  16
TORSDOF 8
ENDMDL
MODEL 7
REMARK VINA RESULT:      -5.8     11.338     12.480
REMARK  8 active torsions:
REMARK  status: ('A' for Active; 'I' for Inactive)
REMARK    1  A    between atoms: N_2  and  C_20 
REMARK       I    between atoms: C_11  and  N_23 
REMARK    2  A    between atoms: C_11  and  C_20 
REMARK    3  A    between atoms: C_12  and  C_13 
REMARK    4  A    between atoms: C_13  and  C_14 
REMARK    5  A    between atoms: C_13  and  N_23 
REMARK    6  A    between atoms: C_14  and  C_25 
REMARK       I    between atoms: N_15  and  C_25 
REMARK       I    between atoms: N_17  and  C_18 
REMARK    7  A    between atoms: C_18  and  C_19 
REMARK    8  A    between atoms: C_19  and  C_20 
ROOT
HETATM    1  O           1     -20.778  -3.390  -8.085  0.00  0.00    -0.271 OA
HETATM    2  H           1     -23.646  -4.621  -7.763  0.00  0.00     0.163 HD
HETATM    3  C           1     -21.705  -3.939  -7.538  0.00  0.00     0.249 C 
HETATM    4  N           1     -22.870  -4.161  -8.222  0.00  0.00    -0.344 N 
ENDROOT
BRANCH   3   5
HETATM    5  C           1     -21.578  -4.381  -6.101  0.00  0.00     0.283 C 
BRANCH   5   6
HETATM    6  N           1     -22.536  -5.505  -5.838  0.00  0.00    -0.066 N 
HETATM    7  H           1     -22.890  -5.440  -4.857  0.00  0.00     0.275 HD
HETATM    8  H           1     -23.339  -5.440  -6.503  0.00  0.00     0.275 HD
HETATM    9  H           1     -22.046  -6.419  -5.971  0.00  0.00     0.275 HD
ENDBRANCH   5   6
BRANCH   5  10
HETATM   10  C           1     -20.154  -4.857  -5.839  0.00  0.00     0.145 C 
BRANCH  10  11
HETATM   11  C           1     -19.961  -6.225  -6.447  0.00  0.00     0.217 C 
HETATM   12  O           1     -20.157  -7.216  -5.782  0.00  0.00    -0.274 OA
HETATM   13  N           1     -19.565  -6.344  -7.752  0.00  0.00    -0.370 N 
HETATM   14  H           1     -19.437  -7.261  -8.160  0.00  0.00     0.159 HD
HETATM   15  H           1     -19.403  -5.515  -8.309  0.00  0.00     0.159 HD
ENDBRANCH  10  11
ENDBRANCH   5  10
ENDBRANCH   3   5
BRANCH   4  16
HETATM   16  C           1     -22.992  -3.735  -9.603  0.00  0.00     0.194 C 
BRANCH  16  17
HETATM   17  C           1     -24.427  -3.870 -10.047  0.00  0.00     0.197 C 
HETATM   18  O           1     -25.117  -4.833  -9.647  0.00  0.00    -0.646 OA
HETATM   19  O           1     -24.927  -3.020 -10.816  0.00  0.00    -0.646 OA
ENDBRANCH  16  17
BRANCH  16  20
HETATM   20  C           1     -22.103  -4.605 -10.482  0.00  0.00     0.138 C 
BRANCH  20  21
HETATM   21  C           1     -21.474  -3.757 -11.559  0.00  0.00     0.217 C 
HETATM   22  N           1     -20.361  -3.011 -11.280  0.00  0.00    -0.370 N 
HETATM   23  H           1     -19.961  -3.028 -10.351  0.00  0.00     0.159 HD
HETATM   24  H           1     -19.939  -2.442 -12.003  0.00  0.00     0.159 HD
HETATM   25  O           1     -21.952  -3.737 -12.668  0.00  0.00    -0.274 OA
ENDBRANCH  20  21
ENDBRANCH  16  20
ENDBRANCH   4  16
TORSDOF 8
ENDMDL
MODEL 8
REMARK VINA RESULT:      -5.7     12.236     13.471
REMARK  8 active torsions:
REMARK  status: ('A' for Active; 'I' for Inactive)
REMARK    1  A    between atoms: N_2  and  C_20 
REMARK       I    between atoms: C_11  and  N_23 
REMARK    2  A    between atoms: C_11  and  C_20 
REMARK    3  A    between atoms: C_12  and  C_13 
REMARK    4  A    between atoms: C_13  and  C_14 
REMARK    5  A    between atoms: C_13  and  N_23 
REMARK    6  A    between atoms: C_14  and  C_25 
REMARK       I    between atoms: N_15  and  C_25 
REMARK       I    between atoms: N_17  and  C_18 
REMARK    7  A    between atoms: C_18  and  C_19 
REMARK    8  A    between atoms: C_19  and  C_20 
ROOT
HETATM    1  O           1     -23.770  -4.380  -6.819  0.00  0.00    -0.271 OA
HETATM    2  H           1     -21.168  -5.197  -8.371  0.00  0.00     0.163 HD
HETATM    3  C           1     -23.043  -4.561  -7.767  0.00  0.00     0.249 C 
HETATM    4  N           1     -21.777  -5.046  -7.577  0.00  0.00    -0.344 N 
ENDROOT
BRANCH   3   5
HETATM    5  C           1     -23.531  -4.253  -9.161  0.00  0.00     0.283 C 
BRANCH   5   6
HETATM    6  N           1     -24.638  -3.244  -9.091  0.00  0.00    -0.066 N 
HETATM    7  H           1     -24.548  -2.570  -9.884  0.00  0.00     0.275 HD
HETATM    8  H           1     -25.559  -3.733  -9.153  0.00  0.00     0.275 HD
HETATM    9  H           1     -24.580  -2.724  -8.186  0.00  0.00     0.275 HD
ENDBRANCH   5   6
BRANCH   5  10
HETATM   10  C           1     -22.383  -3.688  -9.989  0.00  0.00     0.145 C 
BRANCH  10  11
HETATM   11  C           1     -22.501  -4.178 -11.412  0.00  0.00     0.217 C 
HETATM   12  O           1     -23.535  -4.669 -11.799  0.00  0.00    -0.274 OA
HETATM   13  N           1     -21.435  -4.066 -12.264  0.00  0.00    -0.370 N 
HETATM   14  H           1     -21.514  -4.394 -13.218  0.00  0.00     0.159 HD
HETATM   15  H           1     -20.569  -3.654 -11.940  0.00  0.00     0.159 HD
ENDBRANCH  10  11
ENDBRANCH   5  10
ENDBRANCH   3   5
BRANCH   4  16
HETATM   16  C           1     -21.308  -5.341  -6.236  0.00  0.00     0.194 C 
BRANCH  16  17
HETATM   17  C           1     -19.938  -4.741  -6.039  0.00  0.00     0.197 C 
HETATM   18  O           1     -19.149  -4.650  -7.005  0.00  0.00    -0.646 OA
HETATM   19  O           1     -19.590  -4.336  -4.908  0.00  0.00    -0.646 OA
ENDBRANCH  16  17
BRANCH  16  20
HETATM   20  C           1     -21.234  -6.850  -6.047  0.00  0.00     0.138 C 
BRANCH  20  21
HETATM   21  C           1     -21.841  -7.221  -4.716  0.00  0.00     0.217 C 
HETATM   22  N           1     -21.707  -8.495  -4.234  0.00  0.00    -0.370 N 
HETATM   23  H           1     -21.201  -9.188  -4.769  0.00  0.00     0.159 HD
HETATM   24  H           1     -22.115  -8.744  -3.341  0.00  0.00     0.159 HD
HETATM   25  O           1     -22.446  -6.394  -4.077  0.00  0.00    -0.274 OA
ENDBRANCH  20  21
ENDBRANCH  16  20
ENDBRANCH   4  16
TORSDOF 8
ENDMDL
MODEL 9
REMARK VINA RESULT:      -5.5     14.032     15.078
REMARK  8 active torsions:
REMARK  status: ('A' for Active; 'I' for Inactive)
REMARK    1  A    between atoms: N_2  and  C_20 
REMARK       I    between atoms: C_11  and  N_23 
REMARK    2  A    between atoms: C_11  and  C_20 
REMARK    3  A    between atoms: C_12  and  C_13 
REMARK    4  A    between atoms: C_13  and  C_14 
REMARK    5  A    between atoms: C_13  and  N_23 
REMARK    6  A    between atoms: C_14  and  C_25 
REMARK       I    between atoms: N_15  and  C_25 
REMARK       I    between atoms: N_17  and  C_18 
REMARK    7  A    between atoms: C_18  and  C_19 
REMARK    8  A    between atoms: C_19  and  C_20 
ROOT
HETATM    1  O           1     -19.944  -4.431  -5.258  0.00  0.00    -0.271 OA
HETATM    2  H           1     -21.602  -6.642  -6.744  0.00  0.00     0.163 HD
HETATM    3  C           1     -20.616  -4.929  -6.130  0.00  0.00     0.249 C 
HETATM    4  N           1     -21.040  -6.225  -6.013  0.00  0.00    -0.344 N 
ENDROOT
BRANCH   3   5
HETATM    5  C           1     -20.988  -4.121  -7.349  0.00  0.00     0.283 C 
BRANCH   5   6
HETATM    6  N           1     -19.757  -3.843  -8.160  0.00  0.00    -0.066 N 
HETATM    7  H           1     -20.024  -3.358  -9.046  0.00  0.00     0.275 HD
HETATM    8  H           1     -19.109  -3.234  -7.611  0.00  0.00     0.275 HD
HETATM    9  H           1     -19.279  -4.744  -8.388  0.00  0.00     0.275 HD
ENDBRANCH   5   6
BRANCH   5  10
HETATM   10  C           1     -21.985  -4.905  -8.194  0.00  0.00     0.145 C 
BRANCH  10  11
HETATM   11  C           1     -22.813  -3.945  -9.014  0.00  0.00     0.217 C 
HETATM   12  O           1     -22.345  -3.435 -10.003  0.00  0.00    -0.274 OA
HETATM   13  N           1     -24.097  -3.655  -8.635  0.00  0.00    -0.370 N 
HETATM   14  H           1     -24.653  -3.012  -9.184  0.00  0.00     0.159 HD
HETATM   15  H           1     -24.489  -4.083  -7.807  0.00  0.00     0.159 HD
ENDBRANCH  10  11
ENDBRANCH   5  10
ENDBRANCH   3   5
BRANCH   4  16
HETATM   16  C           1     -20.680  -7.002  -4.842  0.00  0.00     0.194 C 
BRANCH  16  17
HETATM   17  C           1     -20.138  -8.341  -5.273  0.00  0.00     0.197 C 
HETATM   18  O           1     -19.108  -8.402  -5.980  0.00  0.00    -0.646 OA
HETATM   19  O           1     -20.719  -9.393  -4.926  0.00  0.00    -0.646 OA
ENDBRANCH  16  17
BRANCH  16  20
HETATM   20  C           1     -21.914  -7.208  -3.974  0.00  0.00     0.138 C 
BRANCH  20  21
HETATM   21  C           1     -21.603  -6.809  -2.552  0.00  0.00     0.217 C 
HETATM   22  N           1     -22.269  -5.763  -1.973  0.00  0.00    -0.370 N 
HETATM   23  H           1     -22.971  -5.258  -2.498  0.00  0.00     0.159 HD
HETATM   24  H           1     -22.060  -5.495  -1.020  0.00  0.00     0.159 HD
HETATM   25  O           1     -20.765  -7.412  -1.926  0.00  0.00    -0.274 OA
ENDBRANCH  20  21
ENDBRANCH  16  20
ENDBRANCH   4  16
TORSDOF 8
ENDMDL
