MODEL 1
REMARK VINA RESULT:      -5.9      0.000      0.000
REMARK  7 active torsions:
REMARK  status: ('A' for Active; 'I' for Inactive)
REMARK       I    between atoms: C_1  and  N_7 
REMARK    1  A    between atoms: C_1  and  C_9 
REMARK    2  A    between atoms: N_7  and  C_17 
REMARK    3  A    between atoms: C_9  and  N_10 
REMARK    4  A    between atoms: C_11  and  C_17 
REMARK    5  A    between atoms: C_13  and  C_15 
REMARK    6  A    between atoms: C_15  and  C_16 
REMARK    7  A    between atoms: C_16  and  C_17 
ROOT
HETATM    1  C           1     -37.283   0.031 -10.854  0.00  0.00     0.243 C 
HETATM    2  N           1     -36.136   0.222 -11.577  0.00  0.00    -0.345 N 
HETATM    3  H           1     -35.472   0.932 -11.296  0.00  0.00     0.163 HD
HETATM    4  O           1     -38.075  -0.816 -11.189  0.00  0.00    -0.272 OA
ENDROOT
BRANCH   2   5
HETATM    5  C           1     -35.873  -0.594 -12.746  0.00  0.00     0.186 C 
BRANCH   5   6
HETATM    6  C           1     -34.804  -1.609 -12.421  0.00  0.00     0.196 C 
HETATM    7  O           1     -34.132  -1.493 -11.374  0.00  0.00    -0.646 OA
HETATM    8  O           1     -34.591  -2.564 -13.199  0.00  0.00    -0.646 OA
ENDBRANCH   5   6
BRANCH   5   9
HETATM    9  C           1     -35.400   0.296 -13.888  0.00  0.00     0.046 C 
BRANCH   9  10
HETATM   10  C           1     -36.470   0.347 -14.971  0.00  0.00     0.116 C 
BRANCH  10  11
HETATM   11  C           1     -36.067  -0.548 -16.119  0.00  0.00     0.172 C 
HETATM   12  O           1     -36.876  -0.780 -17.043  0.00  0.00    -0.648 OA
HETATM   13  O           1     -34.925  -1.055 -16.144  0.00  0.00    -0.648 OA
ENDBRANCH  10  11
ENDBRANCH   9  10
ENDBRANCH   5   9
ENDBRANCH   2   5
BRANCH   1  14
HETATM   14  C           1     -37.557   0.881  -9.636  0.00  0.00     0.332 C 
BRANCH  14  15
HETATM   15  N           1     -36.263   1.202  -8.949  0.00  0.00    -0.071 N 
HETATM   16  H           1     -35.957   0.382  -8.379  0.00  0.00     0.274 HD
HETATM   17  H           1     -35.533   1.418  -9.665  0.00  0.00     0.274 HD
HETATM   18  H           1     -36.395   2.030  -8.326  0.00  0.00     0.274 HD
ENDBRANCH  14  15
ENDBRANCH   1  14
TORSDOF 7
ENDMDL
MODEL 2
REMARK VINA RESULT:      -5.9      2.203      4.334
REMARK  7 active torsions:
REMARK  status: ('A' for Active; 'I' for Inactive)
REMARK       I    between atoms: C_1  and  N_7 
REMARK    1  A    between atoms: C_1  and  C_9 
REMARK    2  A    between atoms: N_7  and  C_17 
REMARK    3  A    between atoms: C_9  and  N_10 
REMARK    4  A    between atoms: C_11  and  C_17 
REMARK    5  A    between atoms: C_13  and  C_15 
REMARK    6  A    between atoms: C_15  and  C_16 
REMARK    7  A    between atoms: C_16  and  C_17 
ROOT
HETATM    1  C           1     -35.247  -0.209 -13.435  0.00  0.00     0.243 C 
HETATM    2  N           1     -34.829  -0.480 -12.160  0.00  0.00    -0.345 N 
HETATM    3  H           1     -34.131   0.106 -11.721  0.00  0.00     0.163 HD
HETATM    4  O           1     -36.080  -0.909 -13.959  0.00  0.00    -0.272 OA
ENDROOT
BRANCH   2   5
HETATM    5  C           1     -35.387  -1.607 -11.439  0.00  0.00     0.186 C 
BRANCH   5   6
HETATM    6  C           1     -36.445  -1.117 -10.481  0.00  0.00     0.196 C 
HETATM    7  O           1     -36.111  -0.591  -9.398  0.00  0.00    -0.646 OA
HETATM    8  O           1     -37.655  -1.236 -10.772  0.00  0.00    -0.646 OA
ENDBRANCH   5   6
BRANCH   5   9
HETATM    9  C           1     -34.280  -2.307 -10.660  0.00  0.00     0.046 C 
BRANCH   9  10
HETATM   10  C           1     -33.375  -3.059 -11.627  0.00  0.00     0.116 C 
BRANCH  10  11
HETATM   11  C           1     -34.218  -3.908 -12.548  0.00  0.00     0.172 C 
HETATM   12  O           1     -34.234  -3.672 -13.775  0.00  0.00    -0.648 OA
HETATM   13  O           1     -34.900  -4.847 -12.083  0.00  0.00    -0.648 OA
ENDBRANCH  10  11
ENDBRANCH   9  10
ENDBRANCH   5   9
ENDBRANCH   2   5
BRANCH   1  14
HETATM   14  C           1     -34.666   0.964 -14.187  0.00  0.00     0.332 C 
BRANCH  14  15
HETATM   15  N           1     -35.705   1.533 -15.106  0.00  0.00    -0.071 N 
HETATM   16  H           1     -35.342   2.410 -15.544  0.00  0.00     0.274 HD
HETATM   17  H           1     -35.926   0.838 -15.855  0.00  0.00     0.274 HD
HETATM   18  H           1     -36.572   1.748 -14.563  0.00  0.00     0.274 HD
ENDBRANCH  14  15
ENDBRANCH   1  14
TORSDOF 7
ENDMDL
MODEL 3
REMARK VINA RESULT:      -5.7     11.513     12.989
REMARK  7 active torsions:
REMARK  status: ('A' for Active; 'I' for Inactive)
REMARK       I    between atoms: C_1  and  N_7 
REMARK    1  A    between atoms: C_1  and  C_9 
REMARK    2  A    between atoms: N_7  and  C_17 
REMARK    3  A    between atoms: C_9  and  N_10 
REMARK    4  A    between atoms: C_11  and  C_17 
REMARK    5  A    between atoms: C_13  and  C_15 
REMARK    6  A    between atoms: C_15  and  C_16 
REMARK    7  A    between atoms: C_16  and  C_17 
ROOT
HETATM    1  C           1     -26.270  -6.143 -16.707  0.00  0.00     0.243 C 
HETATM    2  N           1     -26.715  -6.708 -17.872  0.00  0.00    -0.345 N 
HETATM    3  H           1     -26.407  -7.635 -18.135  0.00  0.00     0.163 HD
HETATM    4  O           1     -26.639  -5.037 -16.393  0.00  0.00    -0.272 OA
ENDROOT
BRANCH   2   5
HETATM    5  C           1     -27.629  -5.978 -18.728  0.00  0.00     0.186 C 
BRANCH   5   6
HETATM    6  C           1     -29.048  -6.375 -18.404  0.00  0.00     0.196 C 
HETATM    7  O           1     -29.393  -7.574 -18.477  0.00  0.00    -0.646 OA
HETATM    8  O           1     -29.878  -5.505 -18.060  0.00  0.00    -0.646 OA
ENDBRANCH   5   6
BRANCH   5   9
HETATM    9  C           1     -27.329  -6.307 -20.185  0.00  0.00     0.046 C 
BRANCH   9  10
HETATM   10  C           1     -25.937  -6.918 -20.293  0.00  0.00     0.116 C 
BRANCH  10  11
HETATM   11  C           1     -25.961  -8.051 -21.290  0.00  0.00     0.172 C 
HETATM   12  O           1     -24.947  -8.300 -21.977  0.00  0.00    -0.648 OA
HETATM   13  O           1     -26.995  -8.740 -21.428  0.00  0.00    -0.648 OA
ENDBRANCH  10  11
ENDBRANCH   9  10
ENDBRANCH   5   9
ENDBRANCH   2   5
BRANCH   1  14
HETATM   14  C           1     -25.319  -6.904 -15.815  0.00  0.00     0.332 C 
BRANCH  14  15
HETATM   15  N           1     -24.349  -7.675 -16.660  0.00  0.00    -0.071 N 
HETATM   16  H           1     -24.396  -7.332 -17.646  0.00  0.00     0.274 HD
HETATM   17  H           1     -23.381  -7.539 -16.291  0.00  0.00     0.274 HD
HETATM   18  H           1     -24.593  -8.691 -16.632  0.00  0.00     0.274 HD
ENDBRANCH  14  15
ENDBRANCH   1  14
TORSDOF 7
ENDMDL
MODEL 4
REMARK VINA RESULT:      -5.4     14.198     15.786
REMARK  7 active torsions:
REMARK  status: ('A' for Active; 'I' for Inactive)
REMARK       I    between atoms: C_1  and  N_7 
REMARK    1  A    between atoms: C_1  and  C_9 
REMARK    2  A    between atoms: N_7  and  C_17 
REMARK    3  A    between atoms: C_9  and  N_10 
REMARK    4  A    between atoms: C_11  and  C_17 
REMARK    5  A    between atoms: C_13  and  C_15 
REMARK    6  A    between atoms: C_15  and  C_16 
REMARK    7  A    between atoms: C_16  and  C_17 
ROOT
HETATM    1  C           1     -21.165  -6.011  -6.027  0.00  0.00     0.243 C 
HETATM    2  N           1     -21.353  -4.806  -6.648  0.00  0.00    -0.345 N 
HETATM    3  H           1     -21.372  -3.954  -6.104  0.00  0.00     0.163 HD
HETATM    4  O           1     -21.142  -7.029  -6.676  0.00  0.00    -0.272 OA
ENDROOT
BRANCH   2   5
HETATM    5  C           1     -21.527  -4.753  -8.087  0.00  0.00     0.186 C 
BRANCH   5   6
HETATM    6  C           1     -20.190  -4.511  -8.745  0.00  0.00     0.196 C 
HETATM    7  O           1     -20.039  -4.758  -9.961  0.00  0.00    -0.646 OA
HETATM    8  O           1     -19.235  -4.062  -8.074  0.00  0.00    -0.646 OA
ENDBRANCH   5   6
BRANCH   5   9
HETATM    9  C           1     -22.481  -3.619  -8.440  0.00  0.00     0.046 C 
BRANCH   9  10
HETATM   10  C           1     -23.766  -4.197  -9.017  0.00  0.00     0.116 C 
BRANCH  10  11
HETATM   11  C           1     -23.970  -3.671 -10.417  0.00  0.00     0.172 C 
HETATM   12  O           1     -25.084  -3.220 -10.760  0.00  0.00    -0.648 OA
HETATM   13  O           1     -23.024  -3.687 -11.235  0.00  0.00    -0.648 OA
ENDBRANCH  10  11
ENDBRANCH   9  10
ENDBRANCH   5   9
ENDBRANCH   2   5
BRANCH   1  14
HETATM   14  C           1     -20.985  -6.067  -4.529  0.00  0.00     0.332 C 
BRANCH  14  15
HETATM   15  N           1     -22.321  -6.233  -3.870  0.00  0.00    -0.071 N 
HETATM   16  H           1     -22.839  -7.020  -4.323  0.00  0.00     0.274 HD
HETATM   17  H           1     -22.186  -6.445  -2.855  0.00  0.00     0.274 HD
HETATM   18  H           1     -22.872  -5.351  -3.971  0.00  0.00     0.274 HD
ENDBRANCH  14  15
ENDBRANCH   1  14
TORSDOF 7
ENDMDL
MODEL 5
REMARK VINA RESULT:      -5.3     12.909     14.593
REMARK  7 active torsions:
REMARK  status: ('A' for Active; 'I' for Inactive)
REMARK       I    between atoms: C_1  and  N_7 
REMARK    1  A    between atoms: C_1  and  C_9 
REMARK    2  A    between atoms: N_7  and  C_17 
REMARK    3  A    between atoms: C_9  and  N_10 
REMARK    4  A    between atoms: C_11  and  C_17 
REMARK    5  A    between atoms: C_13  and  C_15 
REMARK    6  A    between atoms: C_15  and  C_16 
REMARK    7  A    between atoms: C_16  and  C_17 
ROOT
HETATM    1  C           1     -22.353  -4.294  -7.745  0.00  0.00     0.243 C 
HETATM    2  N           1     -23.234  -4.627  -8.738  0.00  0.00    -0.345 N 
HETATM    3  H           1     -23.871  -5.403  -8.610  0.00  0.00     0.163 HD
HETATM    4  O           1     -21.593  -3.368  -7.897  0.00  0.00    -0.272 OA
ENDROOT
BRANCH   2   5
HETATM    5  C           1     -23.254  -3.868  -9.973  0.00  0.00     0.186 C 
BRANCH   5   6
HETATM    6  C           1     -24.628  -3.276 -10.176  0.00  0.00     0.196 C 
HETATM    7  O           1     -25.197  -2.683  -9.236  0.00  0.00    -0.646 OA
HETATM    8  O           1     -25.194  -3.379 -11.286  0.00  0.00    -0.646 OA
ENDBRANCH   5   6
BRANCH   5   9
HETATM    9  C           1     -22.920  -4.790 -11.139  0.00  0.00     0.046 C 
BRANCH   9  10
HETATM   10  C           1     -21.853  -4.141 -12.011  0.00  0.00     0.116 C 
BRANCH  10  11
HETATM   11  C           1     -20.622  -3.869 -11.181  0.00  0.00     0.172 C 
HETATM   12  O           1     -20.195  -2.700 -11.061  0.00  0.00    -0.648 OA
HETATM   13  O           1     -20.029  -4.812 -10.614  0.00  0.00    -0.648 OA
ENDBRANCH  10  11
ENDBRANCH   9  10
ENDBRANCH   5   9
ENDBRANCH   2   5
BRANCH   1  14
HETATM   14  C           1     -22.332  -5.084  -6.459  0.00  0.00     0.332 C 
BRANCH  14  15
HETATM   15  N           1     -23.738  -5.324  -5.996  0.00  0.00    -0.071 N 
HETATM   16  H           1     -24.366  -4.588  -6.390  0.00  0.00     0.274 HD
HETATM   17  H           1     -24.057  -6.264  -6.324  0.00  0.00     0.274 HD
HETATM   18  H           1     -23.772  -5.290  -4.952  0.00  0.00     0.274 HD
ENDBRANCH  14  15
ENDBRANCH   1  14
TORSDOF 7
ENDMDL
MODEL 6
REMARK VINA RESULT:      -5.2     10.343     11.640
REMARK  7 active torsions:
REMARK  status: ('A' for Active; 'I' for Inactive)
REMARK       I    between atoms: C_1  and  N_7 
REMARK    1  A    between atoms: C_1  and  C_9 
REMARK    2  A    between atoms: N_7  and  C_17 
REMARK    3  A    between atoms: C_9  and  N_10 
REMARK    4  A    between atoms: C_11  and  C_17 
REMARK    5  A    between atoms: C_13  and  C_15 
REMARK    6  A    between atoms: C_15  and  C_16 
REMARK    7  A    between atoms: C_16  and  C_17 
ROOT
HETATM    1  C           1     -29.628  -5.082 -17.600  0.00  0.00     0.243 C 
HETATM    2  N           1     -28.266  -5.049 -17.734  0.00  0.00    -0.345 N 
HETATM    3  H           1     -27.792  -4.164 -17.861  0.00  0.00     0.163 HD
HETATM    4  O           1     -30.195  -6.137 -17.448  0.00  0.00    -0.272 OA
ENDROOT
BRANCH   2   5
HETATM    5  C           1     -27.504  -6.281 -17.695  0.00  0.00     0.186 C 
BRANCH   5   6
HETATM    6  C           1     -26.758  -6.369 -16.386  0.00  0.00     0.196 C 
HETATM    7  O           1     -27.098  -7.212 -15.529  0.00  0.00    -0.646 OA
HETATM    8  O           1     -25.798  -5.599 -16.161  0.00  0.00    -0.646 OA
ENDBRANCH   5   6
BRANCH   5   9
HETATM    9  C           1     -26.510  -6.299 -18.850  0.00  0.00     0.046 C 
BRANCH   9  10
HETATM   10  C           1     -27.232  -6.682 -20.136  0.00  0.00     0.116 C 
BRANCH  10  11
HETATM   11  C           1     -26.489  -7.808 -20.813  0.00  0.00     0.172 C 
HETATM   12  O           1     -27.122  -8.691 -21.432  0.00  0.00    -0.648 OA
HETATM   13  O           1     -25.241  -7.859 -20.754  0.00  0.00    -0.648 OA
ENDBRANCH  10  11
ENDBRANCH   9  10
ENDBRANCH   5   9
ENDBRANCH   2   5
BRANCH   1  14
HETATM   14  C           1     -30.422  -3.799 -17.641  0.00  0.00     0.332 C 
BRANCH  14  15
HETATM   15  N           1     -29.488  -2.629 -17.547  0.00  0.00    -0.071 N 
HETATM   16  H           1     -28.512  -2.973 -17.402  0.00  0.00     0.274 HD
HETATM   17  H           1     -29.532  -2.076 -18.433  0.00  0.00     0.274 HD
HETATM   18  H           1     -29.767  -2.023 -16.743  0.00  0.00     0.274 HD
ENDBRANCH  14  15
ENDBRANCH   1  14
TORSDOF 7
ENDMDL
MODEL 7
REMARK VINA RESULT:      -4.9      9.021     10.670
REMARK  7 active torsions:
REMARK  status: ('A' for Active; 'I' for Inactive)
REMARK       I    between atoms: C_1  and  N_7 
REMARK    1  A    between atoms: C_1  and  C_9 
REMARK    2  A    between atoms: N_7  and  C_17 
REMARK    3  A    between atoms: C_9  and  N_10 
REMARK    4  A    between atoms: C_11  and  C_17 
REMARK    5  A    between atoms: C_13  and  C_15 
REMARK    6  A    between atoms: C_15  and  C_16 
REMARK    7  A    between atoms: C_16  and  C_17 
ROOT
HETATM    1  C           1     -30.652  -4.804 -17.284  0.00  0.00     0.243 C 
HETATM    2  N           1     -29.827  -5.307 -18.254  0.00  0.00    -0.345 N 
HETATM    3  H           1     -29.831  -4.903 -19.182  0.00  0.00     0.163 HD
HETATM    4  O           1     -30.647  -5.286 -16.177  0.00  0.00    -0.272 OA
ENDROOT
BRANCH   2   5
HETATM    5  C           1     -28.949  -6.420 -17.952  0.00  0.00     0.186 C 
BRANCH   5   6
HETATM    6  C           1     -29.755  -7.695 -17.894  0.00  0.00     0.196 C 
HETATM    7  O           1     -29.619  -8.476 -16.929  0.00  0.00    -0.646 OA
HETATM    8  O           1     -30.559  -7.968 -18.812  0.00  0.00    -0.646 OA
ENDBRANCH   5   6
BRANCH   5   9
HETATM    9  C           1     -28.275  -6.182 -16.606  0.00  0.00     0.046 C 
BRANCH   9  10
HETATM   10  C           1     -26.873  -5.631 -16.829  0.00  0.00     0.116 C 
BRANCH  10  11
HETATM   11  C           1     -25.856  -6.624 -16.321  0.00  0.00     0.172 C 
HETATM   12  O           1     -26.160  -7.416 -15.403  0.00  0.00    -0.648 OA
HETATM   13  O           1     -24.708  -6.653 -16.817  0.00  0.00    -0.648 OA
ENDBRANCH  10  11
ENDBRANCH   9  10
ENDBRANCH   5   9
ENDBRANCH   2   5
BRANCH   1  14
HETATM   14  C           1     -31.567  -3.646 -17.599  0.00  0.00     0.332 C 
BRANCH  14  15
HETATM   15  N           1     -32.915  -3.893 -16.988  0.00  0.00    -0.071 N 
HETATM   16  H           1     -33.145  -4.910 -17.049  0.00  0.00     0.274 HD
HETATM   17  H           1     -32.901  -3.599 -15.985  0.00  0.00     0.274 HD
HETATM   18  H           1     -33.637  -3.340 -17.503  0.00  0.00     0.274 HD
ENDBRANCH  14  15
ENDBRANCH   1  14
TORSDOF 7
ENDMDL
MODEL 8
REMARK VINA RESULT:      -4.9      2.494      4.966
REMARK  7 active torsions:
REMARK  status: ('A' for Active; 'I' for Inactive)
REMARK       I    between atoms: C_1  and  N_7 
REMARK    1  A    between atoms: C_1  and  C_9 
REMARK    2  A    between atoms: N_7  and  C_17 
REMARK    3  A    between atoms: C_9  and  N_10 
REMARK    4  A    between atoms: C_11  and  C_17 
REMARK    5  A    between atoms: C_13  and  C_15 
REMARK    6  A    between atoms: C_15  and  C_16 
REMARK    7  A    between atoms: C_16  and  C_17 
ROOT
HETATM    1  C           1     -36.068  -0.292 -14.601  0.00  0.00     0.243 C 
HETATM    2  N           1     -35.145  -0.686 -13.670  0.00  0.00    -0.345 N 
HETATM    3  H           1     -34.281  -0.171 -13.565  0.00  0.00     0.163 HD
HETATM    4  O           1     -37.100  -0.907 -14.727  0.00  0.00    -0.272 OA
ENDROOT
BRANCH   2   5
HETATM    5  C           1     -35.406  -1.843 -12.836  0.00  0.00     0.186 C 
BRANCH   5   6
HETATM    6  C           1     -35.897  -1.387 -11.484  0.00  0.00     0.196 C 
HETATM    7  O           1     -36.814  -2.013 -10.910  0.00  0.00    -0.646 OA
HETATM    8  O           1     -35.386  -0.385 -10.939  0.00  0.00    -0.646 OA
ENDBRANCH   5   6
BRANCH   5   9
HETATM    9  C           1     -34.121  -2.645 -12.667  0.00  0.00     0.046 C 
BRANCH   9  10
HETATM   10  C           1     -34.452  -4.131 -12.617  0.00  0.00     0.116 C 
BRANCH  10  11
HETATM   11  C           1     -33.915  -4.722 -11.336  0.00  0.00     0.172 C 
HETATM   12  O           1     -33.681  -3.983 -10.356  0.00  0.00    -0.648 OA
HETATM   13  O           1     -33.704  -5.952 -11.255  0.00  0.00    -0.648 OA
ENDBRANCH  10  11
ENDBRANCH   9  10
ENDBRANCH   5   9
ENDBRANCH   2   5
BRANCH   1  14
HETATM   14  C           1     -35.797   0.912 -15.470  0.00  0.00     0.332 C 
BRANCH  14  15
HETATM   15  N           1     -37.097   1.485 -15.951  0.00  0.00    -0.071 N 
HETATM   16  H           1     -37.646   0.743 -16.441  0.00  0.00     0.274 HD
HETATM   17  H           1     -37.645   1.840 -15.134  0.00  0.00     0.274 HD
HETATM   18  H           1     -36.908   2.272 -16.612  0.00  0.00     0.274 HD
ENDBRANCH  14  15
ENDBRANCH   1  14
TORSDOF 7
ENDMDL
MODEL 9
REMARK VINA RESULT:      -4.8     16.907     18.646
REMARK  7 active torsions:
REMARK  status: ('A' for Active; 'I' for Inactive)
REMARK       I    between atoms: C_1  and  N_7 
REMARK    1  A    between atoms: C_1  and  C_9 
REMARK    2  A    between atoms: N_7  and  C_17 
REMARK    3  A    between atoms: C_9  and  N_10 
REMARK    4  A    between atoms: C_11  and  C_17 
REMARK    5  A    between atoms: C_13  and  C_15 
REMARK    6  A    between atoms: C_15  and  C_16 
REMARK    7  A    between atoms: C_16  and  C_17 
ROOT
HETATM    1  C           1     -20.815  -4.738  -6.173  0.00  0.00     0.243 C 
HETATM    2  N           1     -21.611  -5.714  -5.635  0.00  0.00    -0.345 N 
HETATM    3  H           1     -22.520  -5.905  -6.037  0.00  0.00     0.163 HD
HETATM    4  O           1     -19.731  -4.511  -5.694  0.00  0.00    -0.272 OA
ENDROOT
BRANCH   2   5
HETATM    5  C           1     -21.151  -6.473  -4.489  0.00  0.00     0.186 C 
BRANCH   5   6
HETATM    6  C           1     -20.630  -7.812  -4.950  0.00  0.00     0.196 C 
HETATM    7  O           1     -19.735  -8.391  -4.299  0.00  0.00    -0.646 OA
HETATM    8  O           1     -21.094  -8.342  -5.983  0.00  0.00    -0.646 OA
ENDBRANCH   5   6
BRANCH   5   9
HETATM    9  C           1     -22.311  -6.684  -3.523  0.00  0.00     0.046 C 
BRANCH   9  10
HETATM   10  C           1     -21.959  -6.086  -2.167  0.00  0.00     0.116 C 
BRANCH  10  11
HETATM   11  C           1     -22.017  -7.164  -1.112  0.00  0.00     0.172 C 
HETATM   12  O           1     -21.103  -8.014  -1.036  0.00  0.00    -0.648 OA
HETATM   13  O           1     -22.978  -7.206  -0.314  0.00  0.00    -0.648 OA
ENDBRANCH  10  11
ENDBRANCH   9  10
ENDBRANCH   5   9
ENDBRANCH   2   5
BRANCH   1  14
HETATM   14  C           1     -21.294  -3.947  -7.367  0.00  0.00     0.332 C 
BRANCH  14  15
HETATM   15  N           1     -22.787  -4.045  -7.466  0.00  0.00    -0.071 N 
HETATM   16  H           1     -23.134  -4.779  -6.807  0.00  0.00     0.274 HD
HETATM   17  H           1     -23.214  -3.125  -7.215  0.00  0.00     0.274 HD
HETATM   18  H           1     -23.056  -4.300  -8.443  0.00  0.00     0.274 HD
ENDBRANCH  14  15
ENDBRANCH   1  14
TORSDOF 7
ENDMDL
