MODEL 1
REMARK VINA RESULT:      -6.7      0.000      0.000
REMARK  5 active torsions:
REMARK  status: ('A' for Active; 'I' for Inactive)
REMARK    1  A    between atoms: N_1  and  C_7 
REMARK    2  A    between atoms: C_6  and  C_7 
REMARK    3  A    between atoms: C_6  and  C_21 
REMARK    4  A    between atoms: C_7  and  C_10 
REMARK       I    between atoms: C_10  and  N_11 
REMARK    5  A    between atoms: C_13  and  C_14 
ROOT
HETATM    1  C           1     -20.250  -4.966  -7.300  0.00  0.00     0.280 C 
ENDROOT
BRANCH   1   2
HETATM    2  N           1     -18.930  -4.318  -7.601  0.00  0.00    -0.066 N 
HETATM    3  H           1     -18.702  -4.448  -8.613  0.00  0.00     0.275 HD
HETATM    4  H           1     -18.988  -3.298  -7.386  0.00  0.00     0.275 HD
HETATM    5  H           1     -18.184  -4.758  -7.017  0.00  0.00     0.275 HD
ENDBRANCH   1   2
BRANCH   1   6
HETATM    6  C           1     -20.509  -4.914  -5.800  0.00  0.00     0.101 C 
BRANCH   6   7
HETATM    7  C           1     -20.904  -6.273  -5.313  0.00  0.00     0.028 A 
HETATM    8  C           1     -21.422  -6.537  -4.068  0.00  0.00     0.114 A 
HETATM    9  N           1     -21.635  -7.888  -4.052  0.00  0.00    -0.360 N 
HETATM   10  C           1     -21.243  -8.379  -5.264  0.00  0.00     0.180 A 
HETATM   11  H           1     -22.027  -8.444  -3.253  0.00  0.00     0.166 HD
HETATM   12  N           1     -20.796  -7.426  -6.048  0.00  0.00    -0.355 N 
ATOM     13  HN          1     -20.445  -7.522  -7.001  1.00  0.00     0.166 HD
ENDBRANCH   6   7
ENDBRANCH   1   6
BRANCH   1  14
HETATM   14  C           1     -21.348  -4.230  -8.027  0.00  0.00     0.251 C 
HETATM   15  O           1     -22.211  -3.661  -7.402  0.00  0.00    -0.271 OA
HETATM   16  N           1     -21.365  -4.205  -9.396  0.00  0.00    -0.336 N 
HETATM   17  C           1     -20.412  -4.830 -10.309  0.00  0.00     0.127 C 
HETATM   18  C           1     -22.342  -3.549 -10.261  0.00  0.00     0.188 C 
HETATM   19  C           1     -20.228  -3.795 -11.406  0.00  0.00     0.022 C 
HETATM   20  C           1     -21.496  -2.949 -11.371  0.00  0.00     0.038 C 
BRANCH  18  21
HETATM   21  C           1     -23.326  -4.550 -10.816  0.00  0.00     0.196 C 
HETATM   22  O           1     -23.459  -4.674 -12.053  0.00  0.00    -0.646 OA
HETATM   23  O           1     -24.007  -5.253 -10.040  0.00  0.00    -0.646 OA
ENDBRANCH  18  21
ENDBRANCH   1  14
TORSDOF 5
ENDMDL
MODEL 2
REMARK VINA RESULT:      -6.5      2.808      6.352
REMARK  5 active torsions:
REMARK  status: ('A' for Active; 'I' for Inactive)
REMARK    1  A    between atoms: N_1  and  C_7 
REMARK    2  A    between atoms: C_6  and  C_7 
REMARK    3  A    between atoms: C_6  and  C_21 
REMARK    4  A    between atoms: C_7  and  C_10 
REMARK       I    between atoms: C_10  and  N_11 
REMARK    5  A    between atoms: C_13  and  C_14 
ROOT
HETATM    1  C           1     -21.643  -4.991  -7.209  0.00  0.00     0.280 C 
ENDROOT
BRANCH   1   2
HETATM    2  N           1     -21.093  -3.668  -6.764  0.00  0.00    -0.066 N 
HETATM    3  H           1     -21.693  -2.898  -7.138  0.00  0.00     0.275 HD
HETATM    4  H           1     -21.087  -3.628  -5.720  0.00  0.00     0.275 HD
HETATM    5  H           1     -20.119  -3.557  -7.125  0.00  0.00     0.275 HD
ENDBRANCH   1   2
BRANCH   1   6
HETATM    6  C           1     -21.606  -5.070  -8.730  0.00  0.00     0.101 C 
BRANCH   6   7
HETATM    7  C           1     -22.878  -4.516  -9.290  0.00  0.00     0.028 A 
HETATM    8  C           1     -23.290  -4.667 -10.593  0.00  0.00     0.114 A 
HETATM    9  N           1     -24.488  -4.011 -10.665  0.00  0.00    -0.360 N 
HETATM   10  C           1     -24.749  -3.499  -9.426  0.00  0.00     0.180 A 
HETATM   11  H           1     -25.095  -3.920 -11.516  0.00  0.00     0.166 HD
HETATM   12  N           1     -23.793  -3.788  -8.574  0.00  0.00    -0.355 N 
ATOM     13  HN          1     -23.743  -3.526  -7.589  1.00  0.00     0.166 HD
ENDBRANCH   6   7
ENDBRANCH   1   6
BRANCH   1  14
HETATM   14  C           1     -20.807  -6.104  -6.626  0.00  0.00     0.251 C 
HETATM   15  O           1     -19.804  -6.467  -7.194  0.00  0.00    -0.271 OA
HETATM   16  N           1     -21.184  -6.701  -5.454  0.00  0.00    -0.336 N 
HETATM   17  C           1     -22.355  -6.395  -4.636  0.00  0.00     0.127 C 
HETATM   18  C           1     -20.503  -7.784  -4.749  0.00  0.00     0.188 C 
HETATM   19  C           1     -21.834  -6.478  -3.211  0.00  0.00     0.022 C 
HETATM   20  C           1     -20.613  -7.388  -3.286  0.00  0.00     0.038 C 
BRANCH  18  21
HETATM   21  C           1     -21.190  -9.104  -5.001  0.00  0.00     0.196 C 
HETATM   22  O           1     -21.737  -9.714  -4.056  0.00  0.00    -0.646 OA
HETATM   23  O           1     -21.213  -9.588  -6.153  0.00  0.00    -0.646 OA
ENDBRANCH  18  21
ENDBRANCH   1  14
TORSDOF 5
ENDMDL
MODEL 3
REMARK VINA RESULT:      -6.3      1.696      2.385
REMARK  5 active torsions:
REMARK  status: ('A' for Active; 'I' for Inactive)
REMARK    1  A    between atoms: N_1  and  C_7 
REMARK    2  A    between atoms: C_6  and  C_7 
REMARK    3  A    between atoms: C_6  and  C_21 
REMARK    4  A    between atoms: C_7  and  C_10 
REMARK       I    between atoms: C_10  and  N_11 
REMARK    5  A    between atoms: C_13  and  C_14 
ROOT
HETATM    1  C           1     -21.617  -4.257  -6.951  0.00  0.00     0.280 C 
ENDROOT
BRANCH   1   2
HETATM    2  N           1     -22.926  -4.801  -6.461  0.00  0.00    -0.066 N 
HETATM    3  H           1     -23.666  -4.069  -6.555  0.00  0.00     0.275 HD
HETATM    4  H           1     -23.190  -5.636  -7.031  0.00  0.00     0.275 HD
HETATM    5  H           1     -22.836  -5.077  -5.457  0.00  0.00     0.275 HD
ENDBRANCH   1   2
BRANCH   1   6
HETATM    6  C           1     -20.500  -4.707  -6.019  0.00  0.00     0.101 C 
BRANCH   6   7
HETATM    7  C           1     -20.881  -6.000  -5.370  0.00  0.00     0.028 A 
HETATM    8  C           1     -21.317  -6.125  -4.072  0.00  0.00     0.114 A 
HETATM    9  N           1     -21.549  -7.462  -3.902  0.00  0.00    -0.360 N 
HETATM   10  C           1     -21.251  -8.082  -5.082  0.00  0.00     0.180 A 
HETATM   11  H           1     -21.894  -7.925  -3.026  0.00  0.00     0.166 HD
HETATM   12  N           1     -20.844  -7.224  -5.988  0.00  0.00    -0.355 N 
ATOM     13  HN          1     -20.561  -7.425  -6.947  1.00  0.00     0.166 HD
ENDBRANCH   6   7
ENDBRANCH   1   6
BRANCH   1  14
HETATM   14  C           1     -21.349  -4.771  -8.344  0.00  0.00     0.251 C 
HETATM   15  O           1     -20.447  -5.551  -8.537  0.00  0.00    -0.271 OA
HETATM   16  N           1     -22.130  -4.355  -9.389  0.00  0.00    -0.336 N 
HETATM   17  C           1     -23.254  -3.424  -9.343  0.00  0.00     0.127 C 
HETATM   18  C           1     -22.017  -4.744 -10.792  0.00  0.00     0.188 C 
HETATM   19  C           1     -24.273  -4.041 -10.287  0.00  0.00     0.022 C 
HETATM   20  C           1     -23.460  -4.913 -11.237  0.00  0.00     0.038 C 
BRANCH  18  21
HETATM   21  C           1     -21.331  -3.666 -11.595  0.00  0.00     0.196 C 
HETATM   22  O           1     -20.378  -3.027 -11.097  0.00  0.00    -0.646 OA
HETATM   23  O           1     -21.716  -3.410 -12.756  0.00  0.00    -0.646 OA
ENDBRANCH  18  21
ENDBRANCH   1  14
TORSDOF 5
ENDMDL
MODEL 4
REMARK VINA RESULT:      -6.2      3.210      6.817
REMARK  5 active torsions:
REMARK  status: ('A' for Active; 'I' for Inactive)
REMARK    1  A    between atoms: N_1  and  C_7 
REMARK    2  A    between atoms: C_6  and  C_7 
REMARK    3  A    between atoms: C_6  and  C_21 
REMARK    4  A    between atoms: C_7  and  C_10 
REMARK       I    between atoms: C_10  and  N_11 
REMARK    5  A    between atoms: C_13  and  C_14 
ROOT
HETATM    1  C           1     -20.953  -5.684  -5.920  0.00  0.00     0.280 C 
ENDROOT
BRANCH   1   2
HETATM    2  N           1     -20.104  -4.532  -5.469  0.00  0.00    -0.066 N 
HETATM    3  H           1     -19.436  -4.273  -6.230  0.00  0.00     0.275 HD
HETATM    4  H           1     -20.716  -3.714  -5.250  0.00  0.00     0.275 HD
HETATM    5  H           1     -19.569  -4.808  -4.615  0.00  0.00     0.275 HD
ENDBRANCH   1   2
BRANCH   1   6
HETATM    6  C           1     -20.891  -5.795  -7.438  0.00  0.00     0.101 C 
BRANCH   6   7
HETATM    7  C           1     -21.968  -4.953  -8.046  0.00  0.00     0.028 A 
HETATM    8  C           1     -23.091  -4.522  -7.382  0.00  0.00     0.114 A 
HETATM    9  N           1     -23.791  -3.793  -8.304  0.00  0.00    -0.360 N 
HETATM   10  C           1     -23.077  -3.812  -9.468  0.00  0.00     0.180 A 
HETATM   11  H           1     -24.708  -3.308  -8.145  0.00  0.00     0.166 HD
HETATM   12  N           1     -21.970  -4.507  -9.343  0.00  0.00    -0.355 N 
ATOM     13  HN          1     -21.262  -4.677 -10.057  1.00  0.00     0.166 HD
ENDBRANCH   6   7
ENDBRANCH   1   6
BRANCH   1  14
HETATM   14  C           1     -20.440  -6.960  -5.300  0.00  0.00     0.251 C 
HETATM   15  O           1     -19.614  -7.624  -5.880  0.00  0.00    -0.271 OA
HETATM   16  N           1     -20.909  -7.364  -4.079  0.00  0.00    -0.336 N 
HETATM   17  C           1     -21.899  -6.693  -3.240  0.00  0.00     0.127 C 
HETATM   18  C           1     -20.530  -8.561  -3.333  0.00  0.00     0.188 C 
HETATM   19  C           1     -21.348  -6.852  -1.832  0.00  0.00     0.022 C 
HETATM   20  C           1     -20.444  -8.078  -1.894  0.00  0.00     0.038 C 
BRANCH  18  21
HETATM   21  C           1     -21.578  -9.637  -3.475  0.00  0.00     0.196 C 
HETATM   22  O           1     -22.150 -10.091  -2.461  0.00  0.00    -0.646 OA
HETATM   23  O           1     -21.873 -10.076  -4.608  0.00  0.00    -0.646 OA
ENDBRANCH  18  21
ENDBRANCH   1  14
TORSDOF 5
ENDMDL
MODEL 5
REMARK VINA RESULT:      -6.0     18.001     19.928
REMARK  5 active torsions:
REMARK  status: ('A' for Active; 'I' for Inactive)
REMARK    1  A    between atoms: N_1  and  C_7 
REMARK    2  A    between atoms: C_6  and  C_7 
REMARK    3  A    between atoms: C_6  and  C_21 
REMARK    4  A    between atoms: C_7  and  C_10 
REMARK       I    between atoms: C_10  and  N_11 
REMARK    5  A    between atoms: C_13  and  C_14 
ROOT
HETATM    1  C           1     -10.403   6.492 -20.325  0.00  0.00     0.280 C 
ENDROOT
BRANCH   1   2
HETATM    2  N           1      -8.927   6.429 -20.586  0.00  0.00    -0.066 N 
HETATM    3  H           1      -8.482   7.326 -20.287  0.00  0.00     0.275 HD
HETATM    4  H           1      -8.512   5.638 -20.045  0.00  0.00     0.275 HD
HETATM    5  H           1      -8.760   6.281 -21.607  0.00  0.00     0.275 HD
ENDBRANCH   1   2
BRANCH   1   6
HETATM    6  C           1     -10.797   5.371 -19.371  0.00  0.00     0.101 C 
BRANCH   6   7
HETATM    7  C           1     -11.723   4.424 -20.067  0.00  0.00     0.028 A 
HETATM    8  C           1     -11.370   3.173 -20.514  0.00  0.00     0.114 A 
HETATM    9  N           1     -12.507   2.665 -21.080  0.00  0.00    -0.360 N 
HETATM   10  C           1     -13.484   3.611 -20.956  0.00  0.00     0.180 A 
HETATM   11  H           1     -12.608   1.721 -21.527  0.00  0.00     0.166 HD
HETATM   12  N           1     -13.040   4.686 -20.348  0.00  0.00    -0.355 N 
ATOM     13  HN          1     -13.562   5.534 -20.130  1.00  0.00     0.166 HD
ENDBRANCH   6   7
ENDBRANCH   1   6
BRANCH   1  14
HETATM   14  C           1     -10.747   7.824 -19.706  0.00  0.00     0.251 C 
HETATM   15  O           1     -10.163   8.201 -18.718  0.00  0.00    -0.271 OA
HETATM   16  N           1     -11.721   8.607 -20.265  0.00  0.00    -0.336 N 
HETATM   17  C           1     -12.525   8.317 -21.449  0.00  0.00     0.127 C 
HETATM   18  C           1     -12.183   9.915 -19.806  0.00  0.00     0.188 C 
HETATM   19  C           1     -12.602   9.652 -22.171  0.00  0.00     0.022 C 
HETATM   20  C           1     -12.373  10.703 -21.091  0.00  0.00     0.038 C 
BRANCH  18  21
HETATM   21  C           1     -13.487   9.790 -19.055  0.00  0.00     0.196 C 
HETATM   22  O           1     -13.667   8.833 -18.272  0.00  0.00    -0.646 OA
HETATM   23  O           1     -14.385  10.644 -19.217  0.00  0.00    -0.646 OA
ENDBRANCH  18  21
ENDBRANCH   1  14
TORSDOF 5
ENDMDL
MODEL 6
REMARK VINA RESULT:      -5.9      1.880      3.049
REMARK  5 active torsions:
REMARK  status: ('A' for Active; 'I' for Inactive)
REMARK    1  A    between atoms: N_1  and  C_7 
REMARK    2  A    between atoms: C_6  and  C_7 
REMARK    3  A    between atoms: C_6  and  C_21 
REMARK    4  A    between atoms: C_7  and  C_10 
REMARK       I    between atoms: C_10  and  N_11 
REMARK    5  A    between atoms: C_13  and  C_14 
ROOT
HETATM    1  C           1     -22.003  -6.467  -5.358  0.00  0.00     0.280 C 
ENDROOT
BRANCH   1   2
HETATM    2  N           1     -21.374  -7.628  -6.071  0.00  0.00    -0.066 N 
HETATM    3  H           1     -20.961  -8.284  -5.370  0.00  0.00     0.275 HD
HETATM    4  H           1     -22.103  -8.129  -6.628  0.00  0.00     0.275 HD
HETATM    5  H           1     -20.623  -7.281  -6.708  0.00  0.00     0.275 HD
ENDBRANCH   1   2
BRANCH   1   6
HETATM    6  C           1     -21.061  -5.970  -4.270  0.00  0.00     0.101 C 
BRANCH   6   7
HETATM    7  C           1     -21.471  -6.545  -2.951  0.00  0.00     0.028 A 
HETATM    8  C           1     -21.078  -7.775  -2.478  0.00  0.00     0.114 A 
HETATM    9  N           1     -21.679  -7.893  -1.255  0.00  0.00    -0.360 N 
HETATM   10  C           1     -22.399  -6.753  -1.041  0.00  0.00     0.180 A 
HETATM   11  H           1     -21.600  -8.711  -0.602  0.00  0.00     0.166 HD
HETATM   12  N           1     -22.293  -5.919  -2.049  0.00  0.00    -0.355 N 
ATOM     13  HN          1     -22.729  -5.002  -2.141  1.00  0.00     0.166 HD
ENDBRANCH   6   7
ENDBRANCH   1   6
BRANCH   1  14
HETATM   14  C           1     -22.266  -5.356  -6.344  0.00  0.00     0.251 C 
HETATM   15  O           1     -23.315  -4.758  -6.315  0.00  0.00    -0.271 OA
HETATM   16  N           1     -21.314  -5.024  -7.271  0.00  0.00    -0.336 N 
HETATM   17  C           1     -19.999  -5.632  -7.452  0.00  0.00     0.127 C 
HETATM   18  C           1     -21.395  -3.985  -8.294  0.00  0.00     0.188 C 
HETATM   19  C           1     -19.089  -4.449  -7.738  0.00  0.00     0.022 C 
HETATM   20  C           1     -20.007  -3.364  -8.288  0.00  0.00     0.038 C 
BRANCH  18  21
HETATM   21  C           1     -21.709  -4.584  -9.643  0.00  0.00     0.196 C 
HETATM   22  O           1     -22.822  -5.114  -9.847  0.00  0.00    -0.646 OA
HETATM   23  O           1     -20.856  -4.550 -10.556  0.00  0.00    -0.646 OA
ENDBRANCH  18  21
ENDBRANCH   1  14
TORSDOF 5
ENDMDL
MODEL 7
REMARK VINA RESULT:      -5.9      2.240      3.394
REMARK  5 active torsions:
REMARK  status: ('A' for Active; 'I' for Inactive)
REMARK    1  A    between atoms: N_1  and  C_7 
REMARK    2  A    between atoms: C_6  and  C_7 
REMARK    3  A    between atoms: C_6  and  C_21 
REMARK    4  A    between atoms: C_7  and  C_10 
REMARK       I    between atoms: C_10  and  N_11 
REMARK    5  A    between atoms: C_13  and  C_14 
ROOT
HETATM    1  C           1     -21.856  -5.599  -5.366  0.00  0.00     0.280 C 
ENDROOT
BRANCH   1   2
HETATM    2  N           1     -23.054  -6.460  -5.092  0.00  0.00    -0.066 N 
HETATM    3  H           1     -23.870  -6.105  -5.640  0.00  0.00     0.275 HD
HETATM    4  H           1     -22.847  -7.444  -5.374  0.00  0.00     0.275 HD
HETATM    5  H           1     -23.280  -6.429  -4.072  0.00  0.00     0.275 HD
ENDBRANCH   1   2
BRANCH   1   6
HETATM    6  C           1     -20.739  -5.962  -4.396  0.00  0.00     0.101 C 
BRANCH   6   7
HETATM    7  C           1     -21.331  -6.493  -3.128  0.00  0.00     0.028 A 
HETATM    8  C           1     -21.187  -7.784  -2.680  0.00  0.00     0.114 A 
HETATM    9  N           1     -21.881  -7.830  -1.502  0.00  0.00    -0.360 N 
HETATM   10  C           1     -22.407  -6.588  -1.288  0.00  0.00     0.180 A 
HETATM   11  H           1     -21.988  -8.666  -0.877  0.00  0.00     0.166 HD
HETATM   12  N           1     -22.091  -5.758  -2.255  0.00  0.00    -0.355 N 
ATOM     13  HN          1     -22.356  -4.776  -2.339  1.00  0.00     0.166 HD
ENDBRANCH   6   7
ENDBRANCH   1   6
BRANCH   1  14
HETATM   14  C           1     -21.388  -5.828  -6.782  0.00  0.00     0.251 C 
HETATM   15  O           1     -20.625  -6.733  -7.027  0.00  0.00    -0.271 OA
HETATM   16  N           1     -21.827  -5.011  -7.789  0.00  0.00    -0.336 N 
HETATM   17  C           1     -22.742  -3.879  -7.679  0.00  0.00     0.127 C 
HETATM   18  C           1     -21.482  -5.083  -9.206  0.00  0.00     0.188 C 
HETATM   19  C           1     -23.624  -4.005  -8.910  0.00  0.00     0.022 C 
HETATM   20  C           1     -22.797  -4.801  -9.913  0.00  0.00     0.038 C 
BRANCH  18  21
HETATM   21  C           1     -20.448  -4.042  -9.560  0.00  0.00     0.196 C 
HETATM   22  O           1     -19.560  -3.738  -8.735  0.00  0.00    -0.646 OA
HETATM   23  O           1     -20.481  -3.483 -10.678  0.00  0.00    -0.646 OA
ENDBRANCH  18  21
ENDBRANCH   1  14
TORSDOF 5
ENDMDL
MODEL 8
REMARK VINA RESULT:      -5.6      5.190      8.501
REMARK  5 active torsions:
REMARK  status: ('A' for Active; 'I' for Inactive)
REMARK    1  A    between atoms: N_1  and  C_7 
REMARK    2  A    between atoms: C_6  and  C_7 
REMARK    3  A    between atoms: C_6  and  C_21 
REMARK    4  A    between atoms: C_7  and  C_10 
REMARK       I    between atoms: C_10  and  N_11 
REMARK    5  A    between atoms: C_13  and  C_14 
ROOT
HETATM    1  C           1     -19.992  -8.703  -3.661  0.00  0.00     0.280 C 
ENDROOT
BRANCH   1   2
HETATM    2  N           1     -18.578  -8.993  -4.069  0.00  0.00    -0.066 N 
HETATM    3  H           1     -17.937  -8.792  -3.268  0.00  0.00     0.275 HD
HETATM    4  H           1     -18.494  -9.999  -4.337  0.00  0.00     0.275 HD
HETATM    5  H           1     -18.319  -8.391  -4.882  0.00  0.00     0.275 HD
ENDBRANCH   1   2
BRANCH   1   6
HETATM    6  C           1     -20.907  -8.839  -4.872  0.00  0.00     0.101 C 
BRANCH   6   7
HETATM    7  C           1     -21.261  -7.479  -5.386  0.00  0.00     0.028 A 
HETATM    8  C           1     -22.284  -6.701  -4.899  0.00  0.00     0.114 A 
HETATM    9  N           1     -22.248  -5.558  -5.649  0.00  0.00    -0.360 N 
HETATM   10  C           1     -21.224  -5.687  -6.543  0.00  0.00     0.180 A 
HETATM   11  H           1     -22.890  -4.733  -5.553  0.00  0.00     0.166 HD
HETATM   12  N           1     -20.609  -6.839  -6.409  0.00  0.00    -0.355 N 
ATOM     13  HN          1     -19.815  -7.183  -6.949  1.00  0.00     0.166 HD
ENDBRANCH   6   7
ENDBRANCH   1   6
BRANCH   1  14
HETATM   14  C           1     -20.419  -9.683  -2.596  0.00  0.00     0.251 C 
HETATM   15  O           1     -19.971 -10.805  -2.593  0.00  0.00    -0.271 OA
HETATM   16  N           1     -21.311  -9.299  -1.631  0.00  0.00    -0.336 N 
HETATM   17  C           1     -21.950  -7.995  -1.478  0.00  0.00     0.127 C 
HETATM   18  C           1     -21.833 -10.107  -0.532  0.00  0.00     0.188 C 
HETATM   19  C           1     -21.933  -7.757   0.022  0.00  0.00     0.022 C 
HETATM   20  C           1     -21.852  -9.146   0.645  0.00  0.00     0.038 C 
BRANCH  18  21
HETATM   21  C           1     -23.224 -10.603  -0.842  0.00  0.00     0.196 C 
HETATM   22  O           1     -24.147 -10.433  -0.016  0.00  0.00    -0.646 OA
HETATM   23  O           1     -23.454 -11.183  -1.925  0.00  0.00    -0.646 OA
ENDBRANCH  18  21
ENDBRANCH   1  14
TORSDOF 5
ENDMDL
MODEL 9
REMARK VINA RESULT:      -5.6      6.620      9.328
REMARK  5 active torsions:
REMARK  status: ('A' for Active; 'I' for Inactive)
REMARK    1  A    between atoms: N_1  and  C_7 
REMARK    2  A    between atoms: C_6  and  C_7 
REMARK    3  A    between atoms: C_6  and  C_21 
REMARK    4  A    between atoms: C_7  and  C_10 
REMARK       I    between atoms: C_10  and  N_11 
REMARK    5  A    between atoms: C_13  and  C_14 
ROOT
HETATM    1  C           1     -21.916  -7.418  -2.086  0.00  0.00     0.280 C 
ENDROOT
BRANCH   1   2
HETATM    2  N           1     -22.356  -5.992  -1.921  0.00  0.00    -0.066 N 
HETATM    3  H           1     -21.603  -5.354  -2.265  0.00  0.00     0.275 HD
HETATM    4  H           1     -23.227  -5.832  -2.476  0.00  0.00     0.275 HD
HETATM    5  H           1     -22.543  -5.800  -0.912  0.00  0.00     0.275 HD
ENDBRANCH   1   2
BRANCH   1   6
HETATM    6  C           1     -20.434  -7.453  -2.435  0.00  0.00     0.101 C 
BRANCH   6   7
HETATM    7  C           1     -20.236  -8.242  -3.691  0.00  0.00     0.028 A 
HETATM    8  C           1     -21.140  -8.306  -4.725  0.00  0.00     0.114 A 
HETATM    9  N           1     -20.560  -9.126  -5.653  0.00  0.00    -0.360 N 
HETATM   10  C           1     -19.351  -9.519  -5.154  0.00  0.00     0.180 A 
HETATM   11  H           1     -20.969  -9.402  -6.579  0.00  0.00     0.166 HD
HETATM   12  N           1     -19.127  -9.000  -3.969  0.00  0.00    -0.355 N 
ATOM     13  HN          1     -18.305  -9.133  -3.380  1.00  0.00     0.166 HD
ENDBRANCH   6   7
ENDBRANCH   1   6
BRANCH   1  14
HETATM   14  C           1     -22.148  -8.166  -0.796  0.00  0.00     0.251 C 
HETATM   15  O           1     -22.098  -7.581   0.260  0.00  0.00    -0.271 OA
HETATM   16  N           1     -22.417  -9.508  -0.823  0.00  0.00    -0.336 N 
HETATM   17  C           1     -22.516 -10.372  -1.996  0.00  0.00     0.127 C 
HETATM   18  C           1     -22.664 -10.388   0.317  0.00  0.00     0.188 C 
HETATM   19  C           1     -23.694 -11.278  -1.680  0.00  0.00     0.022 C 
HETATM   20  C           1     -23.795 -11.285  -0.159  0.00  0.00     0.038 C 
BRANCH  18  21
HETATM   21  C           1     -21.436 -11.201   0.645  0.00  0.00     0.196 C 
HETATM   22  O           1     -20.326 -10.637   0.761  0.00  0.00    -0.646 OA
HETATM   23  O           1     -21.528 -12.437   0.801  0.00  0.00    -0.646 OA
ENDBRANCH  18  21
ENDBRANCH   1  14
TORSDOF 5
ENDMDL
