MODEL 1
REMARK VINA RESULT:      -7.5      0.000      0.000
REMARK  5 active torsions:
REMARK  status: ('A' for Active; 'I' for Inactive)
REMARK    1  A    between atoms: C_4  and  C_13 
REMARK    2  A    between atoms: C_4  and  C_7 
REMARK    3  A    between atoms: C_4  and  N_20 
REMARK    4  A    between atoms: C_7  and  C_16 
REMARK       I    between atoms: C_18  and  N_20 
REMARK    5  A    between atoms: C_18  and  C_23 
ROOT
HETATM    1  C           1     -19.944  -8.816  -4.737  0.00  0.00     0.189 C 
ENDROOT
BRANCH   1   2
HETATM    2  C           1     -20.100 -10.115  -5.489  0.00  0.00     0.197 C 
HETATM    3  O           1     -21.183 -10.385  -6.051  0.00  0.00    -0.646 OA
HETATM    4  O           1     -19.147 -10.922  -5.547  0.00  0.00    -0.646 OA
ENDBRANCH   1   2
BRANCH   1   5
HETATM    5  C           1     -19.419  -9.099  -3.335  0.00  0.00     0.073 C 
BRANCH   5   6
HETATM    6  C           1     -20.517  -9.678  -2.498  0.00  0.00    -0.047 A 
HETATM    7  C           1     -21.323  -8.969  -1.566  0.00  0.00    -0.006 A 
HETATM    8  C           1     -22.215  -9.889  -1.010  0.00  0.00     0.038 A 
HETATM    9  C           1     -21.381  -7.629  -1.139  0.00  0.00     0.014 A 
HETATM   10  N           1     -21.950 -11.109  -1.591  0.00  0.00    -0.385 N 
HETATM   11  C           1     -23.164  -9.533  -0.046  0.00  0.00     0.030 A 
HETATM   12  H           1     -22.461 -12.001  -1.374  0.00  0.00     0.160 HD
HETATM   13  C           1     -20.925 -10.993  -2.492  0.00  0.00     0.093 A 
HETATM   14  C           1     -23.202  -8.196   0.361  0.00  0.00     0.002 A 
HETATM   15  C           1     -22.324  -7.256  -0.176  0.00  0.00     0.001 A 
ENDBRANCH   5   6
ENDBRANCH   1   5
BRANCH   1  16
HETATM   16  N           1     -21.229  -8.152  -4.647  0.00  0.00    -0.344 N 
HETATM   17  H           1     -22.017  -8.629  -4.228  0.00  0.00     0.163 HD
HETATM   18  C           1     -21.377  -6.879  -5.127  0.00  0.00     0.252 C 
HETATM   19  O           1     -22.449  -6.326  -5.052  0.00  0.00    -0.271 OA
BRANCH  18  20
HETATM   20  C           1     -20.203  -6.166  -5.751  0.00  0.00     0.370 C 
HETATM   21  C           1     -20.328  -4.663  -5.579  0.00  0.00     0.048 C 
HETATM   22  C           1     -20.985  -4.169  -6.863  0.00  0.00     0.033 C 
HETATM   23  C           1     -21.194  -5.416  -7.706  0.00  0.00     0.271 C 
HETATM   24  N           1     -20.193  -6.350  -7.200  0.00  0.00     0.097 N 
HETATM   25  H           1     -19.280  -6.114  -7.588  0.00  0.00     0.317 HD
ENDBRANCH  18  20
ENDBRANCH   1  16
TORSDOF 5
ENDMDL
MODEL 2
REMARK VINA RESULT:      -7.4      2.362      6.808
REMARK  5 active torsions:
REMARK  status: ('A' for Active; 'I' for Inactive)
REMARK    1  A    between atoms: C_4  and  C_13 
REMARK    2  A    between atoms: C_4  and  C_7 
REMARK    3  A    between atoms: C_4  and  N_20 
REMARK    4  A    between atoms: C_7  and  C_16 
REMARK       I    between atoms: C_18  and  N_20 
REMARK    5  A    between atoms: C_18  and  C_23 
ROOT
HETATM    1  C           1     -21.253  -6.978  -4.451  0.00  0.00     0.189 C 
ENDROOT
BRANCH   1   2
HETATM    2  C           1     -21.534  -6.734  -2.988  0.00  0.00     0.197 C 
HETATM    3  O           1     -22.465  -5.973  -2.650  0.00  0.00    -0.646 OA
HETATM    4  O           1     -20.835  -7.293  -2.116  0.00  0.00    -0.646 OA
ENDBRANCH   1   2
BRANCH   1   5
HETATM    5  C           1     -22.069  -6.007  -5.294  0.00  0.00     0.073 C 
BRANCH   5   6
HETATM    6  C           1     -21.283  -5.616  -6.507  0.00  0.00    -0.047 A 
HETATM    7  C           1     -21.784  -4.922  -7.642  0.00  0.00    -0.006 A 
HETATM    8  C           1     -20.720  -4.765  -8.532  0.00  0.00     0.038 A 
HETATM    9  C           1     -23.046  -4.410  -8.001  0.00  0.00     0.014 A 
HETATM   10  N           1     -19.617  -5.348  -7.947  0.00  0.00    -0.385 N 
HETATM   11  C           1     -20.855  -4.120  -9.766  0.00  0.00     0.030 A 
HETATM   12  H           1     -18.660  -5.388  -8.379  0.00  0.00     0.160 HD
HETATM   13  C           1     -19.947  -5.865  -6.723  0.00  0.00     0.093 A 
HETATM   14  C           1     -22.117  -3.620 -10.098  0.00  0.00     0.002 A 
HETATM   15  C           1     -23.198  -3.761  -9.231  0.00  0.00     0.001 A 
ENDBRANCH   5   6
ENDBRANCH   1   5
BRANCH   1  16
HETATM   16  N           1     -21.619  -8.339  -4.792  0.00  0.00    -0.344 N 
HETATM   17  H           1     -22.593  -8.592  -4.892  0.00  0.00     0.163 HD
HETATM   18  C           1     -20.645  -9.282  -4.982  0.00  0.00     0.252 C 
HETATM   19  O           1     -20.950 -10.416  -5.266  0.00  0.00    -0.271 OA
BRANCH  18  20
HETATM   20  C           1     -19.191  -8.906  -4.834  0.00  0.00     0.370 C 
HETATM   21  C           1     -18.305  -9.847  -5.632  0.00  0.00     0.048 C 
HETATM   22  C           1     -17.866 -10.917  -4.639  0.00  0.00     0.033 C 
HETATM   23  C           1     -18.518 -10.528  -3.323  0.00  0.00     0.271 C 
HETATM   24  N           1     -18.743  -9.092  -3.457  0.00  0.00     0.097 N 
HETATM   25  H           1     -17.868  -8.594  -3.291  0.00  0.00     0.317 HD
ENDBRANCH  18  20
ENDBRANCH   1  16
TORSDOF 5
ENDMDL
MODEL 3
REMARK VINA RESULT:      -7.2      1.877      6.168
REMARK  5 active torsions:
REMARK  status: ('A' for Active; 'I' for Inactive)
REMARK    1  A    between atoms: C_4  and  C_13 
REMARK    2  A    between atoms: C_4  and  C_7 
REMARK    3  A    between atoms: C_4  and  N_20 
REMARK    4  A    between atoms: C_7  and  C_16 
REMARK       I    between atoms: C_18  and  N_20 
REMARK    5  A    between atoms: C_18  and  C_23 
ROOT
HETATM    1  C           1     -20.604  -9.399  -4.149  0.00  0.00     0.189 C 
ENDROOT
BRANCH   1   2
HETATM    2  C           1     -20.520 -10.558  -5.113  0.00  0.00     0.197 C 
HETATM    3  O           1     -21.227 -11.572  -4.932  0.00  0.00    -0.646 OA
HETATM    4  O           1     -19.744 -10.503  -6.090  0.00  0.00    -0.646 OA
ENDBRANCH   1   2
BRANCH   1   5
HETATM    5  C           1     -19.873  -8.197  -4.735  0.00  0.00     0.073 C 
BRANCH   5   6
HETATM    6  C           1     -20.869  -7.164  -5.160  0.00  0.00    -0.047 A 
HETATM    7  C           1     -20.670  -6.166  -6.154  0.00  0.00    -0.006 A 
HETATM    8  C           1     -21.847  -5.421  -6.229  0.00  0.00     0.038 A 
HETATM    9  C           1     -19.597  -5.825  -6.998  0.00  0.00     0.014 A 
HETATM   10  N           1     -22.723  -5.955  -5.310  0.00  0.00    -0.385 N 
HETATM   11  C           1     -22.005  -4.346  -7.112  0.00  0.00     0.030 A 
HETATM   12  H           1     -23.698  -5.603  -5.135  0.00  0.00     0.160 HD
HETATM   13  C           1     -22.141  -7.009  -4.658  0.00  0.00     0.093 A 
HETATM   14  C           1     -20.926  -4.027  -7.941  0.00  0.00     0.002 A 
HETATM   15  C           1     -19.739  -4.753  -7.887  0.00  0.00     0.001 A 
ENDBRANCH   5   6
ENDBRANCH   1   5
BRANCH   1  16
HETATM   16  N           1     -19.988  -9.772  -2.891  0.00  0.00    -0.344 N 
HETATM   17  H           1     -18.986  -9.893  -2.834  0.00  0.00     0.163 HD
HETATM   18  C           1     -20.765  -9.959  -1.779  0.00  0.00     0.252 C 
HETATM   19  O           1     -20.251 -10.270  -0.730  0.00  0.00    -0.271 OA
BRANCH  18  20
HETATM   20  C           1     -22.260  -9.778  -1.863  0.00  0.00     0.370 C 
HETATM   21  C           1     -22.876  -9.710  -0.476  0.00  0.00     0.048 C 
HETATM   22  C           1     -23.321 -11.135  -0.168  0.00  0.00     0.033 C 
HETATM   23  C           1     -22.943 -11.943  -1.398  0.00  0.00     0.271 C 
HETATM   24  N           1     -22.892 -10.949  -2.466  0.00  0.00     0.097 N 
HETATM   25  H           1     -23.840 -10.730  -2.772  0.00  0.00     0.317 HD
ENDBRANCH  18  20
ENDBRANCH   1  16
TORSDOF 5
ENDMDL
MODEL 4
REMARK VINA RESULT:      -6.8      2.246      2.911
REMARK  5 active torsions:
REMARK  status: ('A' for Active; 'I' for Inactive)
REMARK    1  A    between atoms: C_4  and  C_13 
REMARK    2  A    between atoms: C_4  and  C_7 
REMARK    3  A    between atoms: C_4  and  N_20 
REMARK    4  A    between atoms: C_7  and  C_16 
REMARK       I    between atoms: C_18  and  N_20 
REMARK    5  A    between atoms: C_18  and  C_23 
ROOT
HETATM    1  C           1     -21.064  -6.972  -4.492  0.00  0.00     0.189 C 
ENDROOT
BRANCH   1   2
HETATM    2  C           1     -22.326  -6.393  -3.902  0.00  0.00     0.197 C 
HETATM    3  O           1     -23.359  -6.305  -4.600  0.00  0.00    -0.646 OA
HETATM    4  O           1     -22.339  -6.000  -2.716  0.00  0.00    -0.646 OA
ENDBRANCH   1   2
BRANCH   1   5
HETATM    5  C           1     -20.451  -7.962  -3.510  0.00  0.00     0.073 C 
BRANCH   5   6
HETATM    6  C           1     -21.330  -9.170  -3.404  0.00  0.00    -0.047 A 
HETATM    7  C           1     -22.067  -9.572  -2.257  0.00  0.00    -0.006 A 
HETATM    8  C           1     -22.744 -10.746  -2.594  0.00  0.00     0.038 A 
HETATM    9  C           1     -22.225  -9.050  -0.960  0.00  0.00     0.014 A 
HETATM   10  N           1     -22.421 -11.036  -3.901  0.00  0.00    -0.385 N 
HETATM   11  C           1     -23.573 -11.424  -1.694  0.00  0.00     0.030 A 
HETATM   12  H           1     -22.780 -11.865  -4.438  0.00  0.00     0.160 HD
HETATM   13  C           1     -21.566 -10.090  -4.401  0.00  0.00     0.093 A 
HETATM   14  C           1     -23.714 -10.885  -0.412  0.00  0.00     0.002 A 
HETATM   15  C           1     -23.051  -9.716  -0.048  0.00  0.00     0.001 A 
ENDBRANCH   5   6
ENDBRANCH   1   5
BRANCH   1  16
HETATM   16  N           1     -20.118  -5.904  -4.752  0.00  0.00    -0.344 N 
HETATM   17  H           1     -19.492  -5.593  -4.022  0.00  0.00     0.163 HD
HETATM   18  C           1     -20.073  -5.317  -5.989  0.00  0.00     0.252 C 
HETATM   19  O           1     -19.286  -4.427  -6.205  0.00  0.00    -0.271 OA
BRANCH  18  20
HETATM   20  C           1     -21.008  -5.780  -7.079  0.00  0.00     0.370 C 
HETATM   21  C           1     -20.412  -5.515  -8.451  0.00  0.00     0.048 C 
HETATM   22  C           1     -20.986  -4.170  -8.880  0.00  0.00     0.033 C 
HETATM   23  C           1     -21.886  -3.739  -7.735  0.00  0.00     0.271 C 
HETATM   24  N           1     -22.238  -4.994  -7.077  0.00  0.00     0.097 N 
HETATM   25  H           1     -22.968  -5.465  -7.612  0.00  0.00     0.317 HD
ENDBRANCH  18  20
ENDBRANCH   1  16
TORSDOF 5
ENDMDL
MODEL 5
REMARK VINA RESULT:      -6.7      2.399      4.644
REMARK  5 active torsions:
REMARK  status: ('A' for Active; 'I' for Inactive)
REMARK    1  A    between atoms: C_4  and  C_13 
REMARK    2  A    between atoms: C_4  and  C_7 
REMARK    3  A    between atoms: C_4  and  N_20 
REMARK    4  A    between atoms: C_7  and  C_16 
REMARK       I    between atoms: C_18  and  N_20 
REMARK    5  A    between atoms: C_18  and  C_23 
ROOT
HETATM    1  C           1     -20.131  -9.805  -4.868  0.00  0.00     0.189 C 
ENDROOT
BRANCH   1   2
HETATM    2  C           1     -20.759 -11.156  -5.107  0.00  0.00     0.197 C 
HETATM    3  O           1     -21.478 -11.341  -6.113  0.00  0.00    -0.646 OA
HETATM    4  O           1     -20.562 -12.089  -4.300  0.00  0.00    -0.646 OA
ENDBRANCH   1   2
BRANCH   1   5
HETATM    5  C           1     -21.088  -8.711  -5.322  0.00  0.00     0.073 C 
BRANCH   5   6
HETATM    6  C           1     -21.354  -7.774  -4.185  0.00  0.00    -0.047 A 
HETATM    7  C           1     -21.723  -8.144  -2.863  0.00  0.00    -0.006 A 
HETATM    8  C           1     -21.872  -6.965  -2.132  0.00  0.00     0.038 A 
HETATM    9  C           1     -21.947  -9.374  -2.216  0.00  0.00     0.014 A 
HETATM   10  N           1     -21.600  -5.922  -2.989  0.00  0.00    -0.385 N 
HETATM   11  C           1     -22.233  -6.954  -0.780  0.00  0.00     0.030 A 
HETATM   12  H           1     -21.629  -4.905  -2.726  0.00  0.00     0.160 HD
HETATM   13  C           1     -21.286  -6.400  -4.234  0.00  0.00     0.093 A 
HETATM   14  C           1     -22.450  -8.188  -0.159  0.00  0.00     0.002 A 
HETATM   15  C           1     -22.309  -9.381  -0.864  0.00  0.00     0.001 A 
ENDBRANCH   5   6
ENDBRANCH   1   5
BRANCH   1  16
HETATM   16  N           1     -18.895  -9.707  -5.619  0.00  0.00    -0.344 N 
HETATM   17  H           1     -18.920  -9.627  -6.627  0.00  0.00     0.163 HD
HETATM   18  C           1     -17.693  -9.723  -4.964  0.00  0.00     0.252 C 
HETATM   19  O           1     -16.663  -9.641  -5.590  0.00  0.00    -0.271 OA
BRANCH  18  20
HETATM   20  C           1     -17.654  -9.841  -3.460  0.00  0.00     0.370 C 
HETATM   21  C           1     -16.267  -9.526  -2.928  0.00  0.00     0.048 C 
HETATM   22  C           1     -15.574 -10.878  -2.799  0.00  0.00     0.033 C 
HETATM   23  C           1     -16.604 -11.896  -3.257  0.00  0.00     0.271 C 
HETATM   24  N           1     -17.881 -11.222  -3.042  0.00  0.00     0.097 N 
HETATM   25  H           1     -18.126 -11.264  -2.053  0.00  0.00     0.317 HD
ENDBRANCH  18  20
ENDBRANCH   1  16
TORSDOF 5
ENDMDL
MODEL 6
REMARK VINA RESULT:      -6.7      3.095      6.117
REMARK  5 active torsions:
REMARK  status: ('A' for Active; 'I' for Inactive)
REMARK    1  A    between atoms: C_4  and  C_13 
REMARK    2  A    between atoms: C_4  and  C_7 
REMARK    3  A    between atoms: C_4  and  N_20 
REMARK    4  A    between atoms: C_7  and  C_16 
REMARK       I    between atoms: C_18  and  N_20 
REMARK    5  A    between atoms: C_18  and  C_23 
ROOT
HETATM    1  C           1     -20.021  -8.431  -4.204  0.00  0.00     0.189 C 
ENDROOT
BRANCH   1   2
HETATM    2  C           1     -20.560  -7.238  -4.955  0.00  0.00     0.197 C 
HETATM    3  O           1     -20.386  -7.147  -6.189  0.00  0.00    -0.646 OA
HETATM    4  O           1     -21.179  -6.342  -4.343  0.00  0.00    -0.646 OA
ENDBRANCH   1   2
BRANCH   1   5
HETATM    5  C           1     -19.067  -9.208  -5.100  0.00  0.00     0.073 C 
BRANCH   5   6
HETATM    6  C           1     -17.908  -9.701  -4.290  0.00  0.00    -0.047 A 
HETATM    7  C           1     -16.815 -10.471  -4.774  0.00  0.00    -0.006 A 
HETATM    8  C           1     -15.970 -10.711  -3.689  0.00  0.00     0.038 A 
HETATM    9  C           1     -16.461 -10.989  -6.034  0.00  0.00     0.014 A 
HETATM   10  N           1     -16.540 -10.104  -2.592  0.00  0.00    -0.385 N 
HETATM   11  C           1     -14.784 -11.445  -3.803  0.00  0.00     0.030 A 
HETATM   12  H           1     -16.132 -10.111  -1.623  0.00  0.00     0.160 HD
HETATM   13  C           1     -17.712  -9.491  -2.944  0.00  0.00     0.093 A 
HETATM   14  C           1     -14.455 -11.949  -5.065  0.00  0.00     0.002 A 
HETATM   15  C           1     -15.279 -11.726  -6.165  0.00  0.00     0.001 A 
ENDBRANCH   5   6
ENDBRANCH   1   5
BRANCH   1  16
HETATM   16  N           1     -21.120  -9.290  -3.809  0.00  0.00    -0.344 N 
HETATM   17  H           1     -21.609  -9.839  -4.504  0.00  0.00     0.163 HD
HETATM   18  C           1     -21.497  -9.358  -2.494  0.00  0.00     0.252 C 
HETATM   19  O           1     -22.413 -10.074  -2.166  0.00  0.00    -0.271 OA
BRANCH  18  20
HETATM   20  C           1     -20.769  -8.540  -1.457  0.00  0.00     0.370 C 
HETATM   21  C           1     -21.154  -8.978  -0.054  0.00  0.00     0.048 C 
HETATM   22  C           1     -22.279  -8.037   0.361  0.00  0.00     0.033 C 
HETATM   23  C           1     -22.473  -7.105  -0.823  0.00  0.00     0.271 C 
HETATM   24  N           1     -21.186  -7.142  -1.511  0.00  0.00     0.097 N 
HETATM   25  H           1     -20.520  -6.547  -1.018  0.00  0.00     0.317 HD
ENDBRANCH  18  20
ENDBRANCH   1  16
TORSDOF 5
ENDMDL
MODEL 7
REMARK VINA RESULT:      -6.7      3.155      5.414
REMARK  5 active torsions:
REMARK  status: ('A' for Active; 'I' for Inactive)
REMARK    1  A    between atoms: C_4  and  C_13 
REMARK    2  A    between atoms: C_4  and  C_7 
REMARK    3  A    between atoms: C_4  and  N_20 
REMARK    4  A    between atoms: C_7  and  C_16 
REMARK       I    between atoms: C_18  and  N_20 
REMARK    5  A    between atoms: C_18  and  C_23 
ROOT
HETATM    1  C           1     -19.808  -9.345  -3.551  0.00  0.00     0.189 C 
ENDROOT
BRANCH   1   2
HETATM    2  C           1     -20.024  -8.254  -4.570  0.00  0.00     0.197 C 
HETATM    3  O           1     -20.741  -7.270  -4.290  0.00  0.00    -0.646 OA
HETATM    4  O           1     -19.487  -8.335  -5.696  0.00  0.00    -0.646 OA
ENDBRANCH   1   2
BRANCH   1   5
HETATM    5  C           1     -18.871 -10.399  -4.125  0.00  0.00     0.073 C 
BRANCH   5   6
HETATM    6  C           1     -17.684 -10.557  -3.227  0.00  0.00    -0.047 A 
HETATM    7  C           1     -17.659 -11.243  -1.982  0.00  0.00    -0.006 A 
HETATM    8  C           1     -16.359 -11.145  -1.483  0.00  0.00     0.038 A 
HETATM    9  C           1     -18.622 -11.940  -1.228  0.00  0.00     0.014 A 
HETATM   10  N           1     -15.629 -10.423  -2.401  0.00  0.00    -0.385 N 
HETATM   11  C           1     -15.973 -11.712  -0.264  0.00  0.00     0.030 A 
HETATM   12  H           1     -14.611 -10.184  -2.303  0.00  0.00     0.160 HD
HETATM   13  C           1     -16.420 -10.062  -3.459  0.00  0.00     0.093 A 
HETATM   14  C           1     -16.947 -12.399   0.466  0.00  0.00     0.002 A 
HETATM   15  C           1     -18.252 -12.513  -0.006  0.00  0.00     0.001 A 
ENDBRANCH   5   6
ENDBRANCH   1   5
BRANCH   1  16
HETATM   16  N           1     -21.080  -9.958  -3.222  0.00  0.00    -0.344 N 
HETATM   17  H           1     -21.568 -10.513  -3.912  0.00  0.00     0.163 HD
HETATM   18  C           1     -21.621  -9.784  -1.976  0.00  0.00     0.252 C 
HETATM   19  O           1     -22.682 -10.295  -1.703  0.00  0.00    -0.271 OA
BRANCH  18  20
HETATM   20  C           1     -20.894  -8.956  -0.946  0.00  0.00     0.370 C 
HETATM   21  C           1     -21.491  -9.164   0.435  0.00  0.00     0.048 C 
HETATM   22  C           1     -22.499  -8.035   0.608  0.00  0.00     0.033 C 
HETATM   23  C           1     -22.421  -7.234  -0.681  0.00  0.00     0.271 C 
HETATM   24  N           1     -21.087  -7.530  -1.196  0.00  0.00     0.097 N 
HETATM   25  H           1     -20.396  -6.978  -0.688  0.00  0.00     0.317 HD
ENDBRANCH  18  20
ENDBRANCH   1  16
TORSDOF 5
ENDMDL
MODEL 8
REMARK VINA RESULT:      -6.6      3.089      4.949
REMARK  5 active torsions:
REMARK  status: ('A' for Active; 'I' for Inactive)
REMARK    1  A    between atoms: C_4  and  C_13 
REMARK    2  A    between atoms: C_4  and  C_7 
REMARK    3  A    between atoms: C_4  and  N_20 
REMARK    4  A    between atoms: C_7  and  C_16 
REMARK       I    between atoms: C_18  and  N_20 
REMARK    5  A    between atoms: C_18  and  C_23 
ROOT
HETATM    1  C           1     -17.772 -10.343  -4.224  0.00  0.00     0.189 C 
ENDROOT
BRANCH   1   2
HETATM    2  C           1     -16.406  -9.769  -3.933  0.00  0.00     0.197 C 
HETATM    3  O           1     -15.565  -9.664  -4.851  0.00  0.00    -0.646 OA
HETATM    4  O           1     -16.117  -9.401  -2.775  0.00  0.00    -0.646 OA
ENDBRANCH   1   2
BRANCH   1   5
HETATM    5  C           1     -18.693 -10.089  -3.038  0.00  0.00     0.073 C 
BRANCH   5   6
HETATM    6  C           1     -19.603  -8.941  -3.348  0.00  0.00    -0.047 A 
HETATM    7  C           1     -20.479  -8.296  -2.433  0.00  0.00    -0.006 A 
HETATM    8  C           1     -21.137  -7.286  -3.136  0.00  0.00     0.038 A 
HETATM    9  C           1     -20.777  -8.474  -1.068  0.00  0.00     0.014 A 
HETATM   10  N           1     -20.671  -7.327  -4.431  0.00  0.00    -0.385 N 
HETATM   11  C           1     -22.082  -6.442  -2.541  0.00  0.00     0.030 A 
HETATM   12  H           1     -20.982  -6.684  -5.202  0.00  0.00     0.160 HD
HETATM   13  C           1     -19.743  -8.324  -4.570  0.00  0.00     0.093 A 
HETATM   14  C           1     -22.360  -6.639  -1.185  0.00  0.00     0.002 A 
HETATM   15  C           1     -21.718  -7.639  -0.457  0.00  0.00     0.001 A 
ENDBRANCH   5   6
ENDBRANCH   1   5
BRANCH   1  16
HETATM   16  N           1     -17.658 -11.770  -4.451  0.00  0.00    -0.344 N 
HETATM   17  H           1     -17.121 -12.342  -3.813  0.00  0.00     0.163 HD
HETATM   18  C           1     -18.279 -12.343  -5.528  0.00  0.00     0.252 C 
HETATM   19  O           1     -18.184 -13.533  -5.716  0.00  0.00    -0.271 OA
BRANCH  18  20
HETATM   20  C           1     -19.081 -11.490  -6.479  0.00  0.00     0.370 C 
HETATM   21  C           1     -20.570 -11.647  -6.222  0.00  0.00     0.048 C 
HETATM   22  C           1     -21.031 -12.723  -7.199  0.00  0.00     0.033 C 
HETATM   23  C           1     -19.783 -13.120  -7.969  0.00  0.00     0.271 C 
HETATM   24  N           1     -18.916 -11.950  -7.855  0.00  0.00     0.097 N 
HETATM   25  H           1     -19.222 -11.234  -8.514  0.00  0.00     0.317 HD
ENDBRANCH  18  20
ENDBRANCH   1  16
TORSDOF 5
ENDMDL
MODEL 9
REMARK VINA RESULT:      -6.5      2.580      4.996
REMARK  5 active torsions:
REMARK  status: ('A' for Active; 'I' for Inactive)
REMARK    1  A    between atoms: C_4  and  C_13 
REMARK    2  A    between atoms: C_4  and  C_7 
REMARK    3  A    between atoms: C_4  and  N_20 
REMARK    4  A    between atoms: C_7  and  C_16 
REMARK       I    between atoms: C_18  and  N_20 
REMARK    5  A    between atoms: C_18  and  C_23 
ROOT
HETATM    1  C           1     -20.412  -9.986  -4.145  0.00  0.00     0.189 C 
ENDROOT
BRANCH   1   2
HETATM    2  C           1     -20.069 -10.284  -5.584  0.00  0.00     0.197 C 
HETATM    3  O           1     -20.913 -10.826  -6.328  0.00  0.00    -0.646 OA
HETATM    4  O           1     -18.939  -9.988  -6.030  0.00  0.00    -0.646 OA
ENDBRANCH   1   2
BRANCH   1   5
HETATM    5  C           1     -19.781  -8.663  -3.734  0.00  0.00     0.073 C 
BRANCH   5   6
HETATM    6  C           1     -20.767  -7.862  -2.941  0.00  0.00    -0.047 A 
HETATM    7  C           1     -21.137  -8.092  -1.588  0.00  0.00    -0.006 A 
HETATM    8  C           1     -22.078  -7.119  -1.248  0.00  0.00     0.038 A 
HETATM    9  C           1     -20.762  -9.038  -0.615  0.00  0.00     0.014 A 
HETATM   10  N           1     -22.265  -6.332  -2.363  0.00  0.00    -0.385 N 
HETATM   11  C           1     -22.664  -7.044   0.021  0.00  0.00     0.030 A 
HETATM   12  H           1     -22.918  -5.510  -2.415  0.00  0.00     0.160 HD
HETATM   13  C           1     -21.476  -6.773  -3.392  0.00  0.00     0.093 A 
HETATM   14  C           1     -22.275  -7.995   0.969  0.00  0.00     0.002 A 
HETATM   15  C           1     -21.338  -8.978   0.658  0.00  0.00     0.001 A 
ENDBRANCH   5   6
ENDBRANCH   1   5
BRANCH   1  16
HETATM   16  N           1     -19.904 -11.047  -3.298  0.00  0.00    -0.344 N 
HETATM   17  H           1     -18.933 -11.048  -3.016  0.00  0.00     0.163 HD
HETATM   18  C           1     -20.740 -12.047  -2.877  0.00  0.00     0.252 C 
HETATM   19  O           1     -20.315 -12.930  -2.171  0.00  0.00    -0.271 OA
BRANCH  18  20
HETATM   20  C           1     -22.189 -12.045  -3.296  0.00  0.00     0.370 C 
HETATM   21  C           1     -22.988 -11.048  -2.475  0.00  0.00     0.048 C 
HETATM   22  C           1     -23.583 -11.860  -1.330  0.00  0.00     0.033 C 
HETATM   23  C           1     -23.099 -13.282  -1.561  0.00  0.00     0.271 C 
HETATM   24  N           1     -22.819 -13.327  -2.993  0.00  0.00     0.097 N 
HETATM   25  H           1     -23.694 -13.430  -3.508  0.00  0.00     0.317 HD
ENDBRANCH  18  20
ENDBRANCH   1  16
TORSDOF 5
ENDMDL
