MODEL 1
REMARK VINA RESULT:      -5.9      0.000      0.000
REMARK  11 active torsions:
REMARK  status: ('A' for Active; 'I' for Inactive)
REMARK    1  A    between atoms: Se_2  and  C_3 
REMARK    2  A    between atoms: C_3  and  C_4 
REMARK    3  A    between atoms: C_4  and  C_5 
REMARK    4  A    between atoms: C_5  and  C_6 
REMARK    5  A    between atoms: C_5  and  N_9 
REMARK       I    between atoms: N_9  and  C_10 
REMARK    6  A    between atoms: C_10  and  C_11 
REMARK    7  A    between atoms: C_11  and  C_12 
REMARK    8  A    between atoms: C_11  and  N_18 
REMARK    9  A    between atoms: C_12  and  O_13 
REMARK   10  A    between atoms: O_13  and  P_14 
REMARK   11  A    between atoms: P_14  and  O_15 
ROOT
HETATM    1  N           1     -35.412  -2.795 -11.768  0.00  0.00    -0.345 N 
HETATM    2  C           1     -35.429  -1.612 -11.080  0.00  0.00     0.251 C 
HETATM    3  O           1     -34.611  -1.403 -10.216  0.00  0.00    -0.271 OA
HETATM    4  H           1     -36.096  -2.969 -12.492  0.00  0.00     0.163 HD
ENDROOT
BRANCH   2   5
HETATM    5  C           1     -36.470  -0.568 -11.402  0.00  0.00     0.298 C 
BRANCH   5   6
HETATM    6  C           1     -36.145   0.082 -12.740  0.00  0.00     0.224 C 
BRANCH   6   7
HETATM    7  O           1     -36.366  -0.841 -13.774  0.00  0.00    -0.287 OA
BRANCH   7   8
HETATM    8  P           1     -35.649  -0.511 -15.182  0.00  0.00     0.406 P 
HETATM    9  O           1     -34.467   0.348 -14.944  0.00  0.00    -0.624 OA
HETATM   10  O           1     -36.601   0.194 -16.068  0.00  0.00    -0.624 OA
BRANCH   8  11
HETATM   11  O           1     -35.180  -1.888 -15.884  0.00  0.00    -0.300 OA
HETATM   12  H           1     -35.920  -2.165 -16.396  0.00  0.00     0.223 HD
ENDBRANCH   8  11
ENDBRANCH   7   8
ENDBRANCH   6   7
ENDBRANCH   5   6
BRANCH   5  13
HETATM   13  N           1     -36.475   0.480 -10.328  0.00  0.00    -0.064 N 
HETATM   14  H           1     -35.793   0.216  -9.580  0.00  0.00     0.275 HD
HETATM   15  H           1     -36.201   1.401 -10.740  0.00  0.00     0.275 HD
HETATM   16  H           1     -37.432   0.553  -9.916  0.00  0.00     0.275 HD
ENDBRANCH   5  13
ENDBRANCH   2   5
BRANCH   1  17
HETATM   17  C           1     -34.410  -3.797 -11.460  0.00  0.00     0.185 C 
BRANCH  17  18
HETATM   18  C           1     -35.094  -5.133 -11.200  0.00  0.00     0.036 C 
BRANCH  18  19
HETATM   19  C           1     -34.079  -6.123 -10.644  0.00  0.00     0.003 C 
BRANCH  19  20
HETATM   20 Se           1     -35.007  -7.498  -9.619  0.00  0.00     0.000 Se
HETATM   21  C           1     -33.734  -8.910 -10.047  0.00  0.00     0.000 C 
ENDBRANCH  19  20
ENDBRANCH  18  19
ENDBRANCH  17  18
BRANCH  17  22
HETATM   22  C           1     -33.461  -3.935 -12.624  0.00  0.00     0.196 C 
HETATM   23  O           1     -32.268  -4.254 -12.424  0.00  0.00    -0.646 OA
HETATM   24  O           1     -33.865  -3.728 -13.789  0.00  0.00    -0.646 OA
ENDBRANCH  17  22
ENDBRANCH   1  17
TORSDOF 11
ENDMDL
MODEL 2
REMARK VINA RESULT:      -5.7     13.255     14.924
REMARK  11 active torsions:
REMARK  status: ('A' for Active; 'I' for Inactive)
REMARK    1  A    between atoms: Se_2  and  C_3 
REMARK    2  A    between atoms: C_3  and  C_4 
REMARK    3  A    between atoms: C_4  and  C_5 
REMARK    4  A    between atoms: C_5  and  C_6 
REMARK    5  A    between atoms: C_5  and  N_9 
REMARK       I    between atoms: N_9  and  C_10 
REMARK    6  A    between atoms: C_10  and  C_11 
REMARK    7  A    between atoms: C_11  and  C_12 
REMARK    8  A    between atoms: C_11  and  N_18 
REMARK    9  A    between atoms: C_12  and  O_13 
REMARK   10  A    between atoms: O_13  and  P_14 
REMARK   11  A    between atoms: P_14  and  O_15 
ROOT
HETATM    1  N           1     -21.648  -5.663  -5.844  0.00  0.00    -0.345 N 
HETATM    2  C           1     -20.881  -4.731  -6.490  0.00  0.00     0.251 C 
HETATM    3  O           1     -19.756  -4.508  -6.113  0.00  0.00    -0.271 OA
HETATM    4  H           1     -22.590  -5.851  -6.161  0.00  0.00     0.163 HD
ENDROOT
BRANCH   2   5
HETATM    5  C           1     -21.442  -3.983  -7.675  0.00  0.00     0.298 C 
BRANCH   5   6
HETATM    6  C           1     -22.786  -4.584  -8.068  0.00  0.00     0.224 C 
BRANCH   6   7
HETATM    7  O           1     -23.569  -3.606  -8.699  0.00  0.00    -0.287 OA
BRANCH   7   8
HETATM    8  P           1     -23.802  -3.802 -10.284  0.00  0.00     0.406 P 
HETATM    9  O           1     -22.671  -3.203 -11.027  0.00  0.00    -0.624 OA
HETATM   10  O           1     -25.062  -3.137 -10.683  0.00  0.00    -0.624 OA
BRANCH   8  11
HETATM   11  O           1     -23.894  -5.379 -10.625  0.00  0.00    -0.300 OA
HETATM   12  H           1     -24.517  -5.439 -11.329  0.00  0.00     0.223 HD
ENDBRANCH   8  11
ENDBRANCH   7   8
ENDBRANCH   6   7
ENDBRANCH   5   6
BRANCH   5  13
HETATM   13  N           1     -20.491  -4.092  -8.830  0.00  0.00    -0.064 N 
HETATM   14  H           1     -20.034  -3.166  -8.995  0.00  0.00     0.275 HD
HETATM   15  H           1     -19.759  -4.807  -8.611  0.00  0.00     0.275 HD
HETATM   16  H           1     -21.014  -4.380  -9.687  0.00  0.00     0.275 HD
ENDBRANCH   5  13
ENDBRANCH   2   5
BRANCH   1  17
HETATM   17  C           1     -21.109  -6.382  -4.707  0.00  0.00     0.185 C 
BRANCH  17  18
HETATM   18  C           1     -22.183  -6.516  -3.636  0.00  0.00     0.036 C 
BRANCH  18  19
HETATM   19  C           1     -21.637  -6.017  -2.304  0.00  0.00     0.003 C 
BRANCH  19  20
HETATM   20 Se           1     -22.293  -7.157  -0.865  0.00  0.00     0.000 Se
HETATM   21  C           1     -20.821  -8.429  -0.979  0.00  0.00     0.000 C 
ENDBRANCH  19  20
ENDBRANCH  18  19
ENDBRANCH  17  18
BRANCH  17  22
HETATM   22  C           1     -20.661  -7.755  -5.145  0.00  0.00     0.196 C 
HETATM   23  O           1     -19.768  -8.354  -4.508  0.00  0.00    -0.646 OA
HETATM   24  O           1     -21.181  -8.292  -6.147  0.00  0.00    -0.646 OA
ENDBRANCH  17  22
ENDBRANCH   1  17
TORSDOF 11
ENDMDL
MODEL 3
REMARK VINA RESULT:      -5.7      3.386      5.505
REMARK  11 active torsions:
REMARK  status: ('A' for Active; 'I' for Inactive)
REMARK    1  A    between atoms: Se_2  and  C_3 
REMARK    2  A    between atoms: C_3  and  C_4 
REMARK    3  A    between atoms: C_4  and  C_5 
REMARK    4  A    between atoms: C_5  and  C_6 
REMARK    5  A    between atoms: C_5  and  N_9 
REMARK       I    between atoms: N_9  and  C_10 
REMARK    6  A    between atoms: C_10  and  C_11 
REMARK    7  A    between atoms: C_11  and  C_12 
REMARK    8  A    between atoms: C_11  and  N_18 
REMARK    9  A    between atoms: C_12  and  O_13 
REMARK   10  A    between atoms: O_13  and  P_14 
REMARK   11  A    between atoms: P_14  and  O_15 
ROOT
HETATM    1  N           1     -35.338  -2.117 -11.871  0.00  0.00    -0.345 N 
HETATM    2  C           1     -34.121  -2.524 -11.395  0.00  0.00     0.251 C 
HETATM    3  O           1     -33.432  -1.758 -10.765  0.00  0.00    -0.271 OA
HETATM    4  H           1     -35.916  -2.759 -12.398  0.00  0.00     0.163 HD
ENDROOT
BRANCH   2   5
HETATM    5  C           1     -33.641  -3.931 -11.657  0.00  0.00     0.298 C 
BRANCH   5   6
HETATM    6  C           1     -34.219  -4.430 -12.975  0.00  0.00     0.224 C 
BRANCH   6   7
HETATM    7  O           1     -34.046  -3.449 -13.962  0.00  0.00    -0.287 OA
BRANCH   7   8
HETATM    8  P           1     -34.190  -3.950 -15.490  0.00  0.00     0.406 P 
HETATM    9  O           1     -32.845  -4.179 -16.063  0.00  0.00    -0.624 OA
HETATM   10  O           1     -34.895  -2.919 -16.283  0.00  0.00    -0.624 OA
BRANCH   8  11
HETATM   11  O           1     -35.032  -5.328 -15.529  0.00  0.00    -0.300 OA
HETATM   12  H           1     -34.451  -5.979 -15.174  0.00  0.00     0.223 HD
ENDBRANCH   8  11
ENDBRANCH   7   8
ENDBRANCH   6   7
ENDBRANCH   5   6
BRANCH   5  13
HETATM   13  N           1     -34.093  -4.828 -10.543  0.00  0.00    -0.064 N 
HETATM   14  H           1     -33.880  -5.822 -10.786  0.00  0.00     0.275 HD
HETATM   15  H           1     -33.591  -4.570  -9.663  0.00  0.00     0.275 HD
HETATM   16  H           1     -35.122  -4.717 -10.401  0.00  0.00     0.275 HD
ENDBRANCH   5  13
ENDBRANCH   2   5
BRANCH   1  17
HETATM   17  C           1     -35.800  -0.766 -11.619  0.00  0.00     0.185 C 
BRANCH  17  18
HETATM   18  C           1     -36.356  -0.172 -12.906  0.00  0.00     0.036 C 
BRANCH  18  19
HETATM   19  C           1     -35.232  -0.018 -13.922  0.00  0.00     0.003 C 
BRANCH  19  20
HETATM   20 Se           1     -35.898   0.934 -15.488  0.00  0.00     0.000 Se
HETATM   21  C           1     -37.450  -0.218 -15.734  0.00  0.00     0.000 C 
ENDBRANCH  19  20
ENDBRANCH  18  19
ENDBRANCH  17  18
BRANCH  17  22
HETATM   22  C           1     -36.881  -0.791 -10.567  0.00  0.00     0.196 C 
HETATM   23  O           1     -36.582  -0.656  -9.360  0.00  0.00    -0.646 OA
HETATM   24  O           1     -38.075  -0.950 -10.901  0.00  0.00    -0.646 OA
ENDBRANCH  17  22
ENDBRANCH   1  17
TORSDOF 11
ENDMDL
MODEL 4
REMARK VINA RESULT:      -5.6      3.951      5.493
REMARK  11 active torsions:
REMARK  status: ('A' for Active; 'I' for Inactive)
REMARK    1  A    between atoms: Se_2  and  C_3 
REMARK    2  A    between atoms: C_3  and  C_4 
REMARK    3  A    between atoms: C_4  and  C_5 
REMARK    4  A    between atoms: C_5  and  C_6 
REMARK    5  A    between atoms: C_5  and  N_9 
REMARK       I    between atoms: N_9  and  C_10 
REMARK    6  A    between atoms: C_10  and  C_11 
REMARK    7  A    between atoms: C_11  and  C_12 
REMARK    8  A    between atoms: C_11  and  N_18 
REMARK    9  A    between atoms: C_12  and  O_13 
REMARK   10  A    between atoms: O_13  and  P_14 
REMARK   11  A    between atoms: P_14  and  O_15 
ROOT
HETATM    1  N           1     -33.508  -3.835 -14.267  0.00  0.00    -0.345 N 
HETATM    2  C           1     -34.050  -4.485 -15.343  0.00  0.00     0.251 C 
HETATM    3  O           1     -35.052  -5.145 -15.208  0.00  0.00    -0.271 OA
HETATM    4  H           1     -32.669  -3.282 -14.380  0.00  0.00     0.163 HD
ENDROOT
BRANCH   2   5
HETATM    5  C           1     -33.393  -4.378 -16.698  0.00  0.00     0.298 C 
BRANCH   5   6
HETATM    6  C           1     -31.906  -4.680 -16.569  0.00  0.00     0.224 C 
BRANCH   6   7
HETATM    7  O           1     -31.170  -3.722 -17.282  0.00  0.00    -0.287 OA
BRANCH   7   8
HETATM    8  P           1     -29.586  -4.002 -17.414  0.00  0.00     0.406 P 
HETATM    9  O           1     -28.847  -2.726 -17.283  0.00  0.00    -0.624 OA
HETATM   10  O           1     -29.300  -4.604 -18.735  0.00  0.00    -0.624 OA
BRANCH   8  11
HETATM   11  O           1     -29.118  -5.016 -16.247  0.00  0.00    -0.300 OA
HETATM   12  H           1     -29.195  -5.875 -16.625  0.00  0.00     0.223 HD
ENDBRANCH   8  11
ENDBRANCH   7   8
ENDBRANCH   6   7
ENDBRANCH   5   6
BRANCH   5  13
HETATM   13  N           1     -33.575  -2.988 -17.231  0.00  0.00    -0.064 N 
HETATM   14  H           1     -34.041  -2.394 -16.508  0.00  0.00     0.275 HD
HETATM   15  H           1     -32.640  -2.581 -17.466  0.00  0.00     0.275 HD
HETATM   16  H           1     -34.167  -3.018 -18.091  0.00  0.00     0.275 HD
ENDBRANCH   5  13
ENDBRANCH   2   5
BRANCH   1  17
HETATM   17  C           1     -34.140  -3.937 -12.966  0.00  0.00     0.185 C 
BRANCH  17  18
HETATM   18  C           1     -33.069  -4.087 -11.893  0.00  0.00     0.036 C 
BRANCH  18  19
HETATM   19  C           1     -33.127  -5.493 -11.311  0.00  0.00     0.003 C 
BRANCH  19  20
HETATM   20 Se           1     -34.940  -6.190 -11.475  0.00  0.00     0.000 Se
HETATM   21  C           1     -34.726  -7.534 -10.080  0.00  0.00     0.000 C 
ENDBRANCH  19  20
ENDBRANCH  18  19
ENDBRANCH  17  18
BRANCH  17  22
HETATM   22  C           1     -34.949  -2.692 -12.699  0.00  0.00     0.196 C 
HETATM   23  O           1     -35.611  -2.591 -11.643  0.00  0.00    -0.646 OA
HETATM   24  O           1     -34.959  -1.762 -13.535  0.00  0.00    -0.646 OA
ENDBRANCH  17  22
ENDBRANCH   1  17
TORSDOF 11
ENDMDL
MODEL 5
REMARK VINA RESULT:      -5.6      3.170      5.388
REMARK  11 active torsions:
REMARK  status: ('A' for Active; 'I' for Inactive)
REMARK    1  A    between atoms: Se_2  and  C_3 
REMARK    2  A    between atoms: C_3  and  C_4 
REMARK    3  A    between atoms: C_4  and  C_5 
REMARK    4  A    between atoms: C_5  and  C_6 
REMARK    5  A    between atoms: C_5  and  N_9 
REMARK       I    between atoms: N_9  and  C_10 
REMARK    6  A    between atoms: C_10  and  C_11 
REMARK    7  A    between atoms: C_11  and  C_12 
REMARK    8  A    between atoms: C_11  and  N_18 
REMARK    9  A    between atoms: C_12  and  O_13 
REMARK   10  A    between atoms: O_13  and  P_14 
REMARK   11  A    between atoms: P_14  and  O_15 
ROOT
HETATM    1  N           1     -35.315  -1.528 -12.039  0.00  0.00    -0.345 N 
HETATM    2  C           1     -35.147  -2.798 -11.555  0.00  0.00     0.251 C 
HETATM    3  O           1     -36.085  -3.395 -11.084  0.00  0.00    -0.271 OA
HETATM    4  H           1     -34.529  -1.028 -12.434  0.00  0.00     0.163 HD
ENDROOT
BRANCH   2   5
HETATM    5  C           1     -33.787  -3.451 -11.610  0.00  0.00     0.298 C 
BRANCH   5   6
HETATM    6  C           1     -33.586  -4.093 -12.977  0.00  0.00     0.224 C 
BRANCH   6   7
HETATM    7  O           1     -34.297  -3.367 -13.944  0.00  0.00    -0.287 OA
BRANCH   7   8
HETATM    8  P           1     -34.217  -3.933 -15.454  0.00  0.00     0.406 P 
HETATM    9  O           1     -32.801  -4.158 -15.822  0.00  0.00    -0.624 OA
HETATM   10  O           1     -34.818  -2.949 -16.382  0.00  0.00    -0.624 OA
BRANCH   8  11
HETATM   11  O           1     -35.026  -5.328 -15.551  0.00  0.00    -0.300 OA
HETATM   12  H           1     -34.450  -5.970 -15.172  0.00  0.00     0.223 HD
ENDBRANCH   8  11
ENDBRANCH   7   8
ENDBRANCH   6   7
ENDBRANCH   5   6
BRANCH   5  13
HETATM   13  N           1     -33.697  -4.505 -10.547  0.00  0.00    -0.064 N 
HETATM   14  H           1     -34.659  -4.810 -10.274  0.00  0.00     0.275 HD
HETATM   15  H           1     -33.163  -5.326 -10.915  0.00  0.00     0.275 HD
HETATM   16  H           1     -33.205  -4.117  -9.711  0.00  0.00     0.275 HD
ENDBRANCH   5  13
ENDBRANCH   2   5
BRANCH   1  17
HETATM   17  C           1     -36.622  -0.901 -11.986  0.00  0.00     0.185 C 
BRANCH  17  18
HETATM   18  C           1     -36.607   0.216 -10.951  0.00  0.00     0.036 C 
BRANCH  18  19
HETATM   19  C           1     -37.742   0.004  -9.959  0.00  0.00     0.003 C 
BRANCH  19  20
HETATM   20 Se           1     -37.899   1.570  -8.808  0.00  0.00     0.000 Se
HETATM   21  C           1     -36.753   0.856  -7.402  0.00  0.00     0.000 C 
ENDBRANCH  19  20
ENDBRANCH  18  19
ENDBRANCH  17  18
BRANCH  17  22
HETATM   22  C           1     -36.960  -0.328 -13.341  0.00  0.00     0.196 C 
HETATM   23  O           1     -38.000  -0.692 -13.931  0.00  0.00    -0.646 OA
HETATM   24  O           1     -36.199   0.509 -13.873  0.00  0.00    -0.646 OA
ENDBRANCH  17  22
ENDBRANCH   1  17
TORSDOF 11
ENDMDL
MODEL 6
REMARK VINA RESULT:      -5.6      3.445      6.086
REMARK  11 active torsions:
REMARK  status: ('A' for Active; 'I' for Inactive)
REMARK    1  A    between atoms: Se_2  and  C_3 
REMARK    2  A    between atoms: C_3  and  C_4 
REMARK    3  A    between atoms: C_4  and  C_5 
REMARK    4  A    between atoms: C_5  and  C_6 
REMARK    5  A    between atoms: C_5  and  N_9 
REMARK       I    between atoms: N_9  and  C_10 
REMARK    6  A    between atoms: C_10  and  C_11 
REMARK    7  A    between atoms: C_11  and  C_12 
REMARK    8  A    between atoms: C_11  and  N_18 
REMARK    9  A    between atoms: C_12  and  O_13 
REMARK   10  A    between atoms: O_13  and  P_14 
REMARK   11  A    between atoms: P_14  and  O_15 
ROOT
HETATM    1  N           1     -35.447  -0.867 -11.969  0.00  0.00    -0.345 N 
HETATM    2  C           1     -34.633  -1.950 -12.162  0.00  0.00     0.251 C 
HETATM    3  O           1     -34.853  -2.717 -13.069  0.00  0.00    -0.271 OA
HETATM    4  H           1     -35.262  -0.224 -11.209  0.00  0.00     0.163 HD
ENDROOT
BRANCH   2   5
HETATM    5  C           1     -33.460  -2.186 -11.243  0.00  0.00     0.298 C 
BRANCH   5   6
HETATM    6  C           1     -33.055  -3.654 -11.301  0.00  0.00     0.224 C 
BRANCH   6   7
HETATM    7  O           1     -33.890  -4.404 -10.460  0.00  0.00    -0.287 OA
BRANCH   7   8
HETATM    8  P           1     -34.181  -5.923 -10.923  0.00  0.00     0.406 P 
HETATM    9  O           1     -34.991  -5.914 -12.162  0.00  0.00    -0.624 OA
HETATM   10  O           1     -34.920  -6.631  -9.855  0.00  0.00    -0.624 OA
BRANCH   8  11
HETATM   11  O           1     -32.781  -6.679 -11.202  0.00  0.00    -0.300 OA
HETATM   12  H           1     -32.177  -5.995 -11.435  0.00  0.00     0.223 HD
ENDBRANCH   8  11
ENDBRANCH   7   8
ENDBRANCH   6   7
ENDBRANCH   5   6
BRANCH   5  13
HETATM   13  N           1     -33.848  -1.832  -9.838  0.00  0.00    -0.064 N 
HETATM   14  H           1     -33.210  -2.317  -9.166  0.00  0.00     0.275 HD
HETATM   15  H           1     -33.771  -0.798  -9.706  0.00  0.00     0.275 HD
HETATM   16  H           1     -34.833  -2.133  -9.661  0.00  0.00     0.275 HD
ENDBRANCH   5  13
ENDBRANCH   2   5
BRANCH   1  17
HETATM   17  C           1     -36.573  -0.640 -12.853  0.00  0.00     0.185 C 
BRANCH  17  18
HETATM   18  C           1     -37.729  -0.043 -12.060  0.00  0.00     0.036 C 
BRANCH  18  19
HETATM   19  C           1     -37.655  -0.523 -10.616  0.00  0.00     0.003 C 
BRANCH  19  20
HETATM   20 Se           1     -37.867   0.997  -9.414  0.00  0.00     0.000 Se
HETATM   21  C           1     -36.536   0.379  -8.132  0.00  0.00     0.000 C 
ENDBRANCH  19  20
ENDBRANCH  18  19
ENDBRANCH  17  18
BRANCH  17  22
HETATM   22  C           1     -36.169   0.315 -13.949  0.00  0.00     0.196 C 
HETATM   23  O           1     -36.850   0.391 -14.994  0.00  0.00    -0.646 OA
HETATM   24  O           1     -35.151   1.029 -13.812  0.00  0.00    -0.646 OA
ENDBRANCH  17  22
ENDBRANCH   1  17
TORSDOF 11
ENDMDL
MODEL 7
REMARK VINA RESULT:      -5.3     15.107     17.432
REMARK  11 active torsions:
REMARK  status: ('A' for Active; 'I' for Inactive)
REMARK    1  A    between atoms: Se_2  and  C_3 
REMARK    2  A    between atoms: C_3  and  C_4 
REMARK    3  A    between atoms: C_4  and  C_5 
REMARK    4  A    between atoms: C_5  and  C_6 
REMARK    5  A    between atoms: C_5  and  N_9 
REMARK       I    between atoms: N_9  and  C_10 
REMARK    6  A    between atoms: C_10  and  C_11 
REMARK    7  A    between atoms: C_11  and  C_12 
REMARK    8  A    between atoms: C_11  and  N_18 
REMARK    9  A    between atoms: C_12  and  O_13 
REMARK   10  A    between atoms: O_13  and  P_14 
REMARK   11  A    between atoms: P_14  and  O_15 
ROOT
HETATM    1  N           1     -21.049  -5.454  -5.012  0.00  0.00    -0.345 N 
HETATM    2  C           1     -21.476  -6.529  -4.280  0.00  0.00     0.251 C 
HETATM    3  O           1     -21.990  -7.471  -4.834  0.00  0.00    -0.271 OA
HETATM    4  H           1     -20.617  -4.665  -4.548  0.00  0.00     0.163 HD
ENDROOT
BRANCH   2   5
HETATM    5  C           1     -21.304  -6.537  -2.781  0.00  0.00     0.298 C 
BRANCH   5   6
HETATM    6  C           1     -21.260  -7.976  -2.281  0.00  0.00     0.224 C 
BRANCH   6   7
HETATM    7  O           1     -20.786  -7.998  -0.961  0.00  0.00    -0.287 OA
BRANCH   7   8
HETATM    8  P           1     -21.787  -8.622   0.140  0.00  0.00     0.406 P 
HETATM    9  O           1     -22.152 -10.002  -0.251  0.00  0.00    -0.624 OA
HETATM   10  O           1     -23.010  -7.793   0.222  0.00  0.00    -0.624 OA
BRANCH   8  11
HETATM   11  O           1     -21.057  -8.648   1.581  0.00  0.00    -0.300 OA
HETATM   12  H           1     -20.696  -7.784   1.686  0.00  0.00     0.223 HD
ENDBRANCH   8  11
ENDBRANCH   7   8
ENDBRANCH   6   7
ENDBRANCH   5   6
BRANCH   5  13
HETATM   13  N           1     -22.458  -5.823  -2.142  0.00  0.00    -0.064 N 
HETATM   14  H           1     -23.288  -6.458  -2.111  0.00  0.00     0.275 HD
HETATM   15  H           1     -22.198  -5.543  -1.169  0.00  0.00     0.275 HD
HETATM   16  H           1     -22.693  -4.971  -2.699  0.00  0.00     0.275 HD
ENDBRANCH   5  13
ENDBRANCH   2   5
BRANCH   1  17
HETATM   17  C           1     -21.213  -5.447  -6.452  0.00  0.00     0.185 C 
BRANCH  17  18
HETATM   18  C           1     -21.726  -4.084  -6.897  0.00  0.00     0.036 C 
BRANCH  18  19
HETATM   19  C           1     -22.906  -4.268  -7.841  0.00  0.00     0.003 C 
BRANCH  19  20
HETATM   20 Se           1     -22.355  -3.842  -9.662  0.00  0.00     0.000 Se
HETATM   21  C           1     -23.786  -4.859 -10.509  0.00  0.00     0.000 C 
ENDBRANCH  19  20
ENDBRANCH  18  19
ENDBRANCH  17  18
BRANCH  17  22
HETATM   22  C           1     -19.885  -5.726  -7.112  0.00  0.00     0.196 C 
HETATM   23  O           1     -19.390  -6.873  -7.060  0.00  0.00    -0.646 OA
HETATM   24  O           1     -19.279  -4.810  -7.710  0.00  0.00    -0.646 OA
ENDBRANCH  17  22
ENDBRANCH   1  17
TORSDOF 11
ENDMDL
MODEL 8
REMARK VINA RESULT:      -5.1     13.409     15.160
REMARK  11 active torsions:
REMARK  status: ('A' for Active; 'I' for Inactive)
REMARK    1  A    between atoms: Se_2  and  C_3 
REMARK    2  A    between atoms: C_3  and  C_4 
REMARK    3  A    between atoms: C_4  and  C_5 
REMARK    4  A    between atoms: C_5  and  C_6 
REMARK    5  A    between atoms: C_5  and  N_9 
REMARK       I    between atoms: N_9  and  C_10 
REMARK    6  A    between atoms: C_10  and  C_11 
REMARK    7  A    between atoms: C_11  and  C_12 
REMARK    8  A    between atoms: C_11  and  N_18 
REMARK    9  A    between atoms: C_12  and  O_13 
REMARK   10  A    between atoms: O_13  and  P_14 
REMARK   11  A    between atoms: P_14  and  O_15 
ROOT
HETATM    1  N           1     -20.998  -6.418  -5.161  0.00  0.00    -0.345 N 
HETATM    2  C           1     -21.770  -5.587  -5.927  0.00  0.00     0.251 C 
HETATM    3  O           1     -22.974  -5.626  -5.836  0.00  0.00    -0.271 OA
HETATM    4  H           1     -19.990  -6.385  -5.237  0.00  0.00     0.163 HD
ENDROOT
BRANCH   2   5
HETATM    5  C           1     -21.117  -4.620  -6.885  0.00  0.00     0.298 C 
BRANCH   5   6
HETATM    6  C           1     -21.794  -4.716  -8.246  0.00  0.00     0.224 C 
BRANCH   6   7
HETATM    7  O           1     -22.642  -3.613  -8.425  0.00  0.00    -0.287 OA
BRANCH   7   8
HETATM    8  P           1     -23.679  -3.710  -9.659  0.00  0.00     0.406 P 
HETATM    9  O           1     -24.003  -5.130  -9.919  0.00  0.00    -0.624 OA
HETATM   10  O           1     -23.065  -3.114 -10.866  0.00  0.00    -0.624 OA
BRANCH   8  11
HETATM   11  O           1     -25.032  -2.908  -9.291  0.00  0.00    -0.300 OA
HETATM   12  H           1     -25.275  -3.220  -8.436  0.00  0.00     0.223 HD
ENDBRANCH   8  11
ENDBRANCH   7   8
ENDBRANCH   6   7
ENDBRANCH   5   6
BRANCH   5  13
HETATM   13  N           1     -19.663  -4.964  -7.026  0.00  0.00    -0.064 N 
HETATM   14  H           1     -19.265  -5.190  -6.087  0.00  0.00     0.275 HD
HETATM   15  H           1     -19.562  -5.792  -7.656  0.00  0.00     0.275 HD
HETATM   16  H           1     -19.151  -4.150  -7.435  0.00  0.00     0.275 HD
ENDBRANCH   5  13
ENDBRANCH   2   5
BRANCH   1  17
HETATM   17  C           1     -21.626  -7.345  -4.240  0.00  0.00     0.185 C 
BRANCH  17  18
HETATM   18  C           1     -20.871  -8.668  -4.259  0.00  0.00     0.036 C 
BRANCH  18  19
HETATM   19  C           1     -21.850  -9.815  -4.048  0.00  0.00     0.003 C 
BRANCH  19  20
HETATM   20 Se           1     -21.517 -10.642  -2.314  0.00  0.00     0.000 Se
HETATM   21  C           1     -21.774 -12.466  -2.951  0.00  0.00     0.000 C 
ENDBRANCH  19  20
ENDBRANCH  18  19
ENDBRANCH  17  18
BRANCH  17  22
HETATM   22  C           1     -21.598  -6.769  -2.847  0.00  0.00     0.196 C 
HETATM   23  O           1     -22.454  -5.925  -2.502  0.00  0.00    -0.646 OA
HETATM   24  O           1     -20.717  -7.132  -2.037  0.00  0.00    -0.646 OA
ENDBRANCH  17  22
ENDBRANCH   1  17
TORSDOF 11
ENDMDL
MODEL 9
REMARK VINA RESULT:      -4.8     13.761     15.560
REMARK  11 active torsions:
REMARK  status: ('A' for Active; 'I' for Inactive)
REMARK    1  A    between atoms: Se_2  and  C_3 
REMARK    2  A    between atoms: C_3  and  C_4 
REMARK    3  A    between atoms: C_4  and  C_5 
REMARK    4  A    between atoms: C_5  and  C_6 
REMARK    5  A    between atoms: C_5  and  N_9 
REMARK       I    between atoms: N_9  and  C_10 
REMARK    6  A    between atoms: C_10  and  C_11 
REMARK    7  A    between atoms: C_11  and  C_12 
REMARK    8  A    between atoms: C_11  and  N_18 
REMARK    9  A    between atoms: C_12  and  O_13 
REMARK   10  A    between atoms: O_13  and  P_14 
REMARK   11  A    between atoms: P_14  and  O_15 
ROOT
HETATM    1  N           1     -20.956  -5.936  -4.984  0.00  0.00    -0.345 N 
HETATM    2  C           1     -21.208  -5.897  -6.329  0.00  0.00     0.251 C 
HETATM    3  O           1     -21.577  -6.893  -6.904  0.00  0.00    -0.271 OA
HETATM    4  H           1     -20.647  -5.101  -4.503  0.00  0.00     0.163 HD
ENDROOT
BRANCH   2   5
HETATM    5  C           1     -21.026  -4.608  -7.094  0.00  0.00     0.298 C 
BRANCH   5   6
HETATM    6  C           1     -21.766  -4.696  -8.423  0.00  0.00     0.224 C 
BRANCH   6   7
HETATM    7  O           1     -22.860  -3.818  -8.407  0.00  0.00    -0.287 OA
BRANCH   7   8
HETATM    8  P           1     -23.744  -3.767  -9.757  0.00  0.00     0.406 P 
HETATM    9  O           1     -24.946  -2.933  -9.528  0.00  0.00    -0.624 OA
HETATM   10  O           1     -24.158  -5.138 -10.128  0.00  0.00    -0.624 OA
BRANCH   8  11
HETATM   11  O           1     -22.867  -3.127 -10.953  0.00  0.00    -0.300 OA
HETATM   12  H           1     -22.311  -2.492 -10.534  0.00  0.00     0.223 HD
ENDBRANCH   8  11
ENDBRANCH   7   8
ENDBRANCH   6   7
ENDBRANCH   5   6
BRANCH   5  13
HETATM   13  N           1     -19.565  -4.382  -7.350  0.00  0.00    -0.064 N 
HETATM   14  H           1     -19.233  -5.046  -8.086  0.00  0.00     0.275 HD
HETATM   15  H           1     -19.417  -3.400  -7.676  0.00  0.00     0.275 HD
HETATM   16  H           1     -19.027  -4.542  -6.469  0.00  0.00     0.275 HD
ENDBRANCH   5  13
ENDBRANCH   2   5
BRANCH   1  17
HETATM   17  C           1     -21.132  -7.173  -4.250  0.00  0.00     0.185 C 
BRANCH  17  18
HETATM   18  C           1     -19.819  -7.945  -4.235  0.00  0.00     0.036 C 
BRANCH  18  19
HETATM   19  C           1     -20.022  -9.306  -4.889  0.00  0.00     0.003 C 
BRANCH  19  20
HETATM   20 Se           1     -18.296 -10.026  -5.440  0.00  0.00     0.000 Se
HETATM   21  C           1     -18.198 -11.336  -4.000  0.00  0.00     0.000 C 
ENDBRANCH  19  20
ENDBRANCH  18  19
ENDBRANCH  17  18
BRANCH  17  22
HETATM   22  C           1     -21.550  -6.863  -2.834  0.00  0.00     0.196 C 
HETATM   23  O           1     -21.093  -7.538  -1.885  0.00  0.00    -0.646 OA
HETATM   24  O           1     -22.355  -5.933  -2.609  0.00  0.00    -0.646 OA
ENDBRANCH  17  22
ENDBRANCH   1  17
TORSDOF 11
ENDMDL
