MODEL 1
REMARK VINA RESULT:      -6.1      0.000      0.000
REMARK  6 active torsions:
REMARK  status: ('A' for Active; 'I' for Inactive)
REMARK    1  A    between atoms: C_3  and  C_4 
REMARK    2  A    between atoms: C_4  and  C_5 
REMARK    3  A    between atoms: C_4  and  N_9 
REMARK    4  A    between atoms: C_5  and  C_8 
REMARK       I    between atoms: C_6  and  N_9 
REMARK    5  A    between atoms: C_6  and  C_15 
REMARK    6  A    between atoms: C_8  and  C_10 
ROOT
HETATM    1  C           1     -20.683  -5.961  -6.529  0.00  0.00     0.251 C 
HETATM    2  O           1     -20.170  -6.727  -7.309  0.00  0.00    -0.271 OA
HETATM    3  N           1     -21.419  -4.904  -6.992  0.00  0.00    -0.345 N 
HETATM    4  H           1     -21.849  -4.262  -6.339  0.00  0.00     0.163 HD
ENDROOT
BRANCH   3   5
HETATM    5  C           1     -21.584  -4.705  -8.418  0.00  0.00     0.186 C 
BRANCH   5   6
HETATM    6  C           1     -20.260  -4.319  -9.028  0.00  0.00     0.196 C 
HETATM    7  O           1     -19.950  -4.735 -10.166  0.00  0.00    -0.646 OA
HETATM    8  O           1     -19.470  -3.584  -8.396  0.00  0.00    -0.646 OA
ENDBRANCH   5   6
BRANCH   5   9
HETATM    9  C           1     -22.598  -3.594  -8.662  0.00  0.00     0.046 C 
BRANCH   9  10
HETATM   10  C           1     -23.918  -4.202  -9.118  0.00  0.00     0.116 C 
BRANCH  10  11
HETATM   11  C           1     -24.159  -3.853 -10.567  0.00  0.00     0.172 C 
HETATM   12  O           1     -23.357  -4.240 -11.444  0.00  0.00    -0.648 OA
HETATM   13  O           1     -25.160  -3.177 -10.888  0.00  0.00    -0.648 OA
ENDBRANCH  10  11
ENDBRANCH   9  10
ENDBRANCH   5   9
ENDBRANCH   3   5
BRANCH   1  14
HETATM   14  C           1     -20.512  -6.169  -5.044  0.00  0.00     0.311 C 
HETATM   15  C           1     -20.224  -7.629  -4.733  0.00  0.00     0.047 C 
HETATM   16  C           1     -21.581  -8.240  -4.406  0.00  0.00     0.033 C 
HETATM   17  C           1     -22.573  -7.098  -4.540  0.00  0.00     0.271 C 
HETATM   18  N           1     -21.759  -5.903  -4.335  0.00  0.00     0.097 N 
HETATM   19  H           1     -21.589  -5.776  -3.338  0.00  0.00     0.317 HD
ENDBRANCH   1  14
TORSDOF 6
ENDMDL
MODEL 2
REMARK VINA RESULT:      -5.9      3.113      6.511
REMARK  6 active torsions:
REMARK  status: ('A' for Active; 'I' for Inactive)
REMARK    1  A    between atoms: C_3  and  C_4 
REMARK    2  A    between atoms: C_4  and  C_5 
REMARK    3  A    between atoms: C_4  and  N_9 
REMARK    4  A    between atoms: C_5  and  C_8 
REMARK       I    between atoms: C_6  and  N_9 
REMARK    5  A    between atoms: C_6  and  C_15 
REMARK    6  A    between atoms: C_8  and  C_10 
ROOT
HETATM    1  C           1     -20.767  -4.661  -5.996  0.00  0.00     0.251 C 
HETATM    2  O           1     -19.640  -4.692  -5.562  0.00  0.00    -0.271 OA
HETATM    3  N           1     -21.713  -5.517  -5.502  0.00  0.00    -0.345 N 
HETATM    4  H           1     -22.658  -5.491  -5.865  0.00  0.00     0.163 HD
ENDROOT
BRANCH   3   5
HETATM    5  C           1     -21.364  -6.461  -4.459  0.00  0.00     0.186 C 
BRANCH   5   6
HETATM    6  C           1     -21.207  -7.836  -5.058  0.00  0.00     0.196 C 
HETATM    7  O           1     -21.106  -8.835  -4.313  0.00  0.00    -0.646 OA
HETATM    8  O           1     -21.177  -7.978  -6.300  0.00  0.00    -0.646 OA
ENDBRANCH   5   6
BRANCH   5   9
HETATM    9  C           1     -22.466  -6.488  -3.408  0.00  0.00     0.046 C 
BRANCH   9  10
HETATM   10  C           1     -21.894  -6.067  -2.061  0.00  0.00     0.116 C 
BRANCH  10  11
HETATM   11  C           1     -22.057  -7.194  -1.070  0.00  0.00     0.172 C 
HETATM   12  O           1     -21.197  -8.099  -1.007  0.00  0.00    -0.648 OA
HETATM   13  O           1     -23.052  -7.222  -0.314  0.00  0.00    -0.648 OA
ENDBRANCH  10  11
ENDBRANCH   9  10
ENDBRANCH   5   9
ENDBRANCH   3   5
BRANCH   1  14
HETATM   14  C           1     -21.131  -3.677  -7.081  0.00  0.00     0.311 C 
HETATM   15  C           1     -22.381  -4.126  -7.820  0.00  0.00     0.047 C 
HETATM   16  C           1     -21.870  -4.891  -9.035  0.00  0.00     0.033 C 
HETATM   17  C           1     -20.356  -4.834  -8.932  0.00  0.00     0.271 C 
HETATM   18  N           1     -20.106  -3.647  -8.120  0.00  0.00     0.097 N 
HETATM   19  H           1     -20.202  -2.812  -8.699  0.00  0.00     0.317 HD
ENDBRANCH   1  14
TORSDOF 6
ENDMDL
MODEL 3
REMARK VINA RESULT:      -5.9      4.121      6.747
REMARK  6 active torsions:
REMARK  status: ('A' for Active; 'I' for Inactive)
REMARK    1  A    between atoms: C_3  and  C_4 
REMARK    2  A    between atoms: C_4  and  C_5 
REMARK    3  A    between atoms: C_4  and  N_9 
REMARK    4  A    between atoms: C_5  and  C_8 
REMARK       I    between atoms: C_6  and  N_9 
REMARK    5  A    between atoms: C_6  and  C_15 
REMARK    6  A    between atoms: C_8  and  C_10 
ROOT
HETATM    1  C           1     -20.792  -7.634  -5.608  0.00  0.00     0.251 C 
HETATM    2  O           1     -19.682  -8.072  -5.792  0.00  0.00    -0.271 OA
HETATM    3  N           1     -21.589  -8.177  -4.637  0.00  0.00    -0.345 N 
HETATM    4  H           1     -22.520  -7.811  -4.482  0.00  0.00     0.163 HD
ENDROOT
BRANCH   3   5
HETATM    5  C           1     -21.102  -9.279  -3.831  0.00  0.00     0.186 C 
BRANCH   5   6
HETATM    6  C           1     -21.745 -10.563  -4.292  0.00  0.00     0.196 C 
HETATM    7  O           1     -22.673 -11.072  -3.627  0.00  0.00    -0.646 OA
HETATM    8  O           1     -21.349 -11.119  -5.340  0.00  0.00    -0.646 OA
ENDBRANCH   5   6
BRANCH   5   9
HETATM    9  C           1     -21.451  -9.033  -2.369  0.00  0.00     0.046 C 
BRANCH   9  10
HETATM   10  C           1     -20.926  -7.668  -1.943  0.00  0.00     0.116 C 
BRANCH  10  11
HETATM   11  C           1     -22.086  -6.724  -1.739  0.00  0.00     0.172 C 
HETATM   12  O           1     -22.421  -5.940  -2.653  0.00  0.00    -0.648 OA
HETATM   13  O           1     -22.710  -6.727  -0.656  0.00  0.00    -0.648 OA
ENDBRANCH  10  11
ENDBRANCH   9  10
ENDBRANCH   5   9
ENDBRANCH   3   5
BRANCH   1  14
HETATM   14  C           1     -21.300  -6.486  -6.447  0.00  0.00     0.311 C 
HETATM   15  C           1     -20.201  -5.949  -7.349  0.00  0.00     0.047 C 
HETATM   16  C           1     -19.590  -4.785  -6.579  0.00  0.00     0.033 C 
HETATM   17  C           1     -20.375  -4.711  -5.281  0.00  0.00     0.271 C 
HETATM   18  N           1     -21.649  -5.344  -5.608  0.00  0.00     0.097 N 
HETATM   19  H           1     -22.235  -4.684  -6.120  0.00  0.00     0.317 HD
ENDBRANCH   1  14
TORSDOF 6
ENDMDL
MODEL 4
REMARK VINA RESULT:      -5.7      4.733      7.164
REMARK  6 active torsions:
REMARK  status: ('A' for Active; 'I' for Inactive)
REMARK    1  A    between atoms: C_3  and  C_4 
REMARK    2  A    between atoms: C_4  and  C_5 
REMARK    3  A    between atoms: C_4  and  N_9 
REMARK    4  A    between atoms: C_5  and  C_8 
REMARK       I    between atoms: C_6  and  N_9 
REMARK    5  A    between atoms: C_6  and  C_15 
REMARK    6  A    between atoms: C_8  and  C_10 
ROOT
HETATM    1  C           1     -21.280 -10.212  -1.191  0.00  0.00     0.251 C 
HETATM    2  O           1     -20.415 -10.014  -0.372  0.00  0.00    -0.271 OA
HETATM    3  N           1     -21.748  -9.177  -1.955  0.00  0.00    -0.345 N 
HETATM    4  H           1     -22.473  -9.343  -2.642  0.00  0.00     0.163 HD
ENDROOT
BRANCH   3   5
HETATM    5  C           1     -21.208  -7.844  -1.780  0.00  0.00     0.186 C 
BRANCH   5   6
HETATM    6  C           1     -22.291  -6.924  -1.274  0.00  0.00     0.196 C 
HETATM    7  O           1     -22.481  -5.818  -1.825  0.00  0.00    -0.646 OA
HETATM    8  O           1     -22.999  -7.267  -0.301  0.00  0.00    -0.646 OA
ENDBRANCH   5   6
BRANCH   5   9
HETATM    9  C           1     -20.687  -7.327  -3.115  0.00  0.00     0.046 C 
BRANCH   9  10
HETATM   10  C           1     -21.411  -8.035  -4.252  0.00  0.00     0.116 C 
BRANCH  10  11
HETATM   11  C           1     -21.730  -7.040  -5.342  0.00  0.00     0.172 C 
HETATM   12  O           1     -21.153  -7.118  -6.448  0.00  0.00    -0.648 OA
HETATM   13  O           1     -22.571  -6.138  -5.137  0.00  0.00    -0.648 OA
ENDBRANCH  10  11
ENDBRANCH   9  10
ENDBRANCH   5   9
ENDBRANCH   3   5
BRANCH   1  14
HETATM   14  C           1     -21.842 -11.600  -1.374  0.00  0.00     0.311 C 
HETATM   15  C           1     -23.155 -11.555  -2.138  0.00  0.00     0.047 C 
HETATM   16  C           1     -24.238 -11.532  -1.066  0.00  0.00     0.033 C 
HETATM   17  C           1     -23.489 -11.572   0.255  0.00  0.00     0.271 C 
HETATM   18  N           1     -22.209 -12.185  -0.088  0.00  0.00     0.097 N 
HETATM   19  H           1     -22.328 -13.195  -0.171  0.00  0.00     0.317 HD
ENDBRANCH   1  14
TORSDOF 6
ENDMDL
MODEL 5
REMARK VINA RESULT:      -5.5      4.855      6.845
REMARK  6 active torsions:
REMARK  status: ('A' for Active; 'I' for Inactive)
REMARK    1  A    between atoms: C_3  and  C_4 
REMARK    2  A    between atoms: C_4  and  C_5 
REMARK    3  A    between atoms: C_4  and  N_9 
REMARK    4  A    between atoms: C_5  and  C_8 
REMARK       I    between atoms: C_6  and  N_9 
REMARK    5  A    between atoms: C_6  and  C_15 
REMARK    6  A    between atoms: C_8  and  C_10 
ROOT
HETATM    1  C           1     -20.836  -8.762  -1.618  0.00  0.00     0.251 C 
HETATM    2  O           1     -19.742  -8.255  -1.536  0.00  0.00    -0.271 OA
HETATM    3  N           1     -21.602  -8.559  -2.733  0.00  0.00    -0.345 N 
HETATM    4  H           1     -22.519  -8.983  -2.801  0.00  0.00     0.163 HD
ENDROOT
BRANCH   3   5
HETATM    5  C           1     -21.103  -7.736  -3.816  0.00  0.00     0.186 C 
BRANCH   5   6
HETATM    6  C           1     -21.914  -6.467  -3.899  0.00  0.00     0.196 C 
HETATM    7  O           1     -22.396  -5.963  -2.861  0.00  0.00    -0.646 OA
HETATM    8  O           1     -22.105  -5.918  -5.007  0.00  0.00    -0.646 OA
ENDBRANCH   5   6
BRANCH   5   9
HETATM    9  C           1     -21.219  -8.499  -5.129  0.00  0.00     0.046 C 
BRANCH   9  10
HETATM   10  C           1     -20.356  -9.752  -5.068  0.00  0.00     0.116 C 
BRANCH  10  11
HETATM   11  C           1     -18.902  -9.370  -5.206  0.00  0.00     0.172 C 
HETATM   12  O           1     -18.129  -9.490  -4.231  0.00  0.00    -0.648 OA
HETATM   13  O           1     -18.472  -8.933  -6.295  0.00  0.00    -0.648 OA
ENDBRANCH  10  11
ENDBRANCH   9  10
ENDBRANCH   5   9
ENDBRANCH   3   5
BRANCH   1  14
HETATM   14  C           1     -21.356  -9.619  -0.489  0.00  0.00     0.311 C 
HETATM   15  C           1     -22.874  -9.682  -0.515  0.00  0.00     0.047 C 
HETATM   16  C           1     -23.332  -8.589   0.443  0.00  0.00     0.033 C 
HETATM   17  C           1     -22.054  -7.962   0.971  0.00  0.00     0.271 C 
HETATM   18  N           1     -21.055  -9.014   0.804  0.00  0.00     0.097 N 
HETATM   19  H           1     -21.153  -9.698   1.555  0.00  0.00     0.317 HD
ENDBRANCH   1  14
TORSDOF 6
ENDMDL
MODEL 6
REMARK VINA RESULT:      -5.5      3.610      6.955
REMARK  6 active torsions:
REMARK  status: ('A' for Active; 'I' for Inactive)
REMARK    1  A    between atoms: C_3  and  C_4 
REMARK    2  A    between atoms: C_4  and  C_5 
REMARK    3  A    between atoms: C_4  and  N_9 
REMARK    4  A    between atoms: C_5  and  C_8 
REMARK       I    between atoms: C_6  and  N_9 
REMARK    5  A    between atoms: C_6  and  C_15 
REMARK    6  A    between atoms: C_8  and  C_10 
ROOT
HETATM    1  C           1     -20.611  -7.075  -5.604  0.00  0.00     0.251 C 
HETATM    2  O           1     -21.244  -8.014  -6.023  0.00  0.00    -0.271 OA
HETATM    3  N           1     -20.539  -6.845  -4.257  0.00  0.00    -0.345 N 
HETATM    4  H           1     -20.009  -6.058  -3.905  0.00  0.00     0.163 HD
ENDROOT
BRANCH   3   5
HETATM    5  C           1     -21.223  -7.728  -3.333  0.00  0.00     0.186 C 
BRANCH   5   6
HETATM    6  C           1     -21.864  -6.912  -2.238  0.00  0.00     0.196 C 
HETATM    7  O           1     -22.480  -5.861  -2.520  0.00  0.00    -0.646 OA
HETATM    8  O           1     -21.778  -7.286  -1.047  0.00  0.00    -0.646 OA
ENDBRANCH   5   6
BRANCH   5   9
HETATM    9  C           1     -20.221  -8.699  -2.722  0.00  0.00     0.046 C 
BRANCH   9  10
HETATM   10  C           1     -20.492 -10.104  -3.242  0.00  0.00     0.116 C 
BRANCH  10  11
HETATM   11  C           1     -21.880 -10.534  -2.832  0.00  0.00     0.172 C 
HETATM   12  O           1     -22.733 -10.804  -3.705  0.00  0.00    -0.648 OA
HETATM   13  O           1     -22.175 -10.620  -1.621  0.00  0.00    -0.648 OA
ENDBRANCH  10  11
ENDBRANCH   9  10
ENDBRANCH   5   9
ENDBRANCH   3   5
BRANCH   1  14
HETATM   14  C           1     -19.899  -6.156  -6.566  0.00  0.00     0.311 C 
HETATM   15  C           1     -19.841  -4.740  -6.018  0.00  0.00     0.047 C 
HETATM   16  C           1     -21.044  -4.029  -6.626  0.00  0.00     0.033 C 
HETATM   17  C           1     -21.723  -5.073  -7.495  0.00  0.00     0.271 C 
HETATM   18  N           1     -20.654  -6.017  -7.807  0.00  0.00     0.097 N 
HETATM   19  H           1     -20.066  -5.632  -8.547  0.00  0.00     0.317 HD
ENDBRANCH   1  14
TORSDOF 6
ENDMDL
MODEL 7
REMARK VINA RESULT:      -5.4      5.933      7.323
REMARK  6 active torsions:
REMARK  status: ('A' for Active; 'I' for Inactive)
REMARK    1  A    between atoms: C_3  and  C_4 
REMARK    2  A    between atoms: C_4  and  C_5 
REMARK    3  A    between atoms: C_4  and  N_9 
REMARK    4  A    between atoms: C_5  and  C_8 
REMARK       I    between atoms: C_6  and  N_9 
REMARK    5  A    between atoms: C_6  and  C_15 
REMARK    6  A    between atoms: C_8  and  C_10 
ROOT
HETATM    1  C           1     -22.029 -10.853  -2.751  0.00  0.00     0.251 C 
HETATM    2  O           1     -22.854 -10.938  -3.628  0.00  0.00    -0.271 OA
HETATM    3  N           1     -20.986  -9.975  -2.875  0.00  0.00    -0.345 N 
HETATM    4  H           1     -20.294  -9.904  -2.140  0.00  0.00     0.163 HD
ENDROOT
BRANCH   3   5
HETATM    5  C           1     -20.872  -9.148  -4.060  0.00  0.00     0.186 C 
BRANCH   5   6
HETATM    6  C           1     -19.606  -9.502  -4.801  0.00  0.00     0.196 C 
HETATM    7  O           1     -18.495  -9.171  -4.334  0.00  0.00    -0.646 OA
HETATM    8  O           1     -19.669 -10.126  -5.883  0.00  0.00    -0.646 OA
ENDBRANCH   5   6
BRANCH   5   9
HETATM    9  C           1     -20.829  -7.681  -3.653  0.00  0.00     0.046 C 
BRANCH   9  10
HETATM   10  C           1     -20.939  -7.569  -2.139  0.00  0.00     0.116 C 
BRANCH  10  11
HETATM   11  C           1     -22.101  -6.673  -1.783  0.00  0.00     0.172 C 
HETATM   12  O           1     -22.637  -6.763  -0.658  0.00  0.00    -0.648 OA
HETATM   13  O           1     -22.525  -5.841  -2.614  0.00  0.00    -0.648 OA
ENDBRANCH  10  11
ENDBRANCH   9  10
ENDBRANCH   5   9
ENDBRANCH   3   5
BRANCH   1  14
HETATM   14  C           1     -22.148 -11.714  -1.517  0.00  0.00     0.311 C 
HETATM   15  C           1     -23.602 -12.053  -1.233  0.00  0.00     0.047 C 
HETATM   16  C           1     -24.066 -11.000  -0.234  0.00  0.00     0.033 C 
HETATM   17  C           1     -22.853 -10.118   0.007  0.00  0.00     0.271 C 
HETATM   18  N           1     -21.723 -10.981  -0.329  0.00  0.00     0.097 N 
HETATM   19  H           1     -21.542 -11.620   0.446  0.00  0.00     0.317 HD
ENDBRANCH   1  14
TORSDOF 6
ENDMDL
MODEL 8
REMARK VINA RESULT:      -5.2      4.366      7.300
REMARK  6 active torsions:
REMARK  status: ('A' for Active; 'I' for Inactive)
REMARK    1  A    between atoms: C_3  and  C_4 
REMARK    2  A    between atoms: C_4  and  C_5 
REMARK    3  A    between atoms: C_4  and  N_9 
REMARK    4  A    between atoms: C_5  and  C_8 
REMARK       I    between atoms: C_6  and  N_9 
REMARK    5  A    between atoms: C_6  and  C_15 
REMARK    6  A    between atoms: C_8  and  C_10 
ROOT
HETATM    1  C           1     -21.451  -8.064  -1.850  0.00  0.00     0.251 C 
HETATM    2  O           1     -20.676  -7.206  -1.502  0.00  0.00    -0.271 OA
HETATM    3  N           1     -21.506  -8.446  -3.163  0.00  0.00    -0.345 N 
HETATM    4  H           1     -22.156  -9.165  -3.455  0.00  0.00     0.163 HD
ENDROOT
BRANCH   3   5
HETATM    5  C           1     -20.633  -7.821  -4.137  0.00  0.00     0.186 C 
BRANCH   5   6
HETATM    6  C           1     -21.465  -7.095  -5.165  0.00  0.00     0.196 C 
HETATM    7  O           1     -21.239  -7.261  -6.383  0.00  0.00    -0.646 OA
HETATM    8  O           1     -22.382  -6.326  -4.799  0.00  0.00    -0.646 OA
ENDBRANCH   5   6
BRANCH   5   9
HETATM    9  C           1     -19.793  -8.887  -4.826  0.00  0.00     0.046 C 
BRANCH   9  10
HETATM   10  C           1     -18.640  -9.292  -3.917  0.00  0.00     0.116 C 
BRANCH  10  11
HETATM   11  C           1     -18.829 -10.721  -3.469  0.00  0.00     0.172 C 
HETATM   12  O           1     -17.917 -11.557  -3.646  0.00  0.00    -0.648 OA
HETATM   13  O           1     -19.898 -11.067  -2.921  0.00  0.00    -0.648 OA
ENDBRANCH  10  11
ENDBRANCH   9  10
ENDBRANCH   5   9
ENDBRANCH   3   5
BRANCH   1  14
HETATM   14  C           1     -22.359  -8.716  -0.836  0.00  0.00     0.311 C 
HETATM   15  C           1     -22.185  -8.079   0.533  0.00  0.00     0.047 C 
HETATM   16  C           1     -21.170  -8.958   1.253  0.00  0.00     0.033 C 
HETATM   17  C           1     -20.821 -10.055   0.262  0.00  0.00     0.271 C 
HETATM   18  N           1     -21.983 -10.110  -0.621  0.00  0.00     0.097 N 
HETATM   19  H           1     -22.735 -10.621  -0.160  0.00  0.00     0.317 HD
ENDBRANCH   1  14
TORSDOF 6
ENDMDL
MODEL 9
REMARK VINA RESULT:      -5.2      5.521      7.485
REMARK  6 active torsions:
REMARK  status: ('A' for Active; 'I' for Inactive)
REMARK    1  A    between atoms: C_3  and  C_4 
REMARK    2  A    between atoms: C_4  and  C_5 
REMARK    3  A    between atoms: C_4  and  N_9 
REMARK    4  A    between atoms: C_5  and  C_8 
REMARK       I    between atoms: C_6  and  N_9 
REMARK    5  A    between atoms: C_6  and  C_15 
REMARK    6  A    between atoms: C_8  and  C_10 
ROOT
HETATM    1  C           1     -21.177 -10.161  -1.584  0.00  0.00     0.251 C 
HETATM    2  O           1     -20.263  -9.925  -0.830  0.00  0.00    -0.271 OA
HETATM    3  N           1     -21.677  -9.170  -2.385  0.00  0.00    -0.345 N 
HETATM    4  H           1     -22.443  -9.367  -3.016  0.00  0.00     0.163 HD
ENDROOT
BRANCH   3   5
HETATM    5  C           1     -21.111  -7.837  -2.328  0.00  0.00     0.186 C 
BRANCH   5   6
HETATM    6  C           1     -22.087  -6.903  -1.657  0.00  0.00     0.196 C 
HETATM    7  O           1     -22.517  -7.165  -0.513  0.00  0.00    -0.646 OA
HETATM    8  O           1     -22.468  -5.867  -2.246  0.00  0.00    -0.646 OA
ENDBRANCH   5   6
BRANCH   5   9
HETATM    9  C           1     -20.827  -7.345  -3.741  0.00  0.00     0.046 C 
BRANCH   9  10
HETATM   10  C           1     -21.107  -8.463  -4.736  0.00  0.00     0.116 C 
BRANCH  10  11
HETATM   11  C           1     -19.815  -9.161  -5.086  0.00  0.00     0.172 C 
HETATM   12  O           1     -19.058  -8.673  -5.953  0.00  0.00    -0.648 OA
HETATM   13  O           1     -19.503 -10.224  -4.509  0.00  0.00    -0.648 OA
ENDBRANCH  10  11
ENDBRANCH   9  10
ENDBRANCH   5   9
ENDBRANCH   3   5
BRANCH   1  14
HETATM   14  C           1     -21.767 -11.549  -1.643  0.00  0.00     0.311 C 
HETATM   15  C           1     -23.149 -11.522  -2.274  0.00  0.00     0.047 C 
HETATM   16  C           1     -24.118 -11.435  -1.102  0.00  0.00     0.033 C 
HETATM   17  C           1     -23.242 -11.423   0.138  0.00  0.00     0.271 C 
HETATM   18  N           1     -22.008 -12.069  -0.301  0.00  0.00     0.097 N 
HETATM   19  H           1     -22.143 -13.080  -0.323  0.00  0.00     0.317 HD
ENDBRANCH   1  14
TORSDOF 6
ENDMDL
