MODEL 1
REMARK VINA RESULT:      -5.1      0.000      0.000
REMARK  9 active torsions:
REMARK  status: ('A' for Active; 'I' for Inactive)
REMARK    1  A    between atoms: N_4  and  C_14 
REMARK       I    between atoms: N_4  and  C_5 
REMARK    2  A    between atoms: C_5  and  C_11 
REMARK    3  A    between atoms: C_6  and  C_9 
REMARK    4  A    between atoms: C_6  and  C_14 
REMARK    5  A    between atoms: C_9  and  Se_10 
REMARK    6  A    between atoms: C_11  and  C_16 
REMARK    7  A    between atoms: C_11  and  N_21 
REMARK    8  A    between atoms: C_12  and  C_14 
REMARK    9  A    between atoms: O_15  and  C_16 
ROOT
HETATM    1  N           1     -22.314  -5.426  -7.299  0.00  0.00    -0.345 N 
HETATM    2  C           1     -22.562  -4.311  -8.055  0.00  0.00     0.251 C 
HETATM    3  H           1     -22.768  -6.301  -7.523  0.00  0.00     0.163 HD
HETATM    4  O           1     -22.019  -3.266  -7.787  0.00  0.00    -0.271 OA
ENDROOT
BRANCH   2   5
HETATM    5  C           1     -23.516  -4.389  -9.221  0.00  0.00     0.302 C 
BRANCH   5   6
HETATM    6  C           1     -22.732  -4.314 -10.525  0.00  0.00     0.153 C 
HETATM    7  C           1     -23.527  -4.990 -11.635  0.00  0.00     0.042 C 
BRANCH   6   8
HETATM    8  O           1     -22.512  -2.970 -10.861  0.00  0.00    -0.393 OA
HETATM    9  H           1     -21.945  -2.966 -11.614  0.00  0.00     0.210 HD
ENDBRANCH   6   8
ENDBRANCH   5   6
BRANCH   5  10
HETATM   10  N           1     -24.483  -3.244  -9.154  0.00  0.00    -0.064 N 
HETATM   11  H           1     -24.633  -2.974  -8.156  0.00  0.00     0.275 HD
HETATM   12  H           1     -25.393  -3.534  -9.578  0.00  0.00     0.275 HD
HETATM   13  H           1     -24.096  -2.429  -9.681  0.00  0.00     0.275 HD
ENDBRANCH   5  10
ENDBRANCH   2   5
BRANCH   1  14
HETATM   14  C           1     -21.397  -5.351  -6.178  0.00  0.00     0.185 C 
BRANCH  14  15
HETATM   15  C           1     -21.825  -6.344  -5.107  0.00  0.00     0.036 C 
BRANCH  15  16
HETATM   16  C           1     -21.191  -5.961  -3.775  0.00  0.00     0.003 C 
BRANCH  16  17
HETATM   17 Se           1     -21.143  -7.519  -2.605  0.00  0.00     0.000 Se
HETATM   18  C           1     -22.305  -6.740  -1.249  0.00  0.00     0.000 C 
ENDBRANCH  16  17
ENDBRANCH  15  16
ENDBRANCH  14  15
BRANCH  14  19
HETATM   19  C           1     -20.001  -5.685  -6.646  0.00  0.00     0.196 C 
HETATM   20  O           1     -19.173  -4.769  -6.844  0.00  0.00    -0.646 OA
HETATM   21  O           1     -19.674  -6.876  -6.836  0.00  0.00    -0.646 OA
ENDBRANCH  14  19
ENDBRANCH   1  14
TORSDOF 9
ENDMDL
MODEL 2
REMARK VINA RESULT:      -5.1      3.118      6.325
REMARK  9 active torsions:
REMARK  status: ('A' for Active; 'I' for Inactive)
REMARK    1  A    between atoms: N_4  and  C_14 
REMARK       I    between atoms: N_4  and  C_5 
REMARK    2  A    between atoms: C_5  and  C_11 
REMARK    3  A    between atoms: C_6  and  C_9 
REMARK    4  A    between atoms: C_6  and  C_14 
REMARK    5  A    between atoms: C_9  and  Se_10 
REMARK    6  A    between atoms: C_11  and  C_16 
REMARK    7  A    between atoms: C_11  and  N_21 
REMARK    8  A    between atoms: C_12  and  C_14 
REMARK    9  A    between atoms: O_15  and  C_16 
ROOT
HETATM    1  N           1     -20.955  -5.413  -5.244  0.00  0.00    -0.345 N 
HETATM    2  C           1     -21.630  -6.211  -4.359  0.00  0.00     0.251 C 
HETATM    3  H           1     -20.217  -4.804  -4.916  0.00  0.00     0.163 HD
HETATM    4  O           1     -22.511  -6.937  -4.751  0.00  0.00    -0.271 OA
ENDROOT
BRANCH   2   5
HETATM    5  C           1     -21.273  -6.179  -2.893  0.00  0.00     0.302 C 
BRANCH   5   6
HETATM    6  C           1     -20.651  -7.510  -2.493  0.00  0.00     0.153 C 
HETATM    7  C           1     -21.640  -8.299  -1.645  0.00  0.00     0.042 C 
BRANCH   6   8
HETATM    8  O           1     -20.335  -8.245  -3.646  0.00  0.00    -0.393 OA
HETATM    9  H           1     -21.081  -8.187  -4.219  0.00  0.00     0.210 HD
ENDBRANCH   6   8
ENDBRANCH   5   6
BRANCH   5  10
HETATM   10  N           1     -22.513  -5.945  -2.082  0.00  0.00    -0.064 N 
HETATM   11  H           1     -23.328  -6.398  -2.553  0.00  0.00     0.275 HD
HETATM   12  H           1     -22.684  -4.917  -1.999  0.00  0.00     0.275 HD
HETATM   13  H           1     -22.389  -6.355  -1.128  0.00  0.00     0.275 HD
ENDBRANCH   5  10
ENDBRANCH   2   5
BRANCH   1  14
HETATM   14  C           1     -21.298  -5.443  -6.653  0.00  0.00     0.185 C 
BRANCH  14  15
HETATM   15  C           1     -21.757  -4.060  -7.092  0.00  0.00     0.036 C 
BRANCH  15  16
HETATM   16  C           1     -23.082  -4.176  -7.837  0.00  0.00     0.003 C 
BRANCH  16  17
HETATM   17 Se           1     -22.809  -3.753  -9.719  0.00  0.00     0.000 Se
HETATM   18  C           1     -24.695  -3.433 -10.090  0.00  0.00     0.000 C 
ENDBRANCH  16  17
ENDBRANCH  15  16
ENDBRANCH  14  15
BRANCH  14  19
HETATM   19  C           1     -20.088  -5.852  -7.456  0.00  0.00     0.196 C 
HETATM   20  O           1     -19.398  -6.829  -7.093  0.00  0.00    -0.646 OA
HETATM   21  O           1     -19.775  -5.212  -8.484  0.00  0.00    -0.646 OA
ENDBRANCH  14  19
ENDBRANCH   1  14
TORSDOF 9
ENDMDL
MODEL 3
REMARK VINA RESULT:      -5.0      2.154      2.686
REMARK  9 active torsions:
REMARK  status: ('A' for Active; 'I' for Inactive)
REMARK    1  A    between atoms: N_4  and  C_14 
REMARK       I    between atoms: N_4  and  C_5 
REMARK    2  A    between atoms: C_5  and  C_11 
REMARK    3  A    between atoms: C_6  and  C_9 
REMARK    4  A    between atoms: C_6  and  C_14 
REMARK    5  A    between atoms: C_9  and  Se_10 
REMARK    6  A    between atoms: C_11  and  C_16 
REMARK    7  A    between atoms: C_11  and  N_21 
REMARK    8  A    between atoms: C_12  and  C_14 
REMARK    9  A    between atoms: O_15  and  C_16 
ROOT
HETATM    1  N           1     -21.246  -6.518  -6.230  0.00  0.00    -0.345 N 
HETATM    2  C           1     -21.107  -5.223  -6.654  0.00  0.00     0.251 C 
HETATM    3  H           1     -21.671  -7.206  -6.838  0.00  0.00     0.163 HD
HETATM    4  O           1     -20.599  -4.402  -5.928  0.00  0.00    -0.271 OA
ENDROOT
BRANCH   2   5
HETATM    5  C           1     -21.590  -4.822  -8.026  0.00  0.00     0.302 C 
BRANCH   5   6
HETATM    6  C           1     -20.393  -4.611  -8.944  0.00  0.00     0.153 C 
HETATM    7  C           1     -20.870  -4.049 -10.277  0.00  0.00     0.042 C 
BRANCH   6   8
HETATM    8  O           1     -19.501  -3.706  -8.349  0.00  0.00    -0.393 OA
HETATM    9  H           1     -19.459  -3.926  -7.434  0.00  0.00     0.210 HD
ENDBRANCH   6   8
ENDBRANCH   5   6
BRANCH   5  10
HETATM   10  N           1     -22.375  -3.548  -7.927  0.00  0.00    -0.064 N 
HETATM   11  H           1     -22.459  -3.117  -8.875  0.00  0.00     0.275 HD
HETATM   12  H           1     -21.883  -2.887  -7.284  0.00  0.00     0.275 HD
HETATM   13  H           1     -23.328  -3.753  -7.552  0.00  0.00     0.275 HD
ENDBRANCH   5  10
ENDBRANCH   2   5
BRANCH   1  14
HETATM   14  C           1     -20.782  -6.903  -4.912  0.00  0.00     0.185 C 
BRANCH  14  15
HETATM   15  C           1     -21.939  -6.826  -3.925  0.00  0.00     0.036 C 
BRANCH  15  16
HETATM   16  C           1     -21.488  -6.090  -2.669  0.00  0.00     0.003 C 
BRANCH  16  17
HETATM   17 Se           1     -22.255  -6.952  -1.099  0.00  0.00     0.000 Se
HETATM   18  C           1     -20.892  -8.341  -0.994  0.00  0.00     0.000 C 
ENDBRANCH  16  17
ENDBRANCH  15  16
ENDBRANCH  14  15
BRANCH  14  19
HETATM   19  C           1     -20.252  -8.315  -4.958  0.00  0.00     0.196 C 
HETATM   20  O           1     -19.292  -8.646  -4.228  0.00  0.00    -0.646 OA
HETATM   21  O           1     -20.773  -9.153  -5.725  0.00  0.00    -0.646 OA
ENDBRANCH  14  19
ENDBRANCH   1  14
TORSDOF 9
ENDMDL
MODEL 4
REMARK VINA RESULT:      -4.8      2.868      3.880
REMARK  9 active torsions:
REMARK  status: ('A' for Active; 'I' for Inactive)
REMARK    1  A    between atoms: N_4  and  C_14 
REMARK       I    between atoms: N_4  and  C_5 
REMARK    2  A    between atoms: C_5  and  C_11 
REMARK    3  A    between atoms: C_6  and  C_9 
REMARK    4  A    between atoms: C_6  and  C_14 
REMARK    5  A    between atoms: C_9  and  Se_10 
REMARK    6  A    between atoms: C_11  and  C_16 
REMARK    7  A    between atoms: C_11  and  N_21 
REMARK    8  A    between atoms: C_12  and  C_14 
REMARK    9  A    between atoms: O_15  and  C_16 
ROOT
HETATM    1  N           1     -20.966  -5.717  -4.996  0.00  0.00    -0.345 N 
HETATM    2  C           1     -20.940  -5.621  -6.361  0.00  0.00     0.251 C 
HETATM    3  H           1     -20.761  -4.906  -4.427  0.00  0.00     0.163 HD
HETATM    4  O           1     -21.184  -6.590  -7.040  0.00  0.00    -0.271 OA
ENDROOT
BRANCH   2   5
HETATM    5  C           1     -20.604  -4.305  -7.018  0.00  0.00     0.302 C 
BRANCH   5   6
HETATM    6  C           1     -21.855  -3.725  -7.664  0.00  0.00     0.153 C 
HETATM    7  C           1     -21.828  -4.002  -9.161  0.00  0.00     0.042 C 
BRANCH   6   8
HETATM    8  O           1     -22.992  -4.322  -7.099  0.00  0.00    -0.393 OA
HETATM    9  H           1     -22.899  -5.252  -7.215  0.00  0.00     0.210 HD
ENDBRANCH   6   8
ENDBRANCH   5   6
BRANCH   5  10
HETATM   10  N           1     -19.556  -4.523  -8.069  0.00  0.00    -0.064 N 
HETATM   11  H           1     -18.728  -4.997  -7.641  0.00  0.00     0.275 HD
HETATM   12  H           1     -19.265  -3.601  -8.465  0.00  0.00     0.275 HD
HETATM   13  H           1     -19.945  -5.123  -8.831  0.00  0.00     0.275 HD
ENDBRANCH   5  10
ENDBRANCH   2   5
BRANCH   1  14
HETATM   14  C           1     -21.288  -6.982  -4.365  0.00  0.00     0.185 C 
BRANCH  14  15
HETATM   15  C           1     -20.100  -7.926  -4.485  0.00  0.00     0.036 C 
BRANCH  15  16
HETATM   16  C           1     -20.591  -9.316  -4.871  0.00  0.00     0.003 C 
BRANCH  16  17
HETATM   17 Se           1     -19.665 -10.654  -3.799  0.00  0.00     0.000 Se
HETATM   18  C           1     -18.309  -9.422  -3.135  0.00  0.00     0.000 C 
ENDBRANCH  16  17
ENDBRANCH  15  16
ENDBRANCH  14  15
BRANCH  14  19
HETATM   19  C           1     -21.603  -6.751  -2.907  0.00  0.00     0.196 C 
HETATM   20  O           1     -22.505  -5.948  -2.582  0.00  0.00    -0.646 OA
HETATM   21  O           1     -20.962  -7.362  -2.025  0.00  0.00    -0.646 OA
ENDBRANCH  14  19
ENDBRANCH   1  14
TORSDOF 9
ENDMDL
MODEL 5
REMARK VINA RESULT:      -4.7      3.274      4.678
REMARK  9 active torsions:
REMARK  status: ('A' for Active; 'I' for Inactive)
REMARK    1  A    between atoms: N_4  and  C_14 
REMARK       I    between atoms: N_4  and  C_5 
REMARK    2  A    between atoms: C_5  and  C_11 
REMARK    3  A    between atoms: C_6  and  C_9 
REMARK    4  A    between atoms: C_6  and  C_14 
REMARK    5  A    between atoms: C_9  and  Se_10 
REMARK    6  A    between atoms: C_11  and  C_16 
REMARK    7  A    between atoms: C_11  and  N_21 
REMARK    8  A    between atoms: C_12  and  C_14 
REMARK    9  A    between atoms: O_15  and  C_16 
ROOT
HETATM    1  N           1     -20.872  -6.587  -4.018  0.00  0.00    -0.345 N 
HETATM    2  C           1     -20.902  -6.771  -5.375  0.00  0.00     0.251 C 
HETATM    3  H           1     -20.525  -5.719  -3.633  0.00  0.00     0.163 HD
HETATM    4  O           1     -21.317  -7.808  -5.834  0.00  0.00    -0.271 OA
ENDROOT
BRANCH   2   5
HETATM    5  C           1     -20.417  -5.678  -6.295  0.00  0.00     0.302 C 
BRANCH   5   6
HETATM    6  C           1     -21.591  -4.797  -6.702  0.00  0.00     0.153 C 
HETATM    7  C           1     -21.765  -4.851  -8.214  0.00  0.00     0.042 C 
BRANCH   6   8
HETATM    8  O           1     -22.760  -5.261  -6.081  0.00  0.00    -0.393 OA
HETATM    9  H           1     -22.949  -4.665  -5.375  0.00  0.00     0.210 HD
ENDBRANCH   6   8
ENDBRANCH   5   6
BRANCH   5  10
HETATM   10  N           1     -19.804  -6.291  -7.519  0.00  0.00    -0.064 N 
HETATM   11  H           1     -20.149  -5.790  -8.368  0.00  0.00     0.275 HD
HETATM   12  H           1     -20.073  -7.299  -7.574  0.00  0.00     0.275 HD
HETATM   13  H           1     -18.763  -6.211  -7.466  0.00  0.00     0.275 HD
ENDBRANCH   5  10
ENDBRANCH   2   5
BRANCH   1  14
HETATM   14  C           1     -21.338  -7.637  -3.134  0.00  0.00     0.185 C 
BRANCH  14  15
HETATM   15  C           1     -20.158  -8.495  -2.698  0.00  0.00     0.036 C 
BRANCH  15  16
HETATM   16  C           1     -20.388  -9.937  -3.133  0.00  0.00     0.003 C 
BRANCH  16  17
HETATM   17 Se           1     -20.890 -11.011  -1.587  0.00  0.00     0.000 Se
HETATM   18  C           1     -22.805 -10.913  -1.935  0.00  0.00     0.000 C 
ENDBRANCH  16  17
ENDBRANCH  15  16
ENDBRANCH  14  15
BRANCH  14  19
HETATM   19  C           1     -21.989  -7.021  -1.920  0.00  0.00     0.196 C 
HETATM   20  O           1     -22.587  -5.927  -2.020  0.00  0.00    -0.646 OA
HETATM   21  O           1     -21.930  -7.603  -0.816  0.00  0.00    -0.646 OA
ENDBRANCH  14  19
ENDBRANCH   1  14
TORSDOF 9
ENDMDL
MODEL 6
REMARK VINA RESULT:      -4.7      6.299      9.699
REMARK  9 active torsions:
REMARK  status: ('A' for Active; 'I' for Inactive)
REMARK    1  A    between atoms: N_4  and  C_14 
REMARK       I    between atoms: N_4  and  C_5 
REMARK    2  A    between atoms: C_5  and  C_11 
REMARK    3  A    between atoms: C_6  and  C_9 
REMARK    4  A    between atoms: C_6  and  C_14 
REMARK    5  A    between atoms: C_9  and  Se_10 
REMARK    6  A    between atoms: C_11  and  C_16 
REMARK    7  A    between atoms: C_11  and  N_21 
REMARK    8  A    between atoms: C_12  and  C_14 
REMARK    9  A    between atoms: O_15  and  C_16 
ROOT
HETATM    1  N           1     -21.607  -9.814  -0.981  0.00  0.00    -0.345 N 
HETATM    2  C           1     -21.394 -10.781  -0.036  0.00  0.00     0.251 C 
HETATM    3  H           1     -22.014 -10.059  -1.874  0.00  0.00     0.163 HD
HETATM    4  O           1     -20.908 -10.488   1.030  0.00  0.00    -0.271 OA
ENDROOT
BRANCH   2   5
HETATM    5  C           1     -21.765 -12.214  -0.327  0.00  0.00     0.302 C 
BRANCH   5   6
HETATM    6  C           1     -23.221 -12.450   0.053  0.00  0.00     0.153 C 
HETATM    7  C           1     -23.284 -13.261   1.341  0.00  0.00     0.042 C 
BRANCH   6   8
HETATM    8  O           1     -23.859 -11.216   0.248  0.00  0.00    -0.393 OA
HETATM    9  H           1     -23.433 -10.595  -0.318  0.00  0.00     0.210 HD
ENDBRANCH   6   8
ENDBRANCH   5   6
BRANCH   5  10
HETATM   10  N           1     -20.886 -13.131   0.471  0.00  0.00    -0.064 N 
HETATM   11  H           1     -20.110 -13.482  -0.134  0.00  0.00     0.275 HD
HETATM   12  H           1     -21.452 -13.938   0.819  0.00  0.00     0.275 HD
HETATM   13  H           1     -20.486 -12.610   1.284  0.00  0.00     0.275 HD
ENDBRANCH   5  10
ENDBRANCH   2   5
BRANCH   1  14
HETATM   14  C           1     -21.250  -8.436  -0.701  0.00  0.00     0.185 C 
BRANCH  14  15
HETATM   15  C           1     -20.585  -7.826  -1.927  0.00  0.00     0.036 C 
BRANCH  15  16
HETATM   16  C           1     -20.585  -8.840  -3.064  0.00  0.00     0.003 C 
BRANCH  16  17
HETATM   17 Se           1     -21.471  -8.073  -4.621  0.00  0.00     0.000 Se
HETATM   18  C           1     -21.291  -6.228  -4.019  0.00  0.00     0.000 C 
ENDBRANCH  16  17
ENDBRANCH  15  16
ENDBRANCH  14  15
BRANCH  14  19
HETATM   19  C           1     -22.494  -7.654  -0.360  0.00  0.00     0.196 C 
HETATM   20  O           1     -23.298  -8.098   0.489  0.00  0.00    -0.646 OA
HETATM   21  O           1     -22.721  -6.563  -0.926  0.00  0.00    -0.646 OA
ENDBRANCH  14  19
ENDBRANCH   1  14
TORSDOF 9
ENDMDL
MODEL 7
REMARK VINA RESULT:      -4.6      4.356      6.574
REMARK  9 active torsions:
REMARK  status: ('A' for Active; 'I' for Inactive)
REMARK    1  A    between atoms: N_4  and  C_14 
REMARK       I    between atoms: N_4  and  C_5 
REMARK    2  A    between atoms: C_5  and  C_11 
REMARK    3  A    between atoms: C_6  and  C_9 
REMARK    4  A    between atoms: C_6  and  C_14 
REMARK    5  A    between atoms: C_9  and  Se_10 
REMARK    6  A    between atoms: C_11  and  C_16 
REMARK    7  A    between atoms: C_11  and  N_21 
REMARK    8  A    between atoms: C_12  and  C_14 
REMARK    9  A    between atoms: O_15  and  C_16 
ROOT
HETATM    1  N           1     -20.990  -8.191  -2.176  0.00  0.00    -0.345 N 
HETATM    2  C           1     -21.178  -8.398  -3.516  0.00  0.00     0.251 C 
HETATM    3  H           1     -20.275  -7.550  -1.858  0.00  0.00     0.163 HD
HETATM    4  O           1     -22.031  -9.163  -3.896  0.00  0.00    -0.271 OA
ENDROOT
BRANCH   2   5
HETATM    5  C           1     -20.316  -7.670  -4.519  0.00  0.00     0.302 C 
BRANCH   5   6
HETATM    6  C           1     -20.878  -6.274  -4.754  0.00  0.00     0.153 C 
HETATM    7  C           1     -21.304  -6.137  -6.210  0.00  0.00     0.042 C 
BRANCH   6   8
HETATM    8  O           1     -21.989  -6.071  -3.922  0.00  0.00    -0.393 OA
HETATM    9  H           1     -22.311  -5.204  -4.102  0.00  0.00     0.210 HD
ENDBRANCH   6   8
ENDBRANCH   5   6
BRANCH   5  10
HETATM   10  N           1     -20.307  -8.429  -5.813  0.00  0.00    -0.064 N 
HETATM   11  H           1     -21.285  -8.522  -6.169  0.00  0.00     0.275 HD
HETATM   12  H           1     -19.899  -9.378  -5.656  0.00  0.00     0.275 HD
HETATM   13  H           1     -19.729  -7.914  -6.515  0.00  0.00     0.275 HD
ENDBRANCH   5  10
ENDBRANCH   2   5
BRANCH   1  14
HETATM   14  C           1     -21.818  -8.890  -1.212  0.00  0.00     0.185 C 
BRANCH  14  15
HETATM   15  C           1     -20.929  -9.660  -0.245  0.00  0.00     0.036 C 
BRANCH  15  16
HETATM   16  C           1     -20.921 -11.135  -0.625  0.00  0.00     0.003 C 
BRANCH  16  17
HETATM   17 Se           1     -22.634 -11.612  -1.422  0.00  0.00     0.000 Se
HETATM   18  C           1     -23.505 -11.991   0.279  0.00  0.00     0.000 C 
ENDBRANCH  16  17
ENDBRANCH  15  16
ENDBRANCH  14  15
BRANCH  14  19
HETATM   19  C           1     -22.651  -7.892  -0.446  0.00  0.00     0.196 C 
HETATM   20  O           1     -22.719  -6.706  -0.836  0.00  0.00    -0.646 OA
HETATM   21  O           1     -23.272  -8.250   0.577  0.00  0.00    -0.646 OA
ENDBRANCH  14  19
ENDBRANCH   1  14
TORSDOF 9
ENDMDL
MODEL 8
REMARK VINA RESULT:      -4.6      1.692      2.024
REMARK  9 active torsions:
REMARK  status: ('A' for Active; 'I' for Inactive)
REMARK    1  A    between atoms: N_4  and  C_14 
REMARK       I    between atoms: N_4  and  C_5 
REMARK    2  A    between atoms: C_5  and  C_11 
REMARK    3  A    between atoms: C_6  and  C_9 
REMARK    4  A    between atoms: C_6  and  C_14 
REMARK    5  A    between atoms: C_9  and  Se_10 
REMARK    6  A    between atoms: C_11  and  C_16 
REMARK    7  A    between atoms: C_11  and  N_21 
REMARK    8  A    between atoms: C_12  and  C_14 
REMARK    9  A    between atoms: O_15  and  C_16 
ROOT
HETATM    1  N           1     -21.803  -5.152  -7.736  0.00  0.00    -0.345 N 
HETATM    2  C           1     -21.847  -3.850  -8.159  0.00  0.00     0.251 C 
HETATM    3  H           1     -22.087  -5.896  -8.359  0.00  0.00     0.163 HD
HETATM    4  O           1     -21.509  -2.961  -7.415  0.00  0.00    -0.271 OA
ENDROOT
BRANCH   2   5
HETATM    5  C           1     -22.321  -3.527  -9.555  0.00  0.00     0.302 C 
BRANCH   5   6
HETATM    6  C           1     -23.827  -3.739  -9.642  0.00  0.00     0.153 C 
HETATM    7  C           1     -24.116  -5.000 -10.445  0.00  0.00     0.042 C 
BRANCH   6   8
HETATM    8  O           1     -24.355  -3.877  -8.350  0.00  0.00    -0.393 OA
HETATM    9  H           1     -25.248  -4.162  -8.449  0.00  0.00     0.210 HD
ENDBRANCH   6   8
ENDBRANCH   5   6
BRANCH   5  10
HETATM   10  N           1     -21.633  -4.427 -10.538  0.00  0.00    -0.064 N 
HETATM   11  H           1     -22.349  -4.953 -11.088  0.00  0.00     0.275 HD
HETATM   12  H           1     -21.023  -5.101 -10.022  0.00  0.00     0.275 HD
HETATM   13  H           1     -21.047  -3.853 -11.186  0.00  0.00     0.275 HD
ENDBRANCH   5  10
ENDBRANCH   2   5
BRANCH   1  14
HETATM   14  C           1     -21.347  -5.462  -6.395  0.00  0.00     0.185 C 
BRANCH  14  15
HETATM   15  C           1     -22.029  -6.734  -5.910  0.00  0.00     0.036 C 
BRANCH  15  16
HETATM   16  C           1     -21.745  -6.929  -4.426  0.00  0.00     0.003 C 
BRANCH  16  17
HETATM   17 Se           1     -21.533  -8.829  -4.048  0.00  0.00     0.000 Se
HETATM   18  C           1     -19.584  -8.782  -4.066  0.00  0.00     0.000 C 
ENDBRANCH  16  17
ENDBRANCH  15  16
ENDBRANCH  14  15
BRANCH  14  19
HETATM   19  C           1     -19.852  -5.665  -6.406  0.00  0.00     0.196 C 
HETATM   20  O           1     -19.369  -6.725  -6.859  0.00  0.00    -0.646 OA
HETATM   21  O           1     -19.097  -4.773  -5.962  0.00  0.00    -0.646 OA
ENDBRANCH  14  19
ENDBRANCH   1  14
TORSDOF 9
ENDMDL
MODEL 9
REMARK VINA RESULT:      -4.5      4.861      7.945
REMARK  9 active torsions:
REMARK  status: ('A' for Active; 'I' for Inactive)
REMARK    1  A    between atoms: N_4  and  C_14 
REMARK       I    between atoms: N_4  and  C_5 
REMARK    2  A    between atoms: C_5  and  C_11 
REMARK    3  A    between atoms: C_6  and  C_9 
REMARK    4  A    between atoms: C_6  and  C_14 
REMARK    5  A    between atoms: C_9  and  Se_10 
REMARK    6  A    between atoms: C_11  and  C_16 
REMARK    7  A    between atoms: C_11  and  N_21 
REMARK    8  A    between atoms: C_12  and  C_14 
REMARK    9  A    between atoms: O_15  and  C_16 
ROOT
HETATM    1  N           1     -21.653  -8.570  -2.958  0.00  0.00    -0.345 N 
HETATM    2  C           1     -20.934  -8.779  -1.812  0.00  0.00     0.251 C 
HETATM    3  H           1     -22.563  -8.998  -3.070  0.00  0.00     0.163 HD
HETATM    4  O           1     -19.848  -8.268  -1.679  0.00  0.00    -0.271 OA
ENDROOT
BRANCH   2   5
HETATM    5  C           1     -21.498  -9.650  -0.717  0.00  0.00     0.302 C 
BRANCH   5   6
HETATM    6  C           1     -22.140  -8.774   0.350  0.00  0.00     0.153 C 
HETATM    7  C           1     -21.171  -8.596   1.512  0.00  0.00     0.042 C 
BRANCH   6   8
HETATM    8  O           1     -22.447  -7.519  -0.197  0.00  0.00    -0.393 OA
HETATM    9  H           1     -21.629  -7.123  -0.447  0.00  0.00     0.210 HD
ENDBRANCH   6   8
ENDBRANCH   5   6
BRANCH   5  10
HETATM   10  N           1     -20.394 -10.458  -0.101  0.00  0.00    -0.064 N 
HETATM   11  H           1     -20.784 -11.060   0.657  0.00  0.00     0.275 HD
HETATM   12  H           1     -19.674  -9.813   0.298  0.00  0.00     0.275 HD
HETATM   13  H           1     -19.953 -11.060  -0.833  0.00  0.00     0.275 HD
ENDBRANCH   5  10
ENDBRANCH   2   5
BRANCH   1  14
HETATM   14  C           1     -21.111  -7.732  -4.011  0.00  0.00     0.185 C 
BRANCH  14  15
HETATM   15  C           1     -21.299  -8.423  -5.355  0.00  0.00     0.036 C 
BRANCH  15  16
HETATM   16  C           1     -20.698  -9.821  -5.297  0.00  0.00     0.003 C 
BRANCH  16  17
HETATM   17 Se           1     -18.770  -9.691  -5.046  0.00  0.00     0.000 Se
HETATM   18  C           1     -18.693 -11.055  -3.656  0.00  0.00     0.000 C 
ENDBRANCH  16  17
ENDBRANCH  15  16
ENDBRANCH  14  15
BRANCH  14  19
HETATM   19  C           1     -21.832  -6.406  -4.020  0.00  0.00     0.196 C 
HETATM   20  O           1     -22.354  -5.972  -2.970  0.00  0.00    -0.646 OA
HETATM   21  O           1     -21.907  -5.743  -5.077  0.00  0.00    -0.646 OA
ENDBRANCH  14  19
ENDBRANCH   1  14
TORSDOF 9
ENDMDL
