MODEL 1
REMARK VINA RESULT:      -7.8      0.000      0.000
REMARK  14 active torsions:
REMARK  status: ('A' for Active; 'I' for Inactive)
REMARK    1  A    between atoms: N_5  and  C_18 
REMARK    2  A    between atoms: O_10  and  P_11 
REMARK    3  A    between atoms: P_11  and  O_12 
REMARK    4  A    between atoms: O_12  and  C_13 
REMARK    5  A    between atoms: C_16  and  C_17 
REMARK    6  A    between atoms: C_17  and  C_18 
REMARK    7  A    between atoms: C_18  and  C_19 
REMARK       I    between atoms: C_19  and  N_20 
REMARK    8  A    between atoms: N_20  and  C_24 
REMARK    9  A    between atoms: C_23  and  C_24 
REMARK   10  A    between atoms: C_24  and  C_25 
REMARK   11  A    between atoms: C_25  and  C_26 
REMARK   12  A    between atoms: C_26  and  C_27 
REMARK   13  A    between atoms: C_27  and  C_28 
REMARK   14  A    between atoms: C_28  and  N_29 
ROOT
HETATM    1  C           1     -33.633  -4.805 -15.490  0.00  0.00     0.278 C 
ENDROOT
BRANCH   1   2
HETATM    2  N           1     -34.713  -5.678 -16.057  0.00  0.00    -0.066 N 
HETATM    3  H           1     -34.405  -6.059 -16.979  0.00  0.00     0.275 HD
HETATM    4  H           1     -34.902  -6.468 -15.400  0.00  0.00     0.275 HD
HETATM    5  H           1     -35.583  -5.115 -16.187  0.00  0.00     0.275 HD
ENDBRANCH   1   2
BRANCH   1   6
HETATM    6  C           1     -33.067  -3.919 -16.590  0.00  0.00     0.081 C 
BRANCH   6   7
HETATM    7  C           1     -31.754  -4.473 -17.051  0.00  0.00    -0.056 A 
HETATM    8  C           1     -30.791  -3.622 -17.594  0.00  0.00     0.010 A 
HETATM    9  C           1     -29.568  -4.138 -18.023  0.00  0.00     0.038 A 
HETATM   10  C           1     -29.308  -5.503 -17.909  0.00  0.00     0.081 A 
HETATM   11  C           1     -30.271  -6.354 -17.366  0.00  0.00     0.038 A 
HETATM   12  C           1     -31.495  -5.838 -16.937  0.00  0.00     0.010 A 
BRANCH  10  13
HETATM   13  O           1     -28.120  -6.005 -18.326  0.00  0.00    -0.247 OA
BRANCH  13  14
HETATM   14  P           1     -26.935  -6.149 -17.239  0.00  0.00     0.411 P 
HETATM   15  O           1     -26.836  -4.900 -16.450  0.00  0.00    -0.624 OA
HETATM   16  O           1     -25.654  -6.396 -17.937  0.00  0.00    -0.624 OA
BRANCH  14  17
HETATM   17  O           1     -27.257  -7.385 -16.251  0.00  0.00    -0.300 OA
HETATM   18  H           1     -26.677  -7.268 -15.517  0.00  0.00     0.223 HD
ENDBRANCH  14  17
ENDBRANCH  13  14
ENDBRANCH  10  13
ENDBRANCH   6   7
ENDBRANCH   1   6
BRANCH   1  19
HETATM   19  C           1     -34.210  -3.941 -14.394  0.00  0.00     0.249 C 
HETATM   20  O           1     -34.706  -2.873 -14.666  0.00  0.00    -0.271 OA
HETATM   21  N           1     -34.172  -4.367 -13.094  0.00  0.00    -0.345 N 
HETATM   22  H           1     -33.757  -5.262 -12.867  0.00  0.00     0.163 HD
BRANCH  21  23
HETATM   23  C           1     -34.727  -3.538 -12.043  0.00  0.00     0.185 C 
BRANCH  23  24
HETATM   24  C           1     -33.638  -2.673 -11.458  0.00  0.00     0.196 C 
HETATM   25  O           1     -33.891  -1.499 -11.110  0.00  0.00    -0.646 OA
HETATM   26  O           1     -32.482  -3.130 -11.319  0.00  0.00    -0.646 OA
ENDBRANCH  23  24
BRANCH  23  27
HETATM   27  C           1     -35.311  -4.424 -10.951  0.00  0.00     0.036 C 
BRANCH  27  28
HETATM   28  C           1     -35.039  -5.885 -11.281  0.00  0.00     0.004 C 
BRANCH  28  29
HETATM   29  C           1     -34.234  -6.520 -10.154  0.00  0.00     0.027 C 
BRANCH  29  30
HETATM   30  C           1     -34.694  -7.958  -9.949  0.00  0.00     0.229 C 
BRANCH  30  31
HETATM   31  N           1     -33.552  -8.891 -10.220  0.00  0.00    -0.079 N 
HETATM   32  H           1     -33.497  -9.606  -9.459  0.00  0.00     0.274 HD
HETATM   33  H           1     -32.659  -8.349 -10.254  0.00  0.00     0.274 HD
HETATM   34  H           1     -33.702  -9.370 -11.136  0.00  0.00     0.274 HD
ENDBRANCH  30  31
ENDBRANCH  29  30
ENDBRANCH  28  29
ENDBRANCH  27  28
ENDBRANCH  23  27
ENDBRANCH  21  23
ENDBRANCH   1  19
TORSDOF 14
ENDMDL
MODEL 2
REMARK VINA RESULT:      -7.1     13.690     15.174
REMARK  14 active torsions:
REMARK  status: ('A' for Active; 'I' for Inactive)
REMARK    1  A    between atoms: N_5  and  C_18 
REMARK    2  A    between atoms: O_10  and  P_11 
REMARK    3  A    between atoms: P_11  and  O_12 
REMARK    4  A    between atoms: O_12  and  C_13 
REMARK    5  A    between atoms: C_16  and  C_17 
REMARK    6  A    between atoms: C_17  and  C_18 
REMARK    7  A    between atoms: C_18  and  C_19 
REMARK       I    between atoms: C_19  and  N_20 
REMARK    8  A    between atoms: N_20  and  C_24 
REMARK    9  A    between atoms: C_23  and  C_24 
REMARK   10  A    between atoms: C_24  and  C_25 
REMARK   11  A    between atoms: C_25  and  C_26 
REMARK   12  A    between atoms: C_26  and  C_27 
REMARK   13  A    between atoms: C_27  and  C_28 
REMARK   14  A    between atoms: C_28  and  N_29 
ROOT
HETATM    1  C           1     -21.489  -6.506  -4.866  0.00  0.00     0.278 C 
ENDROOT
BRANCH   1   2
HETATM    2  N           1     -21.913  -5.983  -3.525  0.00  0.00    -0.066 N 
HETATM    3  H           1     -22.873  -6.330  -3.303  0.00  0.00     0.275 HD
HETATM    4  H           1     -21.245  -6.317  -2.795  0.00  0.00     0.275 HD
HETATM    5  H           1     -21.916  -4.939  -3.544  0.00  0.00     0.275 HD
ENDBRANCH   1   2
BRANCH   1   6
HETATM    6  C           1     -20.462  -5.563  -5.476  0.00  0.00     0.081 C 
BRANCH   6   7
HETATM    7  C           1     -20.968  -5.055  -6.791  0.00  0.00    -0.056 A 
HETATM    8  C           1     -22.241  -4.490  -6.876  0.00  0.00     0.010 A 
HETATM    9  C           1     -22.712  -4.017  -8.100  0.00  0.00     0.038 A 
HETATM   10  C           1     -21.911  -4.107  -9.239  0.00  0.00     0.081 A 
HETATM   11  C           1     -20.639  -4.672  -9.153  0.00  0.00     0.038 A 
HETATM   12  C           1     -20.167  -5.146  -7.928  0.00  0.00     0.010 A 
BRANCH  10  13
HETATM   13  O           1     -22.369  -3.648 -10.429  0.00  0.00    -0.247 OA
BRANCH  13  14
HETATM   14  P           1     -23.708  -4.318 -11.036  0.00  0.00     0.411 P 
HETATM   15  O           1     -24.837  -3.370 -10.901  0.00  0.00    -0.624 OA
HETATM   16  O           1     -24.014  -5.561 -10.295  0.00  0.00    -0.624 OA
BRANCH  14  17
HETATM   17  O           1     -23.478  -4.662 -12.596  0.00  0.00    -0.300 OA
HETATM   18  H           1     -22.719  -4.163 -12.847  0.00  0.00     0.223 HD
ENDBRANCH  14  17
ENDBRANCH  13  14
ENDBRANCH  10  13
ENDBRANCH   6   7
ENDBRANCH   1   6
BRANCH   1  19
HETATM   19  C           1     -20.880  -7.877  -4.701  0.00  0.00     0.249 C 
HETATM   20  O           1     -20.879  -8.652  -5.628  0.00  0.00    -0.271 OA
HETATM   21  N           1     -20.331  -8.243  -3.502  0.00  0.00    -0.345 N 
HETATM   22  H           1     -20.332  -7.594  -2.726  0.00  0.00     0.163 HD
BRANCH  21  23
HETATM   23  C           1     -19.746  -9.560  -3.345  0.00  0.00     0.185 C 
BRANCH  23  24
HETATM   24  C           1     -20.302 -10.212  -2.103  0.00  0.00     0.196 C 
HETATM   25  O           1     -21.496 -10.027  -1.781  0.00  0.00    -0.646 OA
HETATM   26  O           1     -19.569 -10.938  -1.396  0.00  0.00    -0.646 OA
ENDBRANCH  23  24
BRANCH  23  27
HETATM   27  C           1     -18.234  -9.433  -3.216  0.00  0.00     0.036 C 
BRANCH  27  28
HETATM   28  C           1     -17.558 -10.420  -4.158  0.00  0.00     0.004 C 
BRANCH  28  29
HETATM   29  C           1     -17.612  -9.881  -5.583  0.00  0.00     0.027 C 
BRANCH  29  30
HETATM   30  C           1     -17.996 -11.006  -6.536  0.00  0.00     0.229 C 
BRANCH  30  31
HETATM   31  N           1     -19.484 -11.192  -6.517  0.00  0.00    -0.079 N 
HETATM   32  H           1     -19.707 -12.203  -6.373  0.00  0.00     0.274 HD
HETATM   33  H           1     -19.887 -10.872  -7.425  0.00  0.00     0.274 HD
HETATM   34  H           1     -19.895 -10.632  -5.737  0.00  0.00     0.274 HD
ENDBRANCH  30  31
ENDBRANCH  29  30
ENDBRANCH  28  29
ENDBRANCH  27  28
ENDBRANCH  23  27
ENDBRANCH  21  23
ENDBRANCH   1  19
TORSDOF 14
ENDMDL
MODEL 3
REMARK VINA RESULT:      -7.1     13.041     14.611
REMARK  14 active torsions:
REMARK  status: ('A' for Active; 'I' for Inactive)
REMARK    1  A    between atoms: N_5  and  C_18 
REMARK    2  A    between atoms: O_10  and  P_11 
REMARK    3  A    between atoms: P_11  and  O_12 
REMARK    4  A    between atoms: O_12  and  C_13 
REMARK    5  A    between atoms: C_16  and  C_17 
REMARK    6  A    between atoms: C_17  and  C_18 
REMARK    7  A    between atoms: C_18  and  C_19 
REMARK       I    between atoms: C_19  and  N_20 
REMARK    8  A    between atoms: N_20  and  C_24 
REMARK    9  A    between atoms: C_23  and  C_24 
REMARK   10  A    between atoms: C_24  and  C_25 
REMARK   11  A    between atoms: C_25  and  C_26 
REMARK   12  A    between atoms: C_26  and  C_27 
REMARK   13  A    between atoms: C_27  and  C_28 
REMARK   14  A    between atoms: C_28  and  N_29 
ROOT
HETATM    1  C           1     -21.543  -6.435  -4.881  0.00  0.00     0.278 C 
ENDROOT
BRANCH   1   2
HETATM    2  N           1     -21.828  -5.949  -3.491  0.00  0.00    -0.066 N 
HETATM    3  H           1     -21.762  -4.907  -3.466  0.00  0.00     0.275 HD
HETATM    4  H           1     -22.789  -6.244  -3.209  0.00  0.00     0.275 HD
HETATM    5  H           1     -21.129  -6.358  -2.830  0.00  0.00     0.275 HD
ENDBRANCH   1   2
BRANCH   1   6
HETATM    6  C           1     -20.480  -5.552  -5.520  0.00  0.00     0.081 C 
BRANCH   6   7
HETATM    7  C           1     -20.974  -5.050  -6.841  0.00  0.00    -0.056 A 
HETATM    8  C           1     -20.156  -5.129  -7.968  0.00  0.00     0.010 A 
HETATM    9  C           1     -20.617  -4.661  -9.198  0.00  0.00     0.038 A 
HETATM   10  C           1     -21.896  -4.116  -9.302  0.00  0.00     0.081 A 
HETATM   11  C           1     -22.715  -4.037  -8.175  0.00  0.00     0.038 A 
HETATM   12  C           1     -22.253  -4.505  -6.944  0.00  0.00     0.010 A 
BRANCH  10  13
HETATM   13  O           1     -22.344  -3.661 -10.498  0.00  0.00    -0.247 OA
BRANCH  13  14
HETATM   14  P           1     -23.690  -4.319 -11.102  0.00  0.00     0.411 P 
HETATM   15  O           1     -24.810  -3.360 -10.970  0.00  0.00    -0.624 OA
HETATM   16  O           1     -24.009  -5.558 -10.359  0.00  0.00    -0.624 OA
BRANCH  14  17
HETATM   17  O           1     -23.463  -4.671 -12.662  0.00  0.00    -0.300 OA
HETATM   18  H           1     -23.255  -5.590 -12.677  0.00  0.00     0.223 HD
ENDBRANCH  14  17
ENDBRANCH  13  14
ENDBRANCH  10  13
ENDBRANCH   6   7
ENDBRANCH   1   6
BRANCH   1  19
HETATM   19  C           1     -21.047  -7.860  -4.823  0.00  0.00     0.249 C 
HETATM   20  O           1     -20.393  -8.309  -5.735  0.00  0.00    -0.271 OA
HETATM   21  N           1     -21.338  -8.643  -3.738  0.00  0.00    -0.345 N 
HETATM   22  H           1     -21.885  -8.266  -2.975  0.00  0.00     0.163 HD
BRANCH  21  23
HETATM   23  C           1     -20.861 -10.010  -3.683  0.00  0.00     0.185 C 
BRANCH  23  24
HETATM   24  C           1     -22.015 -10.955  -3.913  0.00  0.00     0.196 C 
HETATM   25  O           1     -23.059 -10.844  -3.234  0.00  0.00    -0.646 OA
HETATM   26  O           1     -21.928 -11.848  -4.784  0.00  0.00    -0.646 OA
ENDBRANCH  23  24
BRANCH  23  27
HETATM   27  C           1     -20.250 -10.281  -2.315  0.00  0.00     0.036 C 
BRANCH  27  28
HETATM   28  C           1     -20.528  -9.103  -1.391  0.00  0.00     0.004 C 
BRANCH  28  29
HETATM   29  C           1     -21.449  -9.548  -0.262  0.00  0.00     0.027 C 
BRANCH  29  30
HETATM   30  C           1     -21.878  -8.333   0.551  0.00  0.00     0.229 C 
BRANCH  30  31
HETATM   31  N           1     -22.622  -7.378  -0.334  0.00  0.00    -0.079 N 
HETATM   32  H           1     -23.428  -7.871  -0.780  0.00  0.00     0.274 HD
HETATM   33  H           1     -21.980  -7.017  -1.075  0.00  0.00     0.274 HD
HETATM   34  H           1     -22.977  -6.578   0.237  0.00  0.00     0.274 HD
ENDBRANCH  30  31
ENDBRANCH  29  30
ENDBRANCH  28  29
ENDBRANCH  27  28
ENDBRANCH  23  27
ENDBRANCH  21  23
ENDBRANCH   1  19
TORSDOF 14
ENDMDL
MODEL 4
REMARK VINA RESULT:      -6.9     12.967     14.286
REMARK  14 active torsions:
REMARK  status: ('A' for Active; 'I' for Inactive)
REMARK    1  A    between atoms: N_5  and  C_18 
REMARK    2  A    between atoms: O_10  and  P_11 
REMARK    3  A    between atoms: P_11  and  O_12 
REMARK    4  A    between atoms: O_12  and  C_13 
REMARK    5  A    between atoms: C_16  and  C_17 
REMARK    6  A    between atoms: C_17  and  C_18 
REMARK    7  A    between atoms: C_18  and  C_19 
REMARK       I    between atoms: C_19  and  N_20 
REMARK    8  A    between atoms: N_20  and  C_24 
REMARK    9  A    between atoms: C_23  and  C_24 
REMARK   10  A    between atoms: C_24  and  C_25 
REMARK   11  A    between atoms: C_25  and  C_26 
REMARK   12  A    between atoms: C_26  and  C_27 
REMARK   13  A    between atoms: C_27  and  C_28 
REMARK   14  A    between atoms: C_28  and  N_29 
ROOT
HETATM    1  C           1     -20.224  -6.534  -5.423  0.00  0.00     0.278 C 
ENDROOT
BRANCH   1   2
HETATM    2  N           1     -20.510  -7.112  -6.778  0.00  0.00    -0.066 N 
HETATM    3  H           1     -20.142  -8.088  -6.826  0.00  0.00     0.275 HD
HETATM    4  H           1     -21.541  -7.120  -6.942  0.00  0.00     0.275 HD
HETATM    5  H           1     -20.044  -6.529  -7.510  0.00  0.00     0.275 HD
ENDBRANCH   1   2
BRANCH   1   6
HETATM    6  C           1     -20.474  -5.033  -5.448  0.00  0.00     0.081 C 
BRANCH   6   7
HETATM    7  C           1     -20.995  -4.635  -6.795  0.00  0.00    -0.056 A 
HETATM    8  C           1     -22.363  -4.440  -6.983  0.00  0.00     0.010 A 
HETATM    9  C           1     -22.848  -4.070  -8.237  0.00  0.00     0.038 A 
HETATM   10  C           1     -21.965  -3.893  -9.302  0.00  0.00     0.081 A 
HETATM   11  C           1     -20.597  -4.087  -9.114  0.00  0.00     0.038 A 
HETATM   12  C           1     -20.112  -4.459  -7.859  0.00  0.00     0.010 A 
BRANCH  10  13
HETATM   13  O           1     -22.436  -3.533 -10.521  0.00  0.00    -0.247 OA
BRANCH  13  14
HETATM   14  P           1     -23.745  -4.294 -11.083  0.00  0.00     0.411 P 
HETATM   15  O           1     -24.922  -3.403 -10.964  0.00  0.00    -0.624 OA
HETATM   16  O           1     -23.975  -5.525 -10.294  0.00  0.00    -0.624 OA
BRANCH  14  17
HETATM   17  O           1     -23.519  -4.682 -12.633  0.00  0.00    -0.300 OA
HETATM   18  H           1     -22.762  -5.244 -12.636  0.00  0.00     0.223 HD
ENDBRANCH  14  17
ENDBRANCH  13  14
ENDBRANCH  10  13
ENDBRANCH   6   7
ENDBRANCH   1   6
BRANCH   1  19
HETATM   19  C           1     -21.128  -7.180  -4.401  0.00  0.00     0.249 C 
HETATM   20  O           1     -22.199  -7.625  -4.739  0.00  0.00    -0.271 OA
HETATM   21  N           1     -20.735  -7.261  -3.093  0.00  0.00    -0.345 N 
HETATM   22  H           1     -19.837  -6.888  -2.810  0.00  0.00     0.163 HD
BRANCH  21  23
HETATM   23  C           1     -21.603  -7.881  -2.112  0.00  0.00     0.185 C 
BRANCH  23  24
HETATM   24  C           1     -22.327  -6.811  -1.333  0.00  0.00     0.196 C 
HETATM   25  O           1     -22.998  -7.118  -0.324  0.00  0.00    -0.646 OA
HETATM   26  O           1     -22.255  -5.616  -1.696  0.00  0.00    -0.646 OA
ENDBRANCH  23  24
BRANCH  23  27
HETATM   27  C           1     -20.770  -8.727  -1.158  0.00  0.00     0.036 C 
BRANCH  27  28
HETATM   28  C           1     -20.882 -10.194  -1.548  0.00  0.00     0.004 C 
BRANCH  28  29
HETATM   29  C           1     -22.259 -10.458  -2.146  0.00  0.00     0.027 C 
BRANCH  29  30
HETATM   30  C           1     -22.128 -11.434  -3.308  0.00  0.00     0.229 C 
BRANCH  30  31
HETATM   31  N           1     -21.708 -10.690  -4.541  0.00  0.00    -0.079 N 
HETATM   32  H           1     -22.310  -9.843  -4.659  0.00  0.00     0.274 HD
HETATM   33  H           1     -21.813 -11.310  -5.375  0.00  0.00     0.274 HD
HETATM   34  H           1     -20.710 -10.397  -4.448  0.00  0.00     0.274 HD
ENDBRANCH  30  31
ENDBRANCH  29  30
ENDBRANCH  28  29
ENDBRANCH  27  28
ENDBRANCH  23  27
ENDBRANCH  21  23
ENDBRANCH   1  19
TORSDOF 14
ENDMDL
MODEL 5
REMARK VINA RESULT:      -6.6     13.751     15.427
REMARK  14 active torsions:
REMARK  status: ('A' for Active; 'I' for Inactive)
REMARK    1  A    between atoms: N_5  and  C_18 
REMARK    2  A    between atoms: O_10  and  P_11 
REMARK    3  A    between atoms: P_11  and  O_12 
REMARK    4  A    between atoms: O_12  and  C_13 
REMARK    5  A    between atoms: C_16  and  C_17 
REMARK    6  A    between atoms: C_17  and  C_18 
REMARK    7  A    between atoms: C_18  and  C_19 
REMARK       I    between atoms: C_19  and  N_20 
REMARK    8  A    between atoms: N_20  and  C_24 
REMARK    9  A    between atoms: C_23  and  C_24 
REMARK   10  A    between atoms: C_24  and  C_25 
REMARK   11  A    between atoms: C_25  and  C_26 
REMARK   12  A    between atoms: C_26  and  C_27 
REMARK   13  A    between atoms: C_27  and  C_28 
REMARK   14  A    between atoms: C_28  and  N_29 
ROOT
HETATM    1  C           1     -20.653  -7.750  -4.571  0.00  0.00     0.278 C 
ENDROOT
BRANCH   1   2
HETATM    2  N           1     -21.129  -8.586  -5.722  0.00  0.00    -0.066 N 
HETATM    3  H           1     -20.677  -8.255  -6.604  0.00  0.00     0.275 HD
HETATM    4  H           1     -20.875  -9.585  -5.555  0.00  0.00     0.275 HD
HETATM    5  H           1     -22.167  -8.499  -5.809  0.00  0.00     0.275 HD
ENDBRANCH   1   2
BRANCH   1   6
HETATM    6  C           1     -21.512  -6.497  -4.465  0.00  0.00     0.081 C 
BRANCH   6   7
HETATM    7  C           1     -21.321  -5.655  -5.688  0.00  0.00    -0.056 A 
HETATM    8  C           1     -22.427  -5.245  -6.432  0.00  0.00     0.010 A 
HETATM    9  C           1     -22.249  -4.460  -7.571  0.00  0.00     0.038 A 
HETATM   10  C           1     -20.965  -4.086  -7.967  0.00  0.00     0.081 A 
HETATM   11  C           1     -19.859  -4.496  -7.224  0.00  0.00     0.038 A 
HETATM   12  C           1     -20.037  -5.282  -6.083  0.00  0.00     0.010 A 
BRANCH  10  13
HETATM   13  O           1     -20.792  -3.324  -9.074  0.00  0.00    -0.247 OA
BRANCH  13  14
HETATM   14  P           1     -20.767  -4.066 -10.508  0.00  0.00     0.411 P 
HETATM   15  O           1     -22.110  -4.616 -10.801  0.00  0.00    -0.624 OA
HETATM   16  O           1     -19.778  -5.166 -10.476  0.00  0.00    -0.624 OA
BRANCH  14  17
HETATM   17  O           1     -20.358  -3.007 -11.656  0.00  0.00    -0.300 OA
HETATM   18  H           1     -19.530  -2.653 -11.377  0.00  0.00     0.223 HD
ENDBRANCH  14  17
ENDBRANCH  13  14
ENDBRANCH  10  13
ENDBRANCH   6   7
ENDBRANCH   1   6
BRANCH   1  19
HETATM   19  C           1     -20.762  -8.546  -3.293  0.00  0.00     0.249 C 
HETATM   20  O           1     -20.188  -8.172  -2.298  0.00  0.00    -0.271 OA
HETATM   21  N           1     -21.511  -9.692  -3.261  0.00  0.00    -0.345 N 
HETATM   22  H           1     -21.992 -10.005  -4.095  0.00  0.00     0.163 HD
BRANCH  21  23
HETATM   23  C           1     -21.615 -10.455  -2.034  0.00  0.00     0.185 C 
BRANCH  23  24
HETATM   24  C           1     -20.826 -11.734  -2.168  0.00  0.00     0.196 C 
HETATM   25  O           1     -19.582 -11.692  -2.286  0.00  0.00    -0.646 OA
HETATM   26  O           1     -21.416 -12.837  -2.161  0.00  0.00    -0.646 OA
ENDBRANCH  23  24
BRANCH  23  27
HETATM   27  C           1     -23.077 -10.788  -1.765  0.00  0.00     0.036 C 
BRANCH  27  28
HETATM   28  C           1     -23.442 -10.368  -0.348  0.00  0.00     0.004 C 
BRANCH  28  29
HETATM   29  C           1     -22.417  -9.364   0.165  0.00  0.00     0.027 C 
BRANCH  29  30
HETATM   30  C           1     -23.085  -8.007   0.350  0.00  0.00     0.229 C 
BRANCH  30  31
HETATM   31  N           1     -22.528  -7.036  -0.647  0.00  0.00    -0.079 N 
HETATM   32  H           1     -22.250  -6.155  -0.159  0.00  0.00     0.274 HD
HETATM   33  H           1     -23.254  -6.820  -1.367  0.00  0.00     0.274 HD
HETATM   34  H           1     -21.691  -7.454  -1.112  0.00  0.00     0.274 HD
ENDBRANCH  30  31
ENDBRANCH  29  30
ENDBRANCH  28  29
ENDBRANCH  27  28
ENDBRANCH  23  27
ENDBRANCH  21  23
ENDBRANCH   1  19
TORSDOF 14
ENDMDL
MODEL 6
REMARK VINA RESULT:      -6.6      1.552      2.780
REMARK  14 active torsions:
REMARK  status: ('A' for Active; 'I' for Inactive)
REMARK    1  A    between atoms: N_5  and  C_18 
REMARK    2  A    between atoms: O_10  and  P_11 
REMARK    3  A    between atoms: P_11  and  O_12 
REMARK    4  A    between atoms: O_12  and  C_13 
REMARK    5  A    between atoms: C_16  and  C_17 
REMARK    6  A    between atoms: C_17  and  C_18 
REMARK    7  A    between atoms: C_18  and  C_19 
REMARK       I    between atoms: C_19  and  N_20 
REMARK    8  A    between atoms: N_20  and  C_24 
REMARK    9  A    between atoms: C_23  and  C_24 
REMARK   10  A    between atoms: C_24  and  C_25 
REMARK   11  A    between atoms: C_25  and  C_26 
REMARK   12  A    between atoms: C_26  and  C_27 
REMARK   13  A    between atoms: C_27  and  C_28 
REMARK   14  A    between atoms: C_28  and  N_29 
ROOT
HETATM    1  C           1     -33.874  -4.786 -15.458  0.00  0.00     0.278 C 
ENDROOT
BRANCH   1   2
HETATM    2  N           1     -35.077  -5.601 -15.835  0.00  0.00    -0.066 N 
HETATM    3  H           1     -35.943  -5.108 -15.523  0.00  0.00     0.275 HD
HETATM    4  H           1     -35.101  -5.726 -16.871  0.00  0.00     0.275 HD
HETATM    5  H           1     -35.022  -6.535 -15.371  0.00  0.00     0.275 HD
ENDBRANCH   1   2
BRANCH   1   6
HETATM    6  C           1     -33.390  -4.005 -16.671  0.00  0.00     0.081 C 
BRANCH   6   7
HETATM    7  C           1     -32.043  -4.511 -17.087  0.00  0.00    -0.056 A 
HETATM    8  C           1     -31.083  -3.623 -17.571  0.00  0.00     0.010 A 
HETATM    9  C           1     -29.830  -4.095 -17.959  0.00  0.00     0.038 A 
HETATM   10  C           1     -29.535  -5.455 -17.862  0.00  0.00     0.081 A 
HETATM   11  C           1     -30.496  -6.344 -17.378  0.00  0.00     0.038 A 
HETATM   12  C           1     -31.751  -5.871 -16.991  0.00  0.00     0.010 A 
BRANCH  10  13
HETATM   13  O           1     -28.317  -5.914 -18.239  0.00  0.00    -0.247 OA
BRANCH  13  14
HETATM   14  P           1     -27.168  -6.026 -17.110  0.00  0.00     0.411 P 
HETATM   15  O           1     -27.585  -7.002 -16.077  0.00  0.00    -0.624 OA
HETATM   16  O           1     -26.961  -4.702 -16.484  0.00  0.00    -0.624 OA
BRANCH  14  17
HETATM   17  O           1     -25.790  -6.521 -17.791  0.00  0.00    -0.300 OA
HETATM   18  H           1     -25.590  -7.340 -17.370  0.00  0.00     0.223 HD
ENDBRANCH  14  17
ENDBRANCH  13  14
ENDBRANCH  10  13
ENDBRANCH   6   7
ENDBRANCH   1   6
BRANCH   1  19
HETATM   19  C           1     -34.245  -3.826 -14.354  0.00  0.00     0.249 C 
HETATM   20  O           1     -34.665  -2.726 -14.627  0.00  0.00    -0.271 OA
HETATM   21  N           1     -34.106  -4.200 -13.045  0.00  0.00    -0.345 N 
HETATM   22  H           1     -33.755  -5.122 -12.817  0.00  0.00     0.163 HD
BRANCH  21  23
HETATM   23  C           1     -34.462  -3.278 -11.985  0.00  0.00     0.185 C 
BRANCH  23  24
HETATM   24  C           1     -33.210  -2.795 -11.297  0.00  0.00     0.196 C 
HETATM   25  O           1     -33.242  -1.764 -10.591  0.00  0.00    -0.646 OA
HETATM   26  O           1     -32.139  -3.427 -11.431  0.00  0.00    -0.646 OA
ENDBRANCH  23  24
BRANCH  23  27
HETATM   27  C           1     -35.355  -3.985 -10.974  0.00  0.00     0.036 C 
BRANCH  27  28
HETATM   28  C           1     -36.627  -3.175 -10.765  0.00  0.00     0.004 C 
BRANCH  28  29
HETATM   29  C           1     -36.276  -1.826 -10.149  0.00  0.00     0.027 C 
BRANCH  29  30
HETATM   30  C           1     -36.782  -0.708 -11.052  0.00  0.00     0.229 C 
BRANCH  30  31
HETATM   31  N           1     -35.618   0.097 -11.548  0.00  0.00    -0.079 N 
HETATM   32  H           1     -35.796   0.396 -12.534  0.00  0.00     0.274 HD
HETATM   33  H           1     -34.751  -0.483 -11.511  0.00  0.00     0.274 HD
HETATM   34  H           1     -35.497   0.943 -10.946  0.00  0.00     0.274 HD
ENDBRANCH  30  31
ENDBRANCH  29  30
ENDBRANCH  28  29
ENDBRANCH  27  28
ENDBRANCH  23  27
ENDBRANCH  21  23
ENDBRANCH   1  19
TORSDOF 14
ENDMDL
MODEL 7
REMARK VINA RESULT:      -6.2     14.367     16.128
REMARK  14 active torsions:
REMARK  status: ('A' for Active; 'I' for Inactive)
REMARK    1  A    between atoms: N_5  and  C_18 
REMARK    2  A    between atoms: O_10  and  P_11 
REMARK    3  A    between atoms: P_11  and  O_12 
REMARK    4  A    between atoms: O_12  and  C_13 
REMARK    5  A    between atoms: C_16  and  C_17 
REMARK    6  A    between atoms: C_17  and  C_18 
REMARK    7  A    between atoms: C_18  and  C_19 
REMARK       I    between atoms: C_19  and  N_20 
REMARK    8  A    between atoms: N_20  and  C_24 
REMARK    9  A    between atoms: C_23  and  C_24 
REMARK   10  A    between atoms: C_24  and  C_25 
REMARK   11  A    between atoms: C_25  and  C_26 
REMARK   12  A    between atoms: C_26  and  C_27 
REMARK   13  A    between atoms: C_27  and  C_28 
REMARK   14  A    between atoms: C_28  and  N_29 
ROOT
HETATM    1  C           1     -21.027  -6.982  -4.323  0.00  0.00     0.278 C 
ENDROOT
BRANCH   1   2
HETATM    2  N           1     -21.890  -6.078  -3.493  0.00  0.00    -0.066 N 
HETATM    3  H           1     -22.817  -5.958  -3.958  0.00  0.00     0.275 HD
HETATM    4  H           1     -22.027  -6.501  -2.548  0.00  0.00     0.275 HD
HETATM    5  H           1     -21.426  -5.147  -3.396  0.00  0.00     0.275 HD
ENDBRANCH   1   2
BRANCH   1   6
HETATM    6  C           1     -21.407  -8.432  -4.059  0.00  0.00     0.081 C 
BRANCH   6   7
HETATM    7  C           1     -20.175  -9.282  -4.071  0.00  0.00    -0.056 A 
HETATM    8  C           1     -19.152  -9.041  -3.154  0.00  0.00     0.010 A 
HETATM    9  C           1     -18.004  -9.833  -3.165  0.00  0.00     0.038 A 
HETATM   10  C           1     -17.879 -10.867  -4.092  0.00  0.00     0.081 A 
HETATM   11  C           1     -18.902 -11.109  -5.010  0.00  0.00     0.038 A 
HETATM   12  C           1     -20.051 -10.316  -4.998  0.00  0.00     0.010 A 
BRANCH  10  13
HETATM   13  O           1     -16.764 -11.637  -4.104  0.00  0.00    -0.247 OA
BRANCH  13  14
HETATM   14  P           1     -15.669 -11.368  -5.260  0.00  0.00     0.411 P 
HETATM   15  O           1     -16.035 -12.135  -6.473  0.00  0.00    -0.624 OA
HETATM   16  O           1     -14.336 -11.800  -4.785  0.00  0.00    -0.624 OA
BRANCH  14  17
HETATM   17  O           1     -15.632  -9.793  -5.610  0.00  0.00    -0.300 OA
HETATM   18  H           1     -16.535  -9.544  -5.714  0.00  0.00     0.223 HD
ENDBRANCH  14  17
ENDBRANCH  13  14
ENDBRANCH  10  13
ENDBRANCH   6   7
ENDBRANCH   1   6
BRANCH   1  19
HETATM   19  C           1     -21.229  -6.665  -5.785  0.00  0.00     0.249 C 
HETATM   20  O           1     -21.436  -7.559  -6.573  0.00  0.00    -0.271 OA
HETATM   21  N           1     -21.180  -5.368  -6.219  0.00  0.00    -0.345 N 
HETATM   22  H           1     -21.007  -4.621  -5.559  0.00  0.00     0.163 HD
BRANCH  21  23
HETATM   23  C           1     -21.375  -5.065  -7.622  0.00  0.00     0.185 C 
BRANCH  23  24
HETATM   24  C           1     -20.039  -4.796  -8.269  0.00  0.00     0.196 C 
HETATM   25  O           1     -19.933  -4.806  -9.515  0.00  0.00    -0.646 OA
HETATM   26  O           1     -19.036  -4.560  -7.560  0.00  0.00    -0.646 OA
ENDBRANCH  23  24
BRANCH  23  27
HETATM   27  C           1     -22.261  -3.834  -7.759  0.00  0.00     0.036 C 
BRANCH  27  28
HETATM   28  C           1     -23.448  -4.159  -8.655  0.00  0.00     0.004 C 
BRANCH  28  29
HETATM   29  C           1     -23.224  -3.554 -10.035  0.00  0.00     0.027 C 
BRANCH  29  30
HETATM   30  C           1     -23.201  -4.665 -11.078  0.00  0.00     0.229 C 
BRANCH  30  31
HETATM   31  N           1     -21.963  -4.540 -11.914  0.00  0.00    -0.079 N 
HETATM   32  H           1     -21.459  -5.456 -11.931  0.00  0.00     0.274 HD
HETATM   33  H           1     -21.339  -3.808 -11.507  0.00  0.00     0.274 HD
HETATM   34  H           1     -22.226  -4.270 -12.889  0.00  0.00     0.274 HD
ENDBRANCH  30  31
ENDBRANCH  29  30
ENDBRANCH  28  29
ENDBRANCH  27  28
ENDBRANCH  23  27
ENDBRANCH  21  23
ENDBRANCH   1  19
TORSDOF 14
ENDMDL
MODEL 8
REMARK VINA RESULT:      -6.2     16.478     18.648
REMARK  14 active torsions:
REMARK  status: ('A' for Active; 'I' for Inactive)
REMARK    1  A    between atoms: N_5  and  C_18 
REMARK    2  A    between atoms: O_10  and  P_11 
REMARK    3  A    between atoms: P_11  and  O_12 
REMARK    4  A    between atoms: O_12  and  C_13 
REMARK    5  A    between atoms: C_16  and  C_17 
REMARK    6  A    between atoms: C_17  and  C_18 
REMARK    7  A    between atoms: C_18  and  C_19 
REMARK       I    between atoms: C_19  and  N_20 
REMARK    8  A    between atoms: N_20  and  C_24 
REMARK    9  A    between atoms: C_23  and  C_24 
REMARK   10  A    between atoms: C_24  and  C_25 
REMARK   11  A    between atoms: C_25  and  C_26 
REMARK   12  A    between atoms: C_26  and  C_27 
REMARK   13  A    between atoms: C_27  and  C_28 
REMARK   14  A    between atoms: C_28  and  N_29 
ROOT
HETATM    1  C           1     -20.917 -10.682  -1.388  0.00  0.00     0.278 C 
ENDROOT
BRANCH   1   2
HETATM    2  N           1     -21.797 -11.187  -0.282  0.00  0.00    -0.066 N 
HETATM    3  H           1     -22.679 -11.573  -0.688  0.00  0.00     0.275 HD
HETATM    4  H           1     -21.297 -11.938   0.244  0.00  0.00     0.275 HD
HETATM    5  H           1     -22.027 -10.400   0.365  0.00  0.00     0.275 HD
ENDBRANCH   1   2
BRANCH   1   6
HETATM    6  C           1     -20.527  -9.238  -1.107  0.00  0.00     0.081 C 
BRANCH   6   7
HETATM    7  C           1     -21.019  -8.362  -2.218  0.00  0.00    -0.056 A 
HETATM    8  C           1     -21.002  -8.828  -3.533  0.00  0.00     0.010 A 
HETATM    9  C           1     -21.461  -8.012  -4.566  0.00  0.00     0.038 A 
HETATM   10  C           1     -21.937  -6.731  -4.286  0.00  0.00     0.081 A 
HETATM   11  C           1     -21.954  -6.266  -2.971  0.00  0.00     0.038 A 
HETATM   12  C           1     -21.495  -7.082  -1.936  0.00  0.00     0.010 A 
BRANCH  10  13
HETATM   13  O           1     -22.383  -5.938  -5.291  0.00  0.00    -0.247 OA
BRANCH  13  14
HETATM   14  P           1     -21.292  -5.321  -6.309  0.00  0.00     0.411 P 
HETATM   15  O           1     -20.871  -6.364  -7.272  0.00  0.00    -0.624 OA
HETATM   16  O           1     -20.117  -4.849  -5.545  0.00  0.00    -0.624 OA
BRANCH  14  17
HETATM   17  O           1     -21.945  -4.081  -7.111  0.00  0.00    -0.300 OA
HETATM   18  H           1     -22.031  -4.384  -8.000  0.00  0.00     0.223 HD
ENDBRANCH  14  17
ENDBRANCH  13  14
ENDBRANCH  10  13
ENDBRANCH   6   7
ENDBRANCH   1   6
BRANCH   1  19
HETATM   19  C           1     -19.674 -11.535  -1.469  0.00  0.00     0.249 C 
HETATM   20  O           1     -19.768 -12.720  -1.687  0.00  0.00    -0.271 OA
HETATM   21  N           1     -18.441 -10.966  -1.297  0.00  0.00    -0.345 N 
HETATM   22  H           1     -18.362  -9.974  -1.115  0.00  0.00     0.163 HD
BRANCH  21  23
HETATM   23  C           1     -17.248 -11.785  -1.375  0.00  0.00     0.185 C 
BRANCH  23  24
HETATM   24  C           1     -16.741 -12.071   0.017  0.00  0.00     0.196 C 
HETATM   25  O           1     -17.367 -12.857   0.761  0.00  0.00    -0.646 OA
HETATM   26  O           1     -15.695 -11.522   0.427  0.00  0.00    -0.646 OA
ENDBRANCH  23  24
BRANCH  23  27
HETATM   27  C           1     -16.174 -11.046  -2.162  0.00  0.00     0.036 C 
BRANCH  27  28
HETATM   28  C           1     -16.765  -9.778  -2.762  0.00  0.00     0.004 C 
BRANCH  28  29
HETATM   29  C           1     -16.583  -9.797  -4.275  0.00  0.00     0.027 C 
BRANCH  29  30
HETATM   30  C           1     -17.836 -10.364  -4.930  0.00  0.00     0.229 C 
BRANCH  30  31
HETATM   31  N           1     -18.349  -9.392  -5.950  0.00  0.00    -0.079 N 
HETATM   32  H           1     -17.933  -8.450  -5.774  0.00  0.00     0.274 HD
HETATM   33  H           1     -19.390  -9.332  -5.882  0.00  0.00     0.274 HD
HETATM   34  H           1     -18.082  -9.717  -6.906  0.00  0.00     0.274 HD
ENDBRANCH  30  31
ENDBRANCH  29  30
ENDBRANCH  28  29
ENDBRANCH  27  28
ENDBRANCH  23  27
ENDBRANCH  21  23
ENDBRANCH   1  19
TORSDOF 14
ENDMDL
MODEL 9
REMARK VINA RESULT:      -6.1     14.710     16.390
REMARK  14 active torsions:
REMARK  status: ('A' for Active; 'I' for Inactive)
REMARK    1  A    between atoms: N_5  and  C_18 
REMARK    2  A    between atoms: O_10  and  P_11 
REMARK    3  A    between atoms: P_11  and  O_12 
REMARK    4  A    between atoms: O_12  and  C_13 
REMARK    5  A    between atoms: C_16  and  C_17 
REMARK    6  A    between atoms: C_17  and  C_18 
REMARK    7  A    between atoms: C_18  and  C_19 
REMARK       I    between atoms: C_19  and  N_20 
REMARK    8  A    between atoms: N_20  and  C_24 
REMARK    9  A    between atoms: C_23  and  C_24 
REMARK   10  A    between atoms: C_24  and  C_25 
REMARK   11  A    between atoms: C_25  and  C_26 
REMARK   12  A    between atoms: C_26  and  C_27 
REMARK   13  A    between atoms: C_27  and  C_28 
REMARK   14  A    between atoms: C_28  and  N_29 
ROOT
HETATM    1  C           1     -20.979  -6.488  -3.760  0.00  0.00     0.278 C 
ENDROOT
BRANCH   1   2
HETATM    2  N           1     -22.166  -6.155  -2.906  0.00  0.00    -0.066 N 
HETATM    3  H           1     -22.030  -6.552  -1.949  0.00  0.00     0.275 HD
HETATM    4  H           1     -22.269  -5.118  -2.841  0.00  0.00     0.275 HD
HETATM    5  H           1     -23.027  -6.565  -3.333  0.00  0.00     0.275 HD
ENDBRANCH   1   2
BRANCH   1   6
HETATM    6  C           1     -21.118  -7.907  -4.292  0.00  0.00     0.081 C 
BRANCH   6   7
HETATM    7  C           1     -19.807  -8.620  -4.166  0.00  0.00    -0.056 A 
HETATM    8  C           1     -19.106  -8.999  -5.311  0.00  0.00     0.010 A 
HETATM    9  C           1     -17.886  -9.662  -5.193  0.00  0.00     0.038 A 
HETATM   10  C           1     -17.364  -9.946  -3.931  0.00  0.00     0.081 A 
HETATM   11  C           1     -18.064  -9.566  -2.786  0.00  0.00     0.038 A 
HETATM   12  C           1     -19.287  -8.903  -2.904  0.00  0.00     0.010 A 
BRANCH  10  13
HETATM   13  O           1     -16.177 -10.590  -3.816  0.00  0.00    -0.247 OA
BRANCH  13  14
HETATM   14  P           1     -16.139 -12.171  -4.146  0.00  0.00     0.411 P 
HETATM   15  O           1     -15.073 -12.815  -3.344  0.00  0.00    -0.624 OA
HETATM   16  O           1     -15.861 -12.367  -5.586  0.00  0.00    -0.624 OA
BRANCH  14  17
HETATM   17  O           1     -17.564 -12.833  -3.777  0.00  0.00    -0.300 OA
HETATM   18  H           1     -17.989 -12.203  -3.220  0.00  0.00     0.223 HD
ENDBRANCH  14  17
ENDBRANCH  13  14
ENDBRANCH  10  13
ENDBRANCH   6   7
ENDBRANCH   1   6
BRANCH   1  19
HETATM   19  C           1     -20.905  -5.520  -4.916  0.00  0.00     0.249 C 
HETATM   20  O           1     -20.124  -4.598  -4.882  0.00  0.00    -0.271 OA
HETATM   21  N           1     -21.721  -5.687  -6.002  0.00  0.00    -0.345 N 
HETATM   22  H           1     -22.374  -6.459  -6.030  0.00  0.00     0.163 HD
BRANCH  21  23
HETATM   23  C           1     -21.649  -4.758  -7.112  0.00  0.00     0.185 C 
BRANCH  23  24
HETATM   24  C           1     -23.044  -4.369  -7.534  0.00  0.00     0.196 C 
HETATM   25  O           1     -23.248  -3.925  -8.685  0.00  0.00    -0.646 OA
HETATM   26  O           1     -23.997  -4.492  -6.734  0.00  0.00    -0.646 OA
ENDBRANCH  23  24
BRANCH  23  27
HETATM   27  C           1     -20.931  -5.417  -8.282  0.00  0.00     0.036 C 
BRANCH  27  28
HETATM   28  C           1     -20.067  -4.386  -8.996  0.00  0.00     0.004 C 
BRANCH  28  29
HETATM   29  C           1     -19.972  -4.739 -10.475  0.00  0.00     0.027 C 
BRANCH  29  30
HETATM   30  C           1     -20.853  -3.792 -11.280  0.00  0.00     0.229 C 
BRANCH  30  31
HETATM   31  N           1     -22.178  -4.445 -11.542  0.00  0.00    -0.079 N 
HETATM   32  H           1     -22.549  -4.123 -12.464  0.00  0.00     0.274 HD
HETATM   33  H           1     -22.850  -4.185 -10.785  0.00  0.00     0.274 HD
HETATM   34  H           1     -22.058  -5.483 -11.559  0.00  0.00     0.274 HD
ENDBRANCH  30  31
ENDBRANCH  29  30
ENDBRANCH  28  29
ENDBRANCH  27  28
ENDBRANCH  23  27
ENDBRANCH  21  23
ENDBRANCH   1  19
TORSDOF 14
ENDMDL
