MODEL 1
REMARK VINA RESULT:      -5.8      0.000      0.000
REMARK  8 active torsions:
REMARK  status: ('A' for Active; 'I' for Inactive)
REMARK    1  A    between atoms: N_1  and  C_8 
REMARK       I    between atoms: N_1  and  C_14 
REMARK    2  A    between atoms: N_6  and  C_13 
REMARK    3  A    between atoms: C_8  and  C_16 
REMARK    4  A    between atoms: C_8  and  C_18 
REMARK    5  A    between atoms: C_12  and  C_13 
REMARK    6  A    between atoms: C_12  and  S_15 
REMARK    7  A    between atoms: C_13  and  C_14 
REMARK    8  A    between atoms: C_16  and  O_20 
ROOT
HETATM    1  N           1     -22.119  -4.793  -9.070  0.00  0.00    -0.343 N 
HETATM    2  O           1     -21.702  -3.425  -7.354  0.00  0.00    -0.271 OA
HETATM    3  H           1     -22.112  -5.736  -9.436  0.00  0.00     0.163 HD
HETATM    4  C           1     -21.692  -4.551  -7.791  0.00  0.00     0.249 C 
ENDROOT
BRANCH   1   5
HETATM    5  C           1     -22.582  -3.697  -9.898  0.00  0.00     0.214 C 
BRANCH   5   6
HETATM    6  C           1     -21.781  -3.666 -11.193  0.00  0.00     0.147 C 
HETATM    7  C           1     -20.411  -4.288 -10.956  0.00  0.00     0.042 C 
BRANCH   6   8
HETATM    8  O           1     -22.461  -4.394 -12.180  0.00  0.00    -0.393 OA
HETATM    9  H           1     -23.279  -4.669 -11.802  0.00  0.00     0.210 HD
ENDBRANCH   6   8
ENDBRANCH   5   6
BRANCH   5  10
HETATM   10  C           1     -24.045  -3.890 -10.216  0.00  0.00     0.199 C 
HETATM   11  O           1     -24.603  -4.977  -9.954  0.00  0.00    -0.646 OA
HETATM   12  O           1     -24.698  -2.961 -10.739  0.00  0.00    -0.646 OA
ENDBRANCH   5  10
ENDBRANCH   1   5
BRANCH   4  13
HETATM   13  C           1     -21.210  -5.692  -6.929  0.00  0.00     0.283 C 
BRANCH  13  14
HETATM   14  N           1     -19.951  -6.262  -7.513  0.00  0.00    -0.066 N 
HETATM   15  H           1     -19.153  -5.617  -7.313  0.00  0.00     0.275 HD
HETATM   16  H           1     -20.065  -6.369  -8.546  0.00  0.00     0.275 HD
HETATM   17  H           1     -19.760  -7.195  -7.084  0.00  0.00     0.275 HD
ENDBRANCH  13  14
BRANCH  13  18
HETATM   18  C           1     -20.930  -5.181  -5.521  0.00  0.00     0.113 C 
BRANCH  18  19
HETATM   19  S           1     -21.495  -6.406  -4.307  0.00  0.00    -0.180 SA
HETATM   20  H           1     -20.845  -7.452  -4.850  0.00  0.00     0.101 HD
ENDBRANCH  18  19
ENDBRANCH  13  18
ENDBRANCH   4  13
TORSDOF 8
ENDMDL
MODEL 2
REMARK VINA RESULT:      -5.5     13.379     14.572
REMARK  8 active torsions:
REMARK  status: ('A' for Active; 'I' for Inactive)
REMARK    1  A    between atoms: N_1  and  C_8 
REMARK       I    between atoms: N_1  and  C_14 
REMARK    2  A    between atoms: N_6  and  C_13 
REMARK    3  A    between atoms: C_8  and  C_16 
REMARK    4  A    between atoms: C_8  and  C_18 
REMARK    5  A    between atoms: C_12  and  C_13 
REMARK    6  A    between atoms: C_12  and  S_15 
REMARK    7  A    between atoms: C_13  and  C_14 
REMARK    8  A    between atoms: C_16  and  O_20 
ROOT
HETATM    1  N           1     -35.016  -1.251 -13.987  0.00  0.00    -0.343 N 
HETATM    2  O           1     -36.418  -1.614 -12.287  0.00  0.00    -0.271 OA
HETATM    3  H           1     -34.088  -1.365 -14.372  0.00  0.00     0.163 HD
HETATM    4  C           1     -35.309  -1.751 -12.746  0.00  0.00     0.249 C 
ENDROOT
BRANCH   1   5
HETATM    5  C           1     -36.036  -0.556 -14.748  0.00  0.00     0.214 C 
BRANCH   5   6
HETATM    6  C           1     -35.863   0.946 -14.575  0.00  0.00     0.147 C 
HETATM    7  C           1     -34.506   1.231 -13.943  0.00  0.00     0.042 C 
BRANCH   6   8
HETATM    8  O           1     -35.936   1.572 -15.828  0.00  0.00    -0.393 OA
HETATM    9  H           1     -35.261   1.192 -16.364  0.00  0.00     0.210 HD
ENDBRANCH   6   8
ENDBRANCH   5   6
BRANCH   5  10
HETATM   10  C           1     -35.904  -0.914 -16.208  0.00  0.00     0.199 C 
HETATM   11  O           1     -34.831  -1.385 -16.642  0.00  0.00    -0.646 OA
HETATM   12  O           1     -36.869  -0.739 -16.983  0.00  0.00    -0.646 OA
ENDBRANCH   5  10
ENDBRANCH   1   5
BRANCH   4  13
HETATM   13  C           1     -34.248  -2.474 -11.954  0.00  0.00     0.283 C 
BRANCH  13  14
HETATM   14  N           1     -33.772  -1.592 -10.837  0.00  0.00    -0.066 N 
HETATM   15  H           1     -33.232  -2.164 -10.149  0.00  0.00     0.275 HD
HETATM   16  H           1     -34.595  -1.159 -10.361  0.00  0.00     0.275 HD
HETATM   17  H           1     -33.157  -0.841 -11.223  0.00  0.00     0.275 HD
ENDBRANCH  13  14
BRANCH  13  18
HETATM   18  C           1     -34.831  -3.756 -11.375  0.00  0.00     0.113 C 
BRANCH  18  19
HETATM   19  S           1     -33.533  -5.021 -11.274  0.00  0.00    -0.180 SA
HETATM   20  H           1     -33.686  -5.480 -12.529  0.00  0.00     0.101 HD
ENDBRANCH  18  19
ENDBRANCH  13  18
ENDBRANCH   4  13
TORSDOF 8
ENDMDL
MODEL 3
REMARK VINA RESULT:      -5.3     13.144     14.769
REMARK  8 active torsions:
REMARK  status: ('A' for Active; 'I' for Inactive)
REMARK    1  A    between atoms: N_1  and  C_8 
REMARK       I    between atoms: N_1  and  C_14 
REMARK    2  A    between atoms: N_6  and  C_13 
REMARK    3  A    between atoms: C_8  and  C_16 
REMARK    4  A    between atoms: C_8  and  C_18 
REMARK    5  A    between atoms: C_12  and  C_13 
REMARK    6  A    between atoms: C_12  and  S_15 
REMARK    7  A    between atoms: C_13  and  C_14 
REMARK    8  A    between atoms: C_16  and  O_20 
ROOT
HETATM    1  N           1     -34.816  -1.468 -13.209  0.00  0.00    -0.343 N 
HETATM    2  O           1     -36.958  -0.980 -12.805  0.00  0.00    -0.271 OA
HETATM    3  H           1     -33.968  -1.251 -13.716  0.00  0.00     0.163 HD
HETATM    4  C           1     -35.946  -0.721 -13.411  0.00  0.00     0.249 C 
ENDROOT
BRANCH   1   5
HETATM    5  C           1     -34.836  -2.570 -12.267  0.00  0.00     0.214 C 
BRANCH   5   6
HETATM    6  C           1     -34.154  -3.781 -12.889  0.00  0.00     0.147 C 
HETATM    7  C           1     -34.798  -5.055 -12.358  0.00  0.00     0.042 C 
BRANCH   6   8
HETATM    8  O           1     -34.296  -3.731 -14.283  0.00  0.00    -0.393 OA
HETATM    9  H           1     -35.179  -3.993 -14.478  0.00  0.00     0.210 HD
ENDBRANCH   6   8
ENDBRANCH   5   6
BRANCH   5  10
HETATM   10  C           1     -34.104  -2.171 -11.009  0.00  0.00     0.199 C 
HETATM   11  O           1     -32.907  -2.494 -10.854  0.00  0.00    -0.646 OA
HETATM   12  O           1     -34.695  -1.515 -10.124  0.00  0.00    -0.646 OA
ENDBRANCH   5  10
ENDBRANCH   1   5
BRANCH   4  13
HETATM   13  C           1     -35.925   0.426 -14.391  0.00  0.00     0.283 C 
BRANCH  13  14
HETATM   14  N           1     -34.520   0.650 -14.868  0.00  0.00    -0.066 N 
HETATM   15  H           1     -34.481   1.529 -15.433  0.00  0.00     0.275 HD
HETATM   16  H           1     -34.220  -0.159 -15.458  0.00  0.00     0.275 HD
HETATM   17  H           1     -33.883   0.738 -14.045  0.00  0.00     0.275 HD
ENDBRANCH  13  14
BRANCH  13  18
HETATM   18  C           1     -36.817   0.095 -15.580  0.00  0.00     0.113 C 
BRANCH  18  19
HETATM   19  S           1     -35.952  -1.053 -16.687  0.00  0.00    -0.180 SA
HETATM   20  H           1     -35.367  -0.107 -17.444  0.00  0.00     0.101 HD
ENDBRANCH  18  19
ENDBRANCH  13  18
ENDBRANCH   4  13
TORSDOF 8
ENDMDL
MODEL 4
REMARK VINA RESULT:      -5.2     10.678     11.997
REMARK  8 active torsions:
REMARK  status: ('A' for Active; 'I' for Inactive)
REMARK    1  A    between atoms: N_1  and  C_8 
REMARK       I    between atoms: N_1  and  C_14 
REMARK    2  A    between atoms: N_6  and  C_13 
REMARK    3  A    between atoms: C_8  and  C_16 
REMARK    4  A    between atoms: C_8  and  C_18 
REMARK    5  A    between atoms: C_12  and  C_13 
REMARK    6  A    between atoms: C_12  and  S_15 
REMARK    7  A    between atoms: C_13  and  C_14 
REMARK    8  A    between atoms: C_16  and  O_20 
ROOT
HETATM    1  N           1     -26.991  -6.355 -18.288  0.00  0.00    -0.343 N 
HETATM    2  O           1     -27.251  -5.918 -20.463  0.00  0.00    -0.271 OA
HETATM    3  H           1     -26.403  -6.723 -17.552  0.00  0.00     0.163 HD
HETATM    4  C           1     -26.548  -6.358 -19.584  0.00  0.00     0.249 C 
ENDROOT
BRANCH   1   5
HETATM    5  C           1     -28.303  -5.824 -17.972  0.00  0.00     0.214 C 
BRANCH   5   6
HETATM    6  C           1     -29.152  -6.918 -17.338  0.00  0.00     0.147 C 
HETATM    7  C           1     -29.833  -7.729 -18.432  0.00  0.00     0.042 C 
BRANCH   6   8
HETATM    8  O           1     -28.333  -7.760 -16.572  0.00  0.00    -0.393 OA
HETATM    9  H           1     -28.895  -8.206 -15.961  0.00  0.00     0.210 HD
ENDBRANCH   6   8
ENDBRANCH   5   6
BRANCH   5  10
HETATM   10  C           1     -28.160  -4.673 -17.006  0.00  0.00     0.199 C 
HETATM   11  O           1     -28.579  -3.539 -17.321  0.00  0.00    -0.646 OA
HETATM   12  O           1     -27.624  -4.856 -15.892  0.00  0.00    -0.646 OA
ENDBRANCH   5  10
ENDBRANCH   1   5
BRANCH   4  13
HETATM   13  C           1     -25.183  -6.910 -19.913  0.00  0.00     0.283 C 
BRANCH  13  14
HETATM   14  N           1     -24.557  -7.469 -18.670  0.00  0.00    -0.066 N 
HETATM   15  H           1     -25.212  -7.343 -17.865  0.00  0.00     0.275 HD
HETATM   16  H           1     -23.662  -6.966 -18.475  0.00  0.00     0.275 HD
HETATM   17  H           1     -24.365  -8.487 -18.804  0.00  0.00     0.275 HD
ENDBRANCH  13  14
BRANCH  13  18
HETATM   18  C           1     -25.319  -8.015 -20.953  0.00  0.00     0.113 C 
BRANCH  18  19
HETATM   19  S           1     -24.038  -7.814 -22.223  0.00  0.00    -0.180 SA
HETATM   20  H           1     -24.304  -6.523 -22.489  0.00  0.00     0.101 HD
ENDBRANCH  18  19
ENDBRANCH  13  18
ENDBRANCH   4  13
TORSDOF 8
ENDMDL
MODEL 5
REMARK VINA RESULT:      -5.2     12.177     14.013
REMARK  8 active torsions:
REMARK  status: ('A' for Active; 'I' for Inactive)
REMARK    1  A    between atoms: N_1  and  C_8 
REMARK       I    between atoms: N_1  and  C_14 
REMARK    2  A    between atoms: N_6  and  C_13 
REMARK    3  A    between atoms: C_8  and  C_16 
REMARK    4  A    between atoms: C_8  and  C_18 
REMARK    5  A    between atoms: C_12  and  C_13 
REMARK    6  A    between atoms: C_12  and  S_15 
REMARK    7  A    between atoms: C_13  and  C_14 
REMARK    8  A    between atoms: C_16  and  O_20 
ROOT
HETATM    1  N           1     -35.417  -1.903 -12.579  0.00  0.00    -0.343 N 
HETATM    2  O           1     -33.647  -2.123 -11.235  0.00  0.00    -0.271 OA
HETATM    3  H           1     -36.046  -2.331 -13.246  0.00  0.00     0.163 HD
HETATM    4  C           1     -34.398  -2.634 -12.032  0.00  0.00     0.249 C 
ENDROOT
BRANCH   1   5
HETATM    5  C           1     -35.596  -0.514 -12.202  0.00  0.00     0.214 C 
BRANCH   5   6
HETATM    6  C           1     -36.039   0.288 -13.419  0.00  0.00     0.147 C 
HETATM    7  C           1     -34.812   0.782 -14.174  0.00  0.00     0.042 C 
BRANCH   6   8
HETATM    8  O           1     -36.809  -0.527 -14.260  0.00  0.00    -0.393 OA
HETATM    9  H           1     -37.619  -0.072 -14.416  0.00  0.00     0.210 HD
ENDBRANCH   6   8
ENDBRANCH   5   6
BRANCH   5  10
HETATM   10  C           1     -36.648  -0.416 -11.124  0.00  0.00     0.199 C 
HETATM   11  O           1     -37.740  -1.007 -11.262  0.00  0.00    -0.646 OA
HETATM   12  O           1     -36.424   0.255 -10.094  0.00  0.00    -0.646 OA
ENDBRANCH   5  10
ENDBRANCH   1   5
BRANCH   4  13
HETATM   13  C           1     -34.212  -4.080 -12.423  0.00  0.00     0.283 C 
BRANCH  13  14
HETATM   14  N           1     -33.562  -4.151 -13.773  0.00  0.00    -0.066 N 
HETATM   15  H           1     -33.877  -5.019 -14.265  0.00  0.00     0.275 HD
HETATM   16  H           1     -32.524  -4.171 -13.659  0.00  0.00     0.275 HD
HETATM   17  H           1     -33.836  -3.315 -14.337  0.00  0.00     0.275 HD
ENDBRANCH  13  14
BRANCH  13  18
HETATM   18  C           1     -33.327  -4.775 -11.397  0.00  0.00     0.113 C 
BRANCH  18  19
HETATM   19  S           1     -34.218  -6.184 -10.681  0.00  0.00    -0.180 SA
HETATM   20  H           1     -33.850  -7.075 -11.620  0.00  0.00     0.101 HD
ENDBRANCH  18  19
ENDBRANCH  13  18
ENDBRANCH   4  13
TORSDOF 8
ENDMDL
MODEL 6
REMARK VINA RESULT:      -5.1      9.950     11.547
REMARK  8 active torsions:
REMARK  status: ('A' for Active; 'I' for Inactive)
REMARK    1  A    between atoms: N_1  and  C_8 
REMARK       I    between atoms: N_1  and  C_14 
REMARK    2  A    between atoms: N_6  and  C_13 
REMARK    3  A    between atoms: C_8  and  C_16 
REMARK    4  A    between atoms: C_8  and  C_18 
REMARK    5  A    between atoms: C_12  and  C_13 
REMARK    6  A    between atoms: C_12  and  S_15 
REMARK    7  A    between atoms: C_13  and  C_14 
REMARK    8  A    between atoms: C_16  and  O_20 
ROOT
HETATM    1  N           1     -26.572  -6.603 -18.296  0.00  0.00    -0.343 N 
HETATM    2  O           1     -24.353  -6.529 -18.543  0.00  0.00    -0.271 OA
HETATM    3  H           1     -27.467  -6.886 -18.672  0.00  0.00     0.163 HD
HETATM    4  C           1     -25.423  -6.866 -18.992  0.00  0.00     0.249 C 
ENDROOT
BRANCH   1   5
HETATM    5  C           1     -26.505  -5.919 -17.019  0.00  0.00     0.214 C 
BRANCH   5   6
HETATM    6  C           1     -27.640  -4.908 -16.925  0.00  0.00     0.147 C 
HETATM    7  C           1     -28.796  -5.361 -17.806  0.00  0.00     0.042 C 
BRANCH   6   8
HETATM    8  O           1     -28.073  -4.815 -15.595  0.00  0.00    -0.393 OA
HETATM    9  H           1     -27.317  -4.955 -15.051  0.00  0.00     0.210 HD
ENDBRANCH   6   8
ENDBRANCH   5   6
BRANCH   5  10
HETATM   10  C           1     -26.634  -6.926 -15.902  0.00  0.00     0.199 C 
HETATM   11  O           1     -25.642  -7.204 -15.195  0.00  0.00    -0.646 OA
HETATM   12  O           1     -27.733  -7.479 -15.684  0.00  0.00    -0.646 OA
ENDBRANCH   5  10
ENDBRANCH   1   5
BRANCH   4  13
HETATM   13  C           1     -25.493  -7.579 -20.321  0.00  0.00     0.283 C 
BRANCH  13  14
HETATM   14  N           1     -26.928  -7.841 -20.672  0.00  0.00    -0.066 N 
HETATM   15  H           1     -27.437  -8.178 -19.823  0.00  0.00     0.275 HD
HETATM   16  H           1     -26.975  -8.568 -21.420  0.00  0.00     0.275 HD
HETATM   17  H           1     -27.370  -6.958 -21.014  0.00  0.00     0.275 HD
ENDBRANCH  13  14
BRANCH  13  18
HETATM   18  C           1     -24.859  -6.708 -21.398  0.00  0.00     0.113 C 
BRANCH  18  19
HETATM   19  S           1     -23.880  -7.746 -22.520  0.00  0.00    -0.180 SA
HETATM   20  H           1     -23.497  -8.638 -21.588  0.00  0.00     0.101 HD
ENDBRANCH  18  19
ENDBRANCH  13  18
ENDBRANCH   4  13
TORSDOF 8
ENDMDL
MODEL 7
REMARK VINA RESULT:      -5.1     12.760     14.735
REMARK  8 active torsions:
REMARK  status: ('A' for Active; 'I' for Inactive)
REMARK    1  A    between atoms: N_1  and  C_8 
REMARK       I    between atoms: N_1  and  C_14 
REMARK    2  A    between atoms: N_6  and  C_13 
REMARK    3  A    between atoms: C_8  and  C_16 
REMARK    4  A    between atoms: C_8  and  C_18 
REMARK    5  A    between atoms: C_12  and  C_13 
REMARK    6  A    between atoms: C_12  and  S_15 
REMARK    7  A    between atoms: C_13  and  C_14 
REMARK    8  A    between atoms: C_16  and  O_20 
ROOT
HETATM    1  N           1     -34.987  -1.863 -12.388  0.00  0.00    -0.343 N 
HETATM    2  O           1     -35.111  -1.671 -14.609  0.00  0.00    -0.271 OA
HETATM    3  H           1     -35.211  -1.478 -11.480  0.00  0.00     0.163 HD
HETATM    4  C           1     -35.379  -1.210 -13.525  0.00  0.00     0.249 C 
ENDROOT
BRANCH   1   5
HETATM    5  C           1     -34.248  -3.108 -12.485  0.00  0.00     0.214 C 
BRANCH   5   6
HETATM    6  C           1     -33.077  -3.079 -11.513  0.00  0.00     0.147 C 
HETATM    7  C           1     -33.296  -1.976 -10.486  0.00  0.00     0.042 C 
BRANCH   6   8
HETATM    8  O           1     -32.984  -4.316 -10.857  0.00  0.00    -0.393 OA
HETATM    9  H           1     -33.825  -4.732 -10.939  0.00  0.00     0.210 HD
ENDBRANCH   6   8
ENDBRANCH   5   6
BRANCH   5  10
HETATM   10  C           1     -35.160  -4.261 -12.142  0.00  0.00     0.199 C 
HETATM   11  O           1     -35.174  -5.281 -12.864  0.00  0.00    -0.646 OA
HETATM   12  O           1     -35.898  -4.195 -11.136  0.00  0.00    -0.646 OA
ENDBRANCH   5  10
ENDBRANCH   1   5
BRANCH   4  13
HETATM   13  C           1     -36.148   0.085 -13.424  0.00  0.00     0.283 C 
BRANCH  13  14
HETATM   14  N           1     -35.654   1.040 -14.470  0.00  0.00    -0.066 N 
HETATM   15  H           1     -34.635   1.218 -14.326  0.00  0.00     0.275 HD
HETATM   16  H           1     -36.180   1.940 -14.395  0.00  0.00     0.275 HD
HETATM   17  H           1     -35.804   0.626 -15.418  0.00  0.00     0.275 HD
ENDBRANCH  13  14
BRANCH  13  18
HETATM   18  C           1     -37.630  -0.186 -13.643  0.00  0.00     0.113 C 
BRANCH  18  19
HETATM   19  S           1     -38.073   0.212 -15.358  0.00  0.00    -0.180 SA
HETATM   20  H           1     -37.401   1.376 -15.410  0.00  0.00     0.101 HD
ENDBRANCH  18  19
ENDBRANCH  13  18
ENDBRANCH   4  13
TORSDOF 8
ENDMDL
MODEL 8
REMARK VINA RESULT:      -5.0     10.651     11.670
REMARK  8 active torsions:
REMARK  status: ('A' for Active; 'I' for Inactive)
REMARK    1  A    between atoms: N_1  and  C_8 
REMARK       I    between atoms: N_1  and  C_14 
REMARK    2  A    between atoms: N_6  and  C_13 
REMARK    3  A    between atoms: C_8  and  C_16 
REMARK    4  A    between atoms: C_8  and  C_18 
REMARK    5  A    between atoms: C_12  and  C_13 
REMARK    6  A    between atoms: C_12  and  S_15 
REMARK    7  A    between atoms: C_13  and  C_14 
REMARK    8  A    between atoms: C_16  and  O_20 
ROOT
HETATM    1  N           1     -27.718  -6.292 -18.350  0.00  0.00    -0.343 N 
HETATM    2  O           1     -26.028  -6.158 -16.897  0.00  0.00    -0.271 OA
HETATM    3  H           1     -28.018  -6.433 -19.306  0.00  0.00     0.163 HD
HETATM    4  C           1     -26.386  -6.327 -18.038  0.00  0.00     0.249 C 
ENDROOT
BRANCH   1   5
HETATM    5  C           1     -28.700  -6.053 -17.310  0.00  0.00     0.214 C 
BRANCH   5   6
HETATM    6  C           1     -29.316  -4.674 -17.502  0.00  0.00     0.147 C 
HETATM    7  C           1     -28.423  -3.624 -16.853  0.00  0.00     0.042 C 
BRANCH   6   8
HETATM    8  O           1     -29.437  -4.403 -18.872  0.00  0.00    -0.393 OA
HETATM    9  H           1     -29.292  -3.479 -18.983  0.00  0.00     0.210 HD
ENDBRANCH   6   8
ENDBRANCH   5   6
BRANCH   5  10
HETATM   10  C           1     -29.781  -7.103 -17.387  0.00  0.00     0.199 C 
HETATM   11  O           1     -29.485  -8.313 -17.284  0.00  0.00    -0.646 OA
HETATM   12  O           1     -30.972  -6.762 -17.553  0.00  0.00    -0.646 OA
ENDBRANCH   5  10
ENDBRANCH   1   5
BRANCH   4  13
HETATM   13  C           1     -25.364  -6.576 -19.121  0.00  0.00     0.283 C 
BRANCH  13  14
HETATM   14  N           1     -24.322  -7.529 -18.614  0.00  0.00    -0.066 N 
HETATM   15  H           1     -24.497  -7.729 -17.603  0.00  0.00     0.275 HD
HETATM   16  H           1     -23.376  -7.101 -18.727  0.00  0.00     0.275 HD
HETATM   17  H           1     -24.371  -8.419 -19.158  0.00  0.00     0.275 HD
ENDBRANCH  13  14
BRANCH  13  18
HETATM   18  C           1     -26.052  -7.178 -20.339  0.00  0.00     0.113 C 
BRANCH  18  19
HETATM   19  S           1     -24.804  -7.884 -21.453  0.00  0.00    -0.180 SA
HETATM   20  H           1     -25.346  -7.410 -22.590  0.00  0.00     0.101 HD
ENDBRANCH  18  19
ENDBRANCH  13  18
ENDBRANCH   4  13
TORSDOF 8
ENDMDL
MODEL 9
REMARK VINA RESULT:      -5.0     14.080     15.721
REMARK  8 active torsions:
REMARK  status: ('A' for Active; 'I' for Inactive)
REMARK    1  A    between atoms: N_1  and  C_8 
REMARK       I    between atoms: N_1  and  C_14 
REMARK    2  A    between atoms: N_6  and  C_13 
REMARK    3  A    between atoms: C_8  and  C_16 
REMARK    4  A    between atoms: C_8  and  C_18 
REMARK    5  A    between atoms: C_12  and  C_13 
REMARK    6  A    between atoms: C_12  and  S_15 
REMARK    7  A    between atoms: C_13  and  C_14 
REMARK    8  A    between atoms: C_16  and  O_20 
ROOT
HETATM    1  N           1     -35.849  -0.249 -12.298  0.00  0.00    -0.343 N 
HETATM    2  O           1     -37.648  -0.745 -13.525  0.00  0.00    -0.271 OA
HETATM    3  H           1     -34.950   0.212 -12.242  0.00  0.00     0.163 HD
HETATM    4  C           1     -36.575  -0.194 -13.458  0.00  0.00     0.249 C 
ENDROOT
BRANCH   1   5
HETATM    5  C           1     -36.368  -0.968 -11.151  0.00  0.00     0.214 C 
BRANCH   5   6
HETATM    6  C           1     -35.275  -1.857 -10.573  0.00  0.00     0.147 C 
HETATM    7  C           1     -35.405  -3.260 -11.150  0.00  0.00     0.042 C 
BRANCH   6   8
HETATM    8  O           1     -34.019  -1.328 -10.904  0.00  0.00    -0.393 OA
HETATM    9  H           1     -33.912  -0.540 -10.399  0.00  0.00     0.210 HD
ENDBRANCH   6   8
ENDBRANCH   5   6
BRANCH   5  10
HETATM   10  C           1     -36.822   0.019 -10.103  0.00  0.00     0.199 C 
HETATM   11  O           1     -37.817   0.744 -10.317  0.00  0.00    -0.646 OA
HETATM   12  O           1     -36.204   0.108  -9.020  0.00  0.00    -0.646 OA
ENDBRANCH   5  10
ENDBRANCH   1   5
BRANCH   4  13
HETATM   13  C           1     -36.034   0.554 -14.651  0.00  0.00     0.283 C 
BRANCH  13  14
HETATM   14  N           1     -34.541   0.416 -14.692  0.00  0.00    -0.066 N 
HETATM   15  H           1     -34.167   0.929 -15.523  0.00  0.00     0.275 HD
HETATM   16  H           1     -34.287  -0.595 -14.762  0.00  0.00     0.275 HD
HETATM   17  H           1     -34.130   0.821 -13.821  0.00  0.00     0.275 HD
ENDBRANCH  13  14
BRANCH  13  18
HETATM   18  C           1     -36.632  -0.025 -15.927  0.00  0.00     0.113 C 
BRANCH  18  19
HETATM   19  S           1     -35.542  -1.325 -16.572  0.00  0.00    -0.180 SA
HETATM   20  H           1     -34.395  -0.640 -16.414  0.00  0.00     0.101 HD
ENDBRANCH  18  19
ENDBRANCH  13  18
ENDBRANCH   4  13
TORSDOF 8
ENDMDL
