MODEL 1
REMARK VINA RESULT:      -7.3      0.000      0.000
REMARK  5 active torsions:
REMARK  status: ('A' for Active; 'I' for Inactive)
REMARK    1  A    between atoms: C_7  and  C_8 
REMARK    2  A    between atoms: C_8  and  C_9 
REMARK    3  A    between atoms: C_9  and  C_10 
REMARK    4  A    between atoms: C_9  and  N_13 
REMARK       I    between atoms: C_10  and  N_14 
REMARK    5  A    between atoms: C_20  and  C_22 
ROOT
HETATM    1  C           1     -35.834  -0.513 -11.590  0.00  0.00     0.279 C 
ENDROOT
BRANCH   1   2
HETATM    2  C           1     -35.890  -1.600 -10.525  0.00  0.00     0.081 C 
BRANCH   2   3
HETATM    3  C           1     -34.985  -2.729 -10.914  0.00  0.00    -0.056 A 
HETATM    4  C           1     -33.663  -2.469 -11.273  0.00  0.00     0.007 A 
HETATM    5  C           1     -32.820  -3.520 -11.637  0.00  0.00     0.001 A 
HETATM    6  C           1     -33.301  -4.829 -11.640  0.00  0.00     0.000 A 
HETATM    7  C           1     -34.623  -5.089 -11.281  0.00  0.00     0.001 A 
HETATM    8  C           1     -35.466  -4.038 -10.917  0.00  0.00     0.007 A 
ENDBRANCH   2   3
ENDBRANCH   1   2
BRANCH   1   9
HETATM    9  C           1     -37.042  -0.626 -12.488  0.00  0.00     0.251 C 
HETATM   10  N           1     -36.966  -0.217 -13.792  0.00  0.00    -0.336 N 
HETATM   11  C           1     -38.039   0.335 -14.615  0.00  0.00     0.127 C 
HETATM   12  C           1     -35.796  -0.237 -14.664  0.00  0.00     0.188 C 
HETATM   13  C           1     -37.824  -0.311 -15.972  0.00  0.00     0.022 C 
HETATM   14  C           1     -36.349  -0.693 -16.003  0.00  0.00     0.038 C 
HETATM   15  O           1     -38.075  -1.076 -12.055  0.00  0.00    -0.271 OA
BRANCH  12  16
HETATM   16  C           1     -35.184   1.137 -14.775  0.00  0.00     0.196 C 
HETATM   17  O           1     -35.449   1.862 -15.759  0.00  0.00    -0.646 OA
HETATM   18  O           1     -34.412   1.551 -13.885  0.00  0.00    -0.646 OA
ENDBRANCH  12  16
ENDBRANCH   1   9
BRANCH   1  19
HETATM   19  N           1     -35.827   0.833 -10.929  0.00  0.00    -0.066 N 
HETATM   20  H           1     -36.324   1.522 -11.537  0.00  0.00     0.275 HD
HETATM   21  H           1     -34.840   1.144 -10.784  0.00  0.00     0.275 HD
HETATM   22  H           1     -36.312   0.771 -10.006  0.00  0.00     0.275 HD
ENDBRANCH   1  19
TORSDOF 5
ENDMDL
MODEL 2
REMARK VINA RESULT:      -6.7     16.275     18.559
REMARK  5 active torsions:
REMARK  status: ('A' for Active; 'I' for Inactive)
REMARK    1  A    between atoms: C_7  and  C_8 
REMARK    2  A    between atoms: C_8  and  C_9 
REMARK    3  A    between atoms: C_9  and  C_10 
REMARK    4  A    between atoms: C_9  and  N_13 
REMARK       I    between atoms: C_10  and  N_14 
REMARK    5  A    between atoms: C_20  and  C_22 
ROOT
HETATM    1  C           1     -20.754  -8.707  -4.282  0.00  0.00     0.279 C 
ENDROOT
BRANCH   1   2
HETATM    2  C           1     -19.978  -8.843  -2.979  0.00  0.00     0.081 C 
BRANCH   2   3
HETATM    3  C           1     -20.865  -8.476  -1.829  0.00  0.00    -0.056 A 
HETATM    4  C           1     -20.953  -9.318  -0.721  0.00  0.00     0.007 A 
HETATM    5  C           1     -21.779  -8.977   0.351  0.00  0.00     0.001 A 
HETATM    6  C           1     -22.517  -7.794   0.312  0.00  0.00     0.000 A 
HETATM    7  C           1     -22.429  -6.952  -0.796  0.00  0.00     0.001 A 
HETATM    8  C           1     -21.603  -7.293  -1.867  0.00  0.00     0.007 A 
ENDBRANCH   2   3
ENDBRANCH   1   2
BRANCH   1   9
HETATM    9  C           1     -19.870  -8.076  -5.331  0.00  0.00     0.251 C 
HETATM   10  N           1     -20.177  -6.839  -5.830  0.00  0.00    -0.336 N 
HETATM   11  C           1     -19.899  -6.327  -7.169  0.00  0.00     0.127 C 
HETATM   12  C           1     -20.853  -5.744  -5.141  0.00  0.00     0.188 C 
HETATM   13  C           1     -19.468  -4.891  -6.926  0.00  0.00     0.022 C 
HETATM   14  C           1     -20.092  -4.509  -5.589  0.00  0.00     0.038 C 
HETATM   15  O           1     -18.893  -8.663  -5.728  0.00  0.00    -0.271 OA
BRANCH  12  16
HETATM   16  C           1     -22.302  -5.661  -5.555  0.00  0.00     0.196 C 
HETATM   17  O           1     -22.653  -4.854  -6.443  0.00  0.00    -0.646 OA
HETATM   18  O           1     -23.150  -6.399  -5.010  0.00  0.00    -0.646 OA
ENDBRANCH  12  16
ENDBRANCH   1   9
BRANCH   1  19
HETATM   19  N           1     -21.189 -10.065  -4.748  0.00  0.00    -0.066 N 
HETATM   20  H           1     -21.116 -10.116  -5.789  0.00  0.00     0.275 HD
HETATM   21  H           1     -22.180 -10.230  -4.459  0.00  0.00     0.275 HD
HETATM   22  H           1     -20.576 -10.794  -4.319  0.00  0.00     0.275 HD
ENDBRANCH   1  19
TORSDOF 5
ENDMDL
MODEL 3
REMARK VINA RESULT:      -6.6     15.619     18.579
REMARK  5 active torsions:
REMARK  status: ('A' for Active; 'I' for Inactive)
REMARK    1  A    between atoms: C_7  and  C_8 
REMARK    2  A    between atoms: C_8  and  C_9 
REMARK    3  A    between atoms: C_9  and  C_10 
REMARK    4  A    between atoms: C_9  and  N_13 
REMARK       I    between atoms: C_10  and  N_14 
REMARK    5  A    between atoms: C_20  and  C_22 
ROOT
HETATM    1  C           1     -20.398  -6.323  -5.663  0.00  0.00     0.279 C 
ENDROOT
BRANCH   1   2
HETATM    2  C           1     -20.494  -4.814  -5.849  0.00  0.00     0.081 C 
BRANCH   2   3
HETATM    3  C           1     -20.876  -4.509  -7.265  0.00  0.00    -0.056 A 
HETATM    4  C           1     -19.922  -4.599  -8.279  0.00  0.00     0.007 A 
HETATM    5  C           1     -20.277  -4.315  -9.598  0.00  0.00     0.001 A 
HETATM    6  C           1     -21.586  -3.940  -9.901  0.00  0.00     0.000 A 
HETATM    7  C           1     -22.539  -3.850  -8.888  0.00  0.00     0.001 A 
HETATM    8  C           1     -22.185  -4.134  -7.569  0.00  0.00     0.007 A 
ENDBRANCH   2   3
ENDBRANCH   1   2
BRANCH   1   9
HETATM    9  C           1     -20.956  -6.699  -4.311  0.00  0.00     0.251 C 
HETATM   10  N           1     -20.651  -7.913  -3.759  0.00  0.00    -0.336 N 
HETATM   11  C           1     -21.480  -8.717  -2.865  0.00  0.00     0.127 C 
HETATM   12  C           1     -19.425  -8.687  -3.934  0.00  0.00     0.188 C 
HETATM   13  C           1     -20.494  -9.258  -1.844  0.00  0.00     0.022 C 
HETATM   14  C           1     -19.141  -9.234  -2.546  0.00  0.00     0.038 C 
HETATM   15  O           1     -21.672  -5.928  -3.719  0.00  0.00    -0.271 OA
BRANCH  12  16
HETATM   16  C           1     -19.635  -9.809  -4.921  0.00  0.00     0.196 C 
HETATM   17  O           1     -18.912 -10.828  -4.871  0.00  0.00    -0.646 OA
HETATM   18  O           1     -20.530  -9.720  -5.787  0.00  0.00    -0.646 OA
ENDBRANCH  12  16
ENDBRANCH   1   9
BRANCH   1  19
HETATM   19  N           1     -21.188  -7.009  -6.737  0.00  0.00    -0.066 N 
HETATM   20  H           1     -20.958  -6.585  -7.664  0.00  0.00     0.275 HD
HETATM   21  H           1     -22.209  -6.895  -6.544  0.00  0.00     0.275 HD
HETATM   22  H           1     -20.948  -8.026  -6.751  0.00  0.00     0.275 HD
ENDBRANCH   1  19
TORSDOF 5
ENDMDL
MODEL 4
REMARK VINA RESULT:      -6.5     14.774     17.605
REMARK  5 active torsions:
REMARK  status: ('A' for Active; 'I' for Inactive)
REMARK    1  A    between atoms: C_7  and  C_8 
REMARK    2  A    between atoms: C_8  and  C_9 
REMARK    3  A    between atoms: C_9  and  C_10 
REMARK    4  A    between atoms: C_9  and  N_13 
REMARK       I    between atoms: C_10  and  N_14 
REMARK    5  A    between atoms: C_20  and  C_22 
ROOT
HETATM    1  C           1     -20.580  -5.085  -6.235  0.00  0.00     0.279 C 
ENDROOT
BRANCH   1   2
HETATM    2  C           1     -20.155  -4.296  -7.468  0.00  0.00     0.081 C 
BRANCH   2   3
HETATM    3  C           1     -21.286  -4.252  -8.447  0.00  0.00    -0.056 A 
HETATM    4  C           1     -21.026  -4.306  -9.816  0.00  0.00     0.007 A 
HETATM    5  C           1     -22.079  -4.264 -10.729  0.00  0.00     0.001 A 
HETATM    6  C           1     -23.394  -4.167 -10.272  0.00  0.00     0.000 A 
HETATM    7  C           1     -23.655  -4.113  -8.904  0.00  0.00     0.001 A 
HETATM    8  C           1     -22.601  -4.155  -7.990  0.00  0.00     0.007 A 
ENDBRANCH   2   3
ENDBRANCH   1   2
BRANCH   1   9
HETATM    9  C           1     -20.021  -6.485  -6.316  0.00  0.00     0.251 C 
HETATM   10  N           1     -20.366  -7.415  -5.374  0.00  0.00    -0.336 N 
HETATM   11  C           1     -19.558  -8.529  -4.886  0.00  0.00     0.127 C 
HETATM   12  C           1     -21.622  -7.510  -4.635  0.00  0.00     0.188 C 
HETATM   13  C           1     -20.552  -9.671  -4.762  0.00  0.00     0.022 C 
HETATM   14  C           1     -21.912  -9.000  -4.601  0.00  0.00     0.038 C 
HETATM   15  O           1     -19.270  -6.783  -7.213  0.00  0.00    -0.271 OA
BRANCH  12  16
HETATM   16  C           1     -21.467  -6.961  -3.238  0.00  0.00     0.196 C 
HETATM   17  O           1     -21.556  -5.730  -3.037  0.00  0.00    -0.646 OA
HETATM   18  O           1     -21.250  -7.736  -2.283  0.00  0.00    -0.646 OA
ENDBRANCH  12  16
ENDBRANCH   1   9
BRANCH   1  19
HETATM   19  N           1     -20.055  -4.408  -5.004  0.00  0.00    -0.066 N 
HETATM   20  H           1     -19.010  -4.416  -5.021  0.00  0.00     0.275 HD
HETATM   21  H           1     -20.394  -4.917  -4.157  0.00  0.00     0.275 HD
HETATM   22  H           1     -20.395  -3.421  -4.977  0.00  0.00     0.275 HD
ENDBRANCH   1  19
TORSDOF 5
ENDMDL
MODEL 5
REMARK VINA RESULT:      -6.5      1.829      2.495
REMARK  5 active torsions:
REMARK  status: ('A' for Active; 'I' for Inactive)
REMARK    1  A    between atoms: C_7  and  C_8 
REMARK    2  A    between atoms: C_8  and  C_9 
REMARK    3  A    between atoms: C_9  and  C_10 
REMARK    4  A    between atoms: C_9  and  N_13 
REMARK       I    between atoms: C_10  and  N_14 
REMARK    5  A    between atoms: C_20  and  C_22 
ROOT
HETATM    1  C           1     -35.325  -1.772 -12.768  0.00  0.00     0.279 C 
ENDROOT
BRANCH   1   2
HETATM    2  C           1     -34.913  -2.042 -11.327  0.00  0.00     0.081 C 
BRANCH   2   3
HETATM    3  C           1     -34.422  -3.451 -11.204  0.00  0.00    -0.056 A 
HETATM    4  C           1     -33.104  -3.761 -11.537  0.00  0.00     0.007 A 
HETATM    5  C           1     -32.645  -5.074 -11.423  0.00  0.00     0.001 A 
HETATM    6  C           1     -33.507  -6.076 -10.976  0.00  0.00     0.000 A 
HETATM    7  C           1     -34.825  -5.766 -10.643  0.00  0.00     0.001 A 
HETATM    8  C           1     -35.283  -4.453 -10.757  0.00  0.00     0.007 A 
ENDBRANCH   2   3
ENDBRANCH   1   2
BRANCH   1   9
HETATM    9  C           1     -35.123  -0.310 -13.084  0.00  0.00     0.251 C 
HETATM   10  N           1     -35.491   0.185 -14.306  0.00  0.00    -0.336 N 
HETATM   11  C           1     -34.881   1.291 -15.038  0.00  0.00     0.127 C 
HETATM   12  C           1     -36.579  -0.280 -15.162  0.00  0.00     0.188 C 
HETATM   13  C           1     -36.068   2.035 -15.626  0.00  0.00     0.022 C 
HETATM   14  C           1     -37.187   1.003 -15.702  0.00  0.00     0.038 C 
HETATM   15  O           1     -34.635   0.424 -12.258  0.00  0.00    -0.271 OA
BRANCH  12  16
HETATM   16  C           1     -36.051  -1.138 -16.285  0.00  0.00     0.196 C 
HETATM   17  O           1     -36.515  -1.013 -17.439  0.00  0.00    -0.646 OA
HETATM   18  O           1     -35.151  -1.975 -16.061  0.00  0.00    -0.646 OA
ENDBRANCH  12  16
ENDBRANCH   1   9
BRANCH   1  19
HETATM   19  N           1     -34.484  -2.603 -13.692  0.00  0.00    -0.066 N 
HETATM   20  H           1     -35.095  -3.274 -14.210  0.00  0.00     0.275 HD
HETATM   21  H           1     -33.776  -3.132 -13.135  0.00  0.00     0.275 HD
HETATM   22  H           1     -33.995  -1.980 -14.374  0.00  0.00     0.275 HD
ENDBRANCH   1  19
TORSDOF 5
ENDMDL
MODEL 6
REMARK VINA RESULT:      -6.4     17.072     19.240
REMARK  5 active torsions:
REMARK  status: ('A' for Active; 'I' for Inactive)
REMARK    1  A    between atoms: C_7  and  C_8 
REMARK    2  A    between atoms: C_8  and  C_9 
REMARK    3  A    between atoms: C_9  and  C_10 
REMARK    4  A    between atoms: C_9  and  N_13 
REMARK       I    between atoms: C_10  and  N_14 
REMARK    5  A    between atoms: C_20  and  C_22 
ROOT
HETATM    1  C           1     -21.392  -8.176  -1.834  0.00  0.00     0.279 C 
ENDROOT
BRANCH   1   2
HETATM    2  C           1     -22.232  -8.233  -0.564  0.00  0.00     0.081 C 
BRANCH   2   3
HETATM    3  C           1     -22.424  -9.661  -0.156  0.00  0.00    -0.056 A 
HETATM    4  C           1     -23.660 -10.279  -0.346  0.00  0.00     0.007 A 
HETATM    5  C           1     -23.840 -11.610   0.034  0.00  0.00     0.001 A 
HETATM    6  C           1     -22.784 -12.320   0.605  0.00  0.00     0.000 A 
HETATM    7  C           1     -21.548 -11.702   0.795  0.00  0.00     0.001 A 
HETATM    8  C           1     -21.368 -10.372   0.414  0.00  0.00     0.007 A 
ENDBRANCH   2   3
ENDBRANCH   1   2
BRANCH   1   9
HETATM    9  C           1     -21.703  -6.905  -2.586  0.00  0.00     0.251 C 
HETATM   10  N           1     -21.317  -6.772  -3.893  0.00  0.00    -0.336 N 
HETATM   11  C           1     -20.949  -5.543  -4.590  0.00  0.00     0.127 C 
HETATM   12  C           1     -21.185  -7.826  -4.893  0.00  0.00     0.188 C 
HETATM   13  C           1     -21.588  -5.697  -5.959  0.00  0.00     0.022 C 
HETATM   14  C           1     -21.748  -7.200  -6.157  0.00  0.00     0.038 C 
HETATM   15  O           1     -22.291  -6.006  -2.035  0.00  0.00    -0.271 OA
BRANCH  12  16
HETATM   16  C           1     -19.738  -8.210  -5.082  0.00  0.00     0.196 C 
HETATM   17  O           1     -19.095  -8.711  -4.134  0.00  0.00    -0.646 OA
HETATM   18  O           1     -19.182  -8.025  -6.185  0.00  0.00    -0.646 OA
ENDBRANCH  12  16
ENDBRANCH   1   9
BRANCH   1  19
HETATM   19  N           1     -19.937  -8.198  -1.470  0.00  0.00    -0.066 N 
HETATM   20  H           1     -19.824  -7.928  -0.467  0.00  0.00     0.275 HD
HETATM   21  H           1     -19.418  -7.522  -2.075  0.00  0.00     0.275 HD
HETATM   22  H           1     -19.555  -9.160  -1.616  0.00  0.00     0.275 HD
ENDBRANCH   1  19
TORSDOF 5
ENDMDL
MODEL 7
REMARK VINA RESULT:      -6.3     26.960     28.745
REMARK  5 active torsions:
REMARK  status: ('A' for Active; 'I' for Inactive)
REMARK    1  A    between atoms: C_7  and  C_8 
REMARK    2  A    between atoms: C_8  and  C_9 
REMARK    3  A    between atoms: C_9  and  C_10 
REMARK    4  A    between atoms: C_9  and  N_13 
REMARK       I    between atoms: C_10  and  N_14 
REMARK    5  A    between atoms: C_20  and  C_22 
ROOT
HETATM    1  C           1     -14.564  10.046   5.836  0.00  0.00     0.279 C 
ENDROOT
BRANCH   1   2
HETATM    2  C           1     -13.576   9.041   5.258  0.00  0.00     0.081 C 
BRANCH   2   3
HETATM    3  C           1     -13.780   8.933   3.778  0.00  0.00    -0.056 A 
HETATM    4  C           1     -14.621   7.949   3.261  0.00  0.00     0.007 A 
HETATM    5  C           1     -14.812   7.848   1.882  0.00  0.00     0.001 A 
HETATM    6  C           1     -14.161   8.733   1.023  0.00  0.00     0.000 A 
HETATM    7  C           1     -13.320   9.718   1.540  0.00  0.00     0.001 A 
HETATM    8  C           1     -13.129   9.818   2.919  0.00  0.00     0.007 A 
ENDBRANCH   2   3
ENDBRANCH   1   2
BRANCH   1   9
HETATM    9  C           1     -15.819   9.326   6.267  0.00  0.00     0.251 C 
HETATM   10  N           1     -17.024   9.661   5.712  0.00  0.00    -0.336 N 
HETATM   11  C           1     -18.342   9.593   6.339  0.00  0.00     0.127 C 
HETATM   12  C           1     -17.274  10.166   4.365  0.00  0.00     0.188 C 
HETATM   13  C           1     -19.242   9.068   5.234  0.00  0.00     0.022 C 
HETATM   14  C           1     -18.537   9.441   3.935  0.00  0.00     0.038 C 
HETATM   15  O           1     -15.759   8.456   7.101  0.00  0.00    -0.271 OA
BRANCH  12  16
HETATM   16  C           1     -17.491  11.659   4.381  0.00  0.00     0.196 C 
HETATM   17  O           1     -16.778  12.386   5.106  0.00  0.00    -0.646 OA
HETATM   18  O           1     -18.384  12.168   3.671  0.00  0.00    -0.646 OA
ENDBRANCH  12  16
ENDBRANCH   1   9
BRANCH   1  19
HETATM   19  N           1     -13.947  10.726   7.022  0.00  0.00    -0.066 N 
HETATM   20  H           1     -13.059  11.195   6.732  0.00  0.00     0.275 HD
HETATM   21  H           1     -13.742  10.016   7.762  0.00  0.00     0.275 HD
HETATM   22  H           1     -14.610  11.439   7.399  0.00  0.00     0.275 HD
ENDBRANCH   1  19
TORSDOF 5
ENDMDL
MODEL 8
REMARK VINA RESULT:      -6.3     17.843     19.573
REMARK  5 active torsions:
REMARK  status: ('A' for Active; 'I' for Inactive)
REMARK    1  A    between atoms: C_7  and  C_8 
REMARK    2  A    between atoms: C_8  and  C_9 
REMARK    3  A    between atoms: C_9  and  C_10 
REMARK    4  A    between atoms: C_9  and  N_13 
REMARK       I    between atoms: C_10  and  N_14 
REMARK    5  A    between atoms: C_20  and  C_22 
ROOT
HETATM    1  C           1     -21.931  -8.891  -0.424  0.00  0.00     0.279 C 
ENDROOT
BRANCH   1   2
HETATM    2  C           1     -23.268  -9.524  -0.061  0.00  0.00     0.081 C 
BRANCH   2   3
HETATM    3  C           1     -23.310 -10.930  -0.574  0.00  0.00    -0.056 A 
HETATM    4  C           1     -23.627 -11.978   0.290  0.00  0.00     0.007 A 
HETATM    5  C           1     -23.666 -13.288  -0.186  0.00  0.00     0.001 A 
HETATM    6  C           1     -23.388 -13.550  -1.528  0.00  0.00     0.000 A 
HETATM    7  C           1     -23.072 -12.502  -2.392  0.00  0.00     0.001 A 
HETATM    8  C           1     -23.033 -11.192  -1.916  0.00  0.00     0.007 A 
ENDBRANCH   2   3
ENDBRANCH   1   2
BRANCH   1   9
HETATM    9  C           1     -22.171  -7.598  -1.166  0.00  0.00     0.251 C 
HETATM   10  N           1     -21.620  -7.407  -2.404  0.00  0.00    -0.336 N 
HETATM   11  C           1     -21.193  -6.145  -3.002  0.00  0.00     0.127 C 
HETATM   12  C           1     -21.329  -8.420  -3.415  0.00  0.00     0.188 C 
HETATM   13  C           1     -21.641  -6.260  -4.450  0.00  0.00     0.022 C 
HETATM   14  C           1     -21.735  -7.757  -4.720  0.00  0.00     0.038 C 
HETATM   15  O           1     -22.850  -6.734  -0.667  0.00  0.00    -0.271 OA
BRANCH  12  16
HETATM   16  C           1     -19.860  -8.766  -3.422  0.00  0.00     0.196 C 
HETATM   17  O           1     -19.288  -9.083  -2.357  0.00  0.00    -0.646 OA
HETATM   18  O           1     -19.216  -8.734  -4.492  0.00  0.00    -0.646 OA
ENDBRANCH  12  16
ENDBRANCH   1   9
BRANCH   1  19
HETATM   19  N           1     -21.155  -8.610   0.828  0.00  0.00    -0.066 N 
HETATM   20  H           1     -21.042  -9.494   1.374  0.00  0.00     0.275 HD
HETATM   21  H           1     -21.670  -7.907   1.405  0.00  0.00     0.275 HD
HETATM   22  H           1     -20.214  -8.233   0.578  0.00  0.00     0.275 HD
ENDBRANCH   1  19
TORSDOF 5
ENDMDL
MODEL 9
REMARK VINA RESULT:      -6.3     16.748     19.700
REMARK  5 active torsions:
REMARK  status: ('A' for Active; 'I' for Inactive)
REMARK    1  A    between atoms: C_7  and  C_8 
REMARK    2  A    between atoms: C_8  and  C_9 
REMARK    3  A    between atoms: C_9  and  C_10 
REMARK    4  A    between atoms: C_9  and  N_13 
REMARK       I    between atoms: C_10  and  N_14 
REMARK    5  A    between atoms: C_20  and  C_22 
ROOT
HETATM    1  C           1     -20.372  -7.430  -5.123  0.00  0.00     0.279 C 
ENDROOT
BRANCH   1   2
HETATM    2  C           1     -20.969  -6.040  -4.936  0.00  0.00     0.081 C 
BRANCH   2   3
HETATM    3  C           1     -20.857  -5.272  -6.217  0.00  0.00    -0.056 A 
HETATM    4  C           1     -22.008  -4.837  -6.872  0.00  0.00     0.007 A 
HETATM    5  C           1     -21.904  -4.122  -8.065  0.00  0.00     0.001 A 
HETATM    6  C           1     -20.647  -3.843  -8.603  0.00  0.00     0.000 A 
HETATM    7  C           1     -19.496  -4.279  -7.948  0.00  0.00     0.001 A 
HETATM    8  C           1     -19.600  -4.994  -6.755  0.00  0.00     0.007 A 
ENDBRANCH   2   3
ENDBRANCH   1   2
BRANCH   1   9
HETATM    9  C           1     -20.332  -8.142  -3.793  0.00  0.00     0.251 C 
HETATM   10  N           1     -19.466  -9.184  -3.600  0.00  0.00    -0.336 N 
HETATM   11  C           1     -19.649 -10.345  -2.734  0.00  0.00     0.127 C 
HETATM   12  C           1     -18.156  -9.377  -4.216  0.00  0.00     0.188 C 
HETATM   13  C           1     -18.280 -10.552  -2.110  0.00  0.00     0.022 C 
HETATM   14  C           1     -17.297  -9.911  -3.083  0.00  0.00     0.038 C 
HETATM   15  O           1     -21.065  -7.794  -2.899  0.00  0.00    -0.271 OA
BRANCH  12  16
HETATM   16  C           1     -18.235 -10.375  -5.346  0.00  0.00     0.196 C 
HETATM   17  O           1     -19.150 -10.288  -6.193  0.00  0.00    -0.646 OA
HETATM   18  O           1     -17.387 -11.287  -5.434  0.00  0.00    -0.646 OA
ENDBRANCH  12  16
ENDBRANCH   1   9
BRANCH   1  19
HETATM   19  N           1     -21.219  -8.212  -6.083  0.00  0.00    -0.066 N 
HETATM   20  H           1     -20.874  -9.197  -6.128  0.00  0.00     0.275 HD
HETATM   21  H           1     -21.161  -7.776  -7.031  0.00  0.00     0.275 HD
HETATM   22  H           1     -22.212  -8.205  -5.757  0.00  0.00     0.275 HD
ENDBRANCH   1  19
TORSDOF 5
ENDMDL
