MODEL 1
REMARK VINA RESULT:      -6.8      0.000      0.000
REMARK  12 active torsions:
REMARK  status: ('A' for Active; 'I' for Inactive)
REMARK       I    between atoms: N_1  and  C_2 
REMARK    1  A    between atoms: C_2  and  C_20 
REMARK    2  A    between atoms: C_5  and  C_18 
REMARK    3  A    between atoms: N_11  and  C_23 
REMARK    4  A    between atoms: N_13  and  C_18 
REMARK       I    between atoms: N_13  and  C_17 
REMARK    5  A    between atoms: N_15  and  C_28 
REMARK    6  A    between atoms: C_17  and  C_23 
REMARK    7  A    between atoms: C_18  and  C_19 
REMARK    8  A    between atoms: C_19  and  C_20 
REMARK    9  A    between atoms: C_23  and  C_25 
REMARK   10  A    between atoms: C_25  and  C_26 
REMARK   11  A    between atoms: C_26  and  C_27 
REMARK   12  A    between atoms: C_27  and  C_28 
ROOT
HETATM    1  O           1     -26.229  -5.921 -17.210  0.00  0.00    -0.271 OA
HETATM    2  N           1     -27.638  -6.483 -18.848  0.00  0.00    -0.345 N 
HETATM    3  H           1     -27.761  -6.811 -19.798  0.00  0.00     0.163 HD
HETATM    4  C           1     -26.377  -6.312 -18.343  0.00  0.00     0.249 C 
ENDROOT
BRANCH   4   5
HETATM    5  C           1     -25.172  -6.612 -19.201  0.00  0.00     0.274 C 
BRANCH   5   6
HETATM    6  N           1     -24.347  -7.680 -18.545  0.00  0.00    -0.067 N 
HETATM    7  H           1     -23.385  -7.676 -18.954  0.00  0.00     0.275 HD
HETATM    8  H           1     -24.291  -7.494 -17.519  0.00  0.00     0.275 HD
HETATM    9  H           1     -24.791  -8.611 -18.708  0.00  0.00     0.275 HD
ENDBRANCH   5   6
BRANCH   5  10
HETATM   10  C           1     -25.632  -7.096 -20.570  0.00  0.00     0.042 C 
BRANCH  10  11
HETATM   11  C           1     -24.695  -8.189 -21.065  0.00  0.00     0.004 C 
BRANCH  11  12
HETATM   12  C           1     -24.065  -7.759 -22.384  0.00  0.00     0.027 C 
BRANCH  12  13
HETATM   13  C           1     -22.736  -8.478 -22.571  0.00  0.00     0.229 C 
BRANCH  13  14
HETATM   14  N           1     -22.384  -9.214 -21.313  0.00  0.00    -0.079 N 
HETATM   15  H           1     -21.419  -8.949 -21.011  0.00  0.00     0.274 HD
HETATM   16  H           1     -23.064  -8.965 -20.561  0.00  0.00     0.274 HD
HETATM   17  H           1     -22.422 -10.244 -21.489  0.00  0.00     0.274 HD
ENDBRANCH  13  14
ENDBRANCH  12  13
ENDBRANCH  11  12
ENDBRANCH  10  11
ENDBRANCH   5  10
ENDBRANCH   4   5
BRANCH   2  18
HETATM   18  C           1     -28.795  -6.194 -18.025  0.00  0.00     0.186 C 
BRANCH  18  19
HETATM   19  C           1     -29.775  -7.338 -18.117  0.00  0.00     0.196 C 
HETATM   20  O           1     -29.612  -8.232 -18.974  0.00  0.00    -0.646 OA
HETATM   21  O           1     -30.749  -7.392 -17.335  0.00  0.00    -0.646 OA
ENDBRANCH  18  19
BRANCH  18  22
HETATM   22  C           1     -29.459  -4.914 -18.515  0.00  0.00     0.045 C 
BRANCH  22  23
HETATM   23  C           1     -29.831  -4.044 -17.320  0.00  0.00     0.105 C 
BRANCH  23  24
HETATM   24  C           1     -31.330  -3.903 -17.247  0.00  0.00     0.215 C 
HETATM   25  N           1     -32.073  -4.826 -16.561  0.00  0.00    -0.370 N 
HETATM   26  H           1     -31.616  -5.604 -16.104  0.00  0.00     0.159 HD
HETATM   27  H           1     -33.079  -4.731 -16.512  0.00  0.00     0.159 HD
HETATM   28  O           1     -31.877  -2.974 -17.793  0.00  0.00    -0.274 OA
ENDBRANCH  23  24
ENDBRANCH  22  23
ENDBRANCH  18  22
ENDBRANCH   2  18
TORSDOF 12
ENDMDL
MODEL 2
REMARK VINA RESULT:      -6.3      2.068      2.608
REMARK  12 active torsions:
REMARK  status: ('A' for Active; 'I' for Inactive)
REMARK       I    between atoms: N_1  and  C_2 
REMARK    1  A    between atoms: C_2  and  C_20 
REMARK    2  A    between atoms: C_5  and  C_18 
REMARK    3  A    between atoms: N_11  and  C_23 
REMARK    4  A    between atoms: N_13  and  C_18 
REMARK       I    between atoms: N_13  and  C_17 
REMARK    5  A    between atoms: N_15  and  C_28 
REMARK    6  A    between atoms: C_17  and  C_23 
REMARK    7  A    between atoms: C_18  and  C_19 
REMARK    8  A    between atoms: C_19  and  C_20 
REMARK    9  A    between atoms: C_23  and  C_25 
REMARK   10  A    between atoms: C_25  and  C_26 
REMARK   11  A    between atoms: C_26  and  C_27 
REMARK   12  A    between atoms: C_27  and  C_28 
ROOT
HETATM    1  O           1     -24.843  -6.419 -18.257  0.00  0.00    -0.271 OA
HETATM    2  N           1     -27.052  -6.432 -17.931  0.00  0.00    -0.345 N 
HETATM    3  H           1     -27.973  -6.621 -18.307  0.00  0.00     0.163 HD
HETATM    4  C           1     -25.942  -6.644 -18.704  0.00  0.00     0.249 C 
ENDROOT
BRANCH   4   5
HETATM    5  C           1     -26.092  -7.159 -20.115  0.00  0.00     0.274 C 
BRANCH   5   6
HETATM    6  N           1     -26.471  -6.026 -21.022  0.00  0.00    -0.067 N 
HETATM    7  H           1     -27.511  -5.932 -21.045  0.00  0.00     0.275 HD
HETATM    8  H           1     -26.048  -5.140 -20.666  0.00  0.00     0.275 HD
HETATM    9  H           1     -26.117  -6.219 -21.986  0.00  0.00     0.275 HD
ENDBRANCH   5   6
BRANCH   5  10
HETATM   10  C           1     -24.771  -7.760 -20.579  0.00  0.00     0.042 C 
BRANCH  10  11
HETATM   11  C           1     -24.504  -7.350 -22.021  0.00  0.00     0.004 C 
BRANCH  11  12
HETATM   12  C           1     -23.392  -8.216 -22.598  0.00  0.00     0.027 C 
BRANCH  12  13
HETATM   13  C           1     -22.415  -8.593 -21.493  0.00  0.00     0.229 C 
BRANCH  13  14
HETATM   14  N           1     -21.235  -9.300 -22.088  0.00  0.00    -0.079 N 
HETATM   15  H           1     -21.439  -9.544 -23.083  0.00  0.00     0.274 HD
HETATM   16  H           1     -20.397  -8.677 -22.047  0.00  0.00     0.274 HD
HETATM   17  H           1     -21.044 -10.175 -21.547  0.00  0.00     0.274 HD
ENDBRANCH  13  14
ENDBRANCH  12  13
ENDBRANCH  11  12
ENDBRANCH  10  11
ENDBRANCH   5  10
ENDBRANCH   4   5
BRANCH   2  18
HETATM   18  C           1     -26.908  -5.938 -16.577  0.00  0.00     0.186 C 
BRANCH  18  19
HETATM   19  C           1     -26.666  -7.098 -15.642  0.00  0.00     0.196 C 
HETATM   20  O           1     -27.634  -7.691 -15.120  0.00  0.00    -0.646 OA
HETATM   21  O           1     -25.498  -7.465 -15.390  0.00  0.00    -0.646 OA
ENDBRANCH  18  19
BRANCH  18  22
HETATM   22  C           1     -28.182  -5.210 -16.165  0.00  0.00     0.045 C 
BRANCH  22  23
HETATM   23  C           1     -28.247  -3.862 -16.873  0.00  0.00     0.105 C 
BRANCH  23  24
HETATM   24  C           1     -29.442  -3.833 -17.793  0.00  0.00     0.215 C 
HETATM   25  N           1     -30.453  -2.936 -17.574  0.00  0.00    -0.370 N 
HETATM   26  H           1     -30.399  -2.293 -16.795  0.00  0.00     0.159 HD
HETATM   27  H           1     -31.254  -2.916 -18.191  0.00  0.00     0.159 HD
HETATM   28  O           1     -29.507  -4.600 -18.723  0.00  0.00    -0.274 OA
ENDBRANCH  23  24
ENDBRANCH  22  23
ENDBRANCH  18  22
ENDBRANCH   2  18
TORSDOF 12
ENDMDL
MODEL 3
REMARK VINA RESULT:      -6.1      2.476      6.589
REMARK  12 active torsions:
REMARK  status: ('A' for Active; 'I' for Inactive)
REMARK       I    between atoms: N_1  and  C_2 
REMARK    1  A    between atoms: C_2  and  C_20 
REMARK    2  A    between atoms: C_5  and  C_18 
REMARK    3  A    between atoms: N_11  and  C_23 
REMARK    4  A    between atoms: N_13  and  C_18 
REMARK       I    between atoms: N_13  and  C_17 
REMARK    5  A    between atoms: N_15  and  C_28 
REMARK    6  A    between atoms: C_17  and  C_23 
REMARK    7  A    between atoms: C_18  and  C_19 
REMARK    8  A    between atoms: C_19  and  C_20 
REMARK    9  A    between atoms: C_23  and  C_25 
REMARK   10  A    between atoms: C_25  and  C_26 
REMARK   11  A    between atoms: C_26  and  C_27 
REMARK   12  A    between atoms: C_27  and  C_28 
ROOT
HETATM    1  O           1     -28.507  -5.229 -19.323  0.00  0.00    -0.271 OA
HETATM    2  N           1     -27.482  -7.213 -19.319  0.00  0.00    -0.345 N 
HETATM    3  H           1     -27.405  -8.137 -18.915  0.00  0.00     0.163 HD
HETATM    4  C           1     -28.415  -6.333 -18.841  0.00  0.00     0.249 C 
ENDROOT
BRANCH   4   5
HETATM    5  C           1     -29.329  -6.742 -17.711  0.00  0.00     0.274 C 
BRANCH   5   6
HETATM    6  N           1     -29.233  -8.225 -17.504  0.00  0.00    -0.067 N 
HETATM    7  H           1     -30.171  -8.600 -17.236  0.00  0.00     0.275 HD
HETATM    8  H           1     -28.916  -8.679 -18.390  0.00  0.00     0.275 HD
HETATM    9  H           1     -28.546  -8.426 -16.743  0.00  0.00     0.275 HD
ENDBRANCH   5   6
BRANCH   5  10
HETATM   10  C           1     -28.911  -6.024 -16.435  0.00  0.00     0.042 C 
BRANCH  10  11
HETATM   11  C           1     -30.088  -5.223 -15.893  0.00  0.00     0.004 C 
BRANCH  11  12
HETATM   12  C           1     -31.208  -5.205 -16.925  0.00  0.00     0.027 C 
BRANCH  12  13
HETATM   13  C           1     -31.525  -3.765 -17.305  0.00  0.00     0.229 C 
BRANCH  13  14
HETATM   14  N           1     -30.356  -3.171 -18.034  0.00  0.00    -0.079 N 
HETATM   15  H           1     -30.106  -3.778 -18.847  0.00  0.00     0.274 HD
HETATM   16  H           1     -30.607  -2.217 -18.377  0.00  0.00     0.274 HD
HETATM   17  H           1     -29.539  -3.103 -17.385  0.00  0.00     0.274 HD
ENDBRANCH  13  14
ENDBRANCH  12  13
ENDBRANCH  11  12
ENDBRANCH  10  11
ENDBRANCH   5  10
ENDBRANCH   4   5
BRANCH   2  18
HETATM   18  C           1     -26.604  -6.820 -20.404  0.00  0.00     0.186 C 
BRANCH  18  19
HETATM   19  C           1     -26.320  -8.017 -21.279  0.00  0.00     0.196 C 
HETATM   20  O           1     -25.204  -8.138 -21.827  0.00  0.00    -0.646 OA
HETATM   21  O           1     -27.201  -8.886 -21.453  0.00  0.00    -0.646 OA
ENDBRANCH  18  19
BRANCH  18  22
HETATM   22  C           1     -25.297  -6.287 -19.830  0.00  0.00     0.045 C 
BRANCH  22  23
HETATM   23  C           1     -24.571  -7.407 -19.096  0.00  0.00     0.105 C 
BRANCH  23  24
HETATM   24  C           1     -24.551  -7.110 -17.617  0.00  0.00     0.215 C 
HETATM   25  N           1     -23.676  -7.771 -16.797  0.00  0.00    -0.370 N 
HETATM   26  H           1     -23.043  -8.459 -17.184  0.00  0.00     0.159 HD
HETATM   27  H           1     -23.663  -7.572 -15.806  0.00  0.00     0.159 HD
HETATM   28  O           1     -25.307  -6.288 -17.156  0.00  0.00    -0.274 OA
ENDBRANCH  23  24
ENDBRANCH  22  23
ENDBRANCH  18  22
ENDBRANCH   2  18
TORSDOF 12
ENDMDL
MODEL 4
REMARK VINA RESULT:      -5.8     13.668     15.318
REMARK  12 active torsions:
REMARK  status: ('A' for Active; 'I' for Inactive)
REMARK       I    between atoms: N_1  and  C_2 
REMARK    1  A    between atoms: C_2  and  C_20 
REMARK    2  A    between atoms: C_5  and  C_18 
REMARK    3  A    between atoms: N_11  and  C_23 
REMARK    4  A    between atoms: N_13  and  C_18 
REMARK       I    between atoms: N_13  and  C_17 
REMARK    5  A    between atoms: N_15  and  C_28 
REMARK    6  A    between atoms: C_17  and  C_23 
REMARK    7  A    between atoms: C_18  and  C_19 
REMARK    8  A    between atoms: C_19  and  C_20 
REMARK    9  A    between atoms: C_23  and  C_25 
REMARK   10  A    between atoms: C_25  and  C_26 
REMARK   11  A    between atoms: C_26  and  C_27 
REMARK   12  A    between atoms: C_27  and  C_28 
ROOT
HETATM    1  O           1     -19.620  -4.552  -5.736  0.00  0.00    -0.271 OA
HETATM    2  N           1     -21.629  -5.516  -5.604  0.00  0.00    -0.345 N 
HETATM    3  H           1     -22.572  -5.585  -5.966  0.00  0.00     0.163 HD
HETATM    4  C           1     -20.744  -4.636  -6.167  0.00  0.00     0.249 C 
ENDROOT
BRANCH   4   5
HETATM    5  C           1     -21.174  -3.771  -7.327  0.00  0.00     0.274 C 
BRANCH   5   6
HETATM    6  N           1     -20.115  -3.798  -8.389  0.00  0.00    -0.067 N 
HETATM    7  H           1     -19.504  -4.634  -8.250  0.00  0.00     0.275 HD
HETATM    8  H           1     -20.567  -3.848  -9.329  0.00  0.00     0.275 HD
HETATM    9  H           1     -19.537  -2.930  -8.326  0.00  0.00     0.275 HD
ENDBRANCH   5   6
BRANCH   5  10
HETATM   10  C           1     -22.481  -4.304  -7.901  0.00  0.00     0.042 C 
BRANCH  10  11
HETATM   11  C           1     -22.264  -4.734  -9.345  0.00  0.00     0.004 C 
BRANCH  11  12
HETATM   12  C           1     -23.542  -4.503 -10.141  0.00  0.00     0.027 C 
BRANCH  12  13
HETATM   13  C           1     -24.333  -3.364  -9.513  0.00  0.00     0.229 C 
BRANCH  13  14
HETATM   14  N           1     -25.801  -3.634  -9.660  0.00  0.00    -0.079 N 
HETATM   15  H           1     -26.215  -2.955 -10.339  0.00  0.00     0.274 HD
HETATM   16  H           1     -25.944  -4.608 -10.011  0.00  0.00     0.274 HD
HETATM   17  H           1     -26.270  -3.528  -8.732  0.00  0.00     0.274 HD
ENDBRANCH  13  14
ENDBRANCH  12  13
ENDBRANCH  11  12
ENDBRANCH  10  11
ENDBRANCH   5  10
ENDBRANCH   4   5
BRANCH   2  18
HETATM   18  C           1     -21.217  -6.346  -4.490  0.00  0.00     0.186 C 
BRANCH  18  19
HETATM   19  C           1     -20.783  -7.697  -5.005  0.00  0.00     0.196 C 
HETATM   20  O           1     -20.153  -8.477  -4.259  0.00  0.00    -0.646 OA
HETATM   21  O           1     -21.056  -8.037  -6.177  0.00  0.00    -0.646 OA
ENDBRANCH  18  19
BRANCH  18  22
HETATM   22  C           1     -22.385  -6.520  -3.528  0.00  0.00     0.045 C 
BRANCH  22  23
HETATM   23  C           1     -21.970  -6.054  -2.137  0.00  0.00     0.105 C 
BRANCH  23  24
HETATM   24  C           1     -22.106  -7.197  -1.162  0.00  0.00     0.215 C 
HETATM   25  N           1     -21.334  -8.318  -1.309  0.00  0.00    -0.370 N 
HETATM   26  H           1     -20.672  -8.380  -2.073  0.00  0.00     0.159 HD
HETATM   27  H           1     -21.425  -9.084  -0.655  0.00  0.00     0.159 HD
HETATM   28  O           1     -22.895  -7.123  -0.251  0.00  0.00    -0.274 OA
ENDBRANCH  23  24
ENDBRANCH  22  23
ENDBRANCH  18  22
ENDBRANCH   2  18
TORSDOF 12
ENDMDL
MODEL 5
REMARK VINA RESULT:      -5.8     13.651     15.485
REMARK  12 active torsions:
REMARK  status: ('A' for Active; 'I' for Inactive)
REMARK       I    between atoms: N_1  and  C_2 
REMARK    1  A    between atoms: C_2  and  C_20 
REMARK    2  A    between atoms: C_5  and  C_18 
REMARK    3  A    between atoms: N_11  and  C_23 
REMARK    4  A    between atoms: N_13  and  C_18 
REMARK       I    between atoms: N_13  and  C_17 
REMARK    5  A    between atoms: N_15  and  C_28 
REMARK    6  A    between atoms: C_17  and  C_23 
REMARK    7  A    between atoms: C_18  and  C_19 
REMARK    8  A    between atoms: C_19  and  C_20 
REMARK    9  A    between atoms: C_23  and  C_25 
REMARK   10  A    between atoms: C_25  and  C_26 
REMARK   11  A    between atoms: C_26  and  C_27 
REMARK   12  A    between atoms: C_27  and  C_28 
ROOT
HETATM    1  O           1     -20.919  -7.469  -6.473  0.00  0.00    -0.271 OA
HETATM    2  N           1     -21.917  -5.483  -6.261  0.00  0.00    -0.345 N 
HETATM    3  H           1     -22.487  -4.866  -5.696  0.00  0.00     0.163 HD
HETATM    4  C           1     -21.599  -6.732  -5.800  0.00  0.00     0.249 C 
ENDROOT
BRANCH   4   5
HETATM    5  C           1     -22.098  -7.189  -4.451  0.00  0.00     0.274 C 
BRANCH   5   6
HETATM    6  N           1     -21.768  -8.640  -4.262  0.00  0.00    -0.067 N 
HETATM    7  H           1     -20.731  -8.758  -4.213  0.00  0.00     0.275 HD
HETATM    8  H           1     -22.201  -8.981  -3.374  0.00  0.00     0.275 HD
HETATM    9  H           1     -22.144  -9.190  -5.066  0.00  0.00     0.275 HD
ENDBRANCH   5   6
BRANCH   5  10
HETATM   10  C           1     -21.425  -6.370  -3.357  0.00  0.00     0.042 C 
BRANCH  10  11
HETATM   11  C           1     -21.281  -7.219  -2.101  0.00  0.00     0.004 C 
BRANCH  11  12
HETATM   12  C           1     -22.306  -6.774  -1.066  0.00  0.00     0.027 C 
BRANCH  12  13
HETATM   13  C           1     -22.203  -7.662   0.166  0.00  0.00     0.229 C 
BRANCH  13  14
HETATM   14  N           1     -23.569  -8.142   0.553  0.00  0.00    -0.079 N 
HETATM   15  H           1     -24.108  -8.394  -0.307  0.00  0.00     0.274 HD
HETATM   16  H           1     -23.483  -8.982   1.168  0.00  0.00     0.274 HD
HETATM   17  H           1     -24.072  -7.385   1.070  0.00  0.00     0.274 HD
ENDBRANCH  13  14
ENDBRANCH  12  13
ENDBRANCH  11  12
ENDBRANCH  10  11
ENDBRANCH   5  10
ENDBRANCH   4   5
BRANCH   2  18
HETATM   18  C           1     -21.438  -5.044  -7.556  0.00  0.00     0.186 C 
BRANCH  18  19
HETATM   19  C           1     -20.075  -4.414  -7.401  0.00  0.00     0.196 C 
HETATM   20  O           1     -19.537  -3.844  -8.373  0.00  0.00    -0.646 OA
HETATM   21  O           1     -19.486  -4.462  -6.299  0.00  0.00    -0.646 OA
ENDBRANCH  18  19
BRANCH  18  22
HETATM   22  C           1     -22.408  -4.022  -8.136  0.00  0.00     0.045 C 
BRANCH  22  23
HETATM   23  C           1     -22.676  -4.350  -9.600  0.00  0.00     0.105 C 
BRANCH  23  24
HETATM   24  C           1     -24.066  -3.898  -9.971  0.00  0.00     0.215 C 
HETATM   25  N           1     -25.155  -4.607  -9.540  0.00  0.00    -0.370 N 
HETATM   26  H           1     -25.026  -5.435  -8.971  0.00  0.00     0.159 HD
HETATM   27  H           1     -26.087  -4.304  -9.789  0.00  0.00     0.159 HD
HETATM   28  O           1     -24.219  -2.910 -10.649  0.00  0.00    -0.274 OA
ENDBRANCH  23  24
ENDBRANCH  22  23
ENDBRANCH  18  22
ENDBRANCH   2  18
TORSDOF 12
ENDMDL
MODEL 6
REMARK VINA RESULT:      -5.8     13.719     15.200
REMARK  12 active torsions:
REMARK  status: ('A' for Active; 'I' for Inactive)
REMARK       I    between atoms: N_1  and  C_2 
REMARK    1  A    between atoms: C_2  and  C_20 
REMARK    2  A    between atoms: C_5  and  C_18 
REMARK    3  A    between atoms: N_11  and  C_23 
REMARK    4  A    between atoms: N_13  and  C_18 
REMARK       I    between atoms: N_13  and  C_17 
REMARK    5  A    between atoms: N_15  and  C_28 
REMARK    6  A    between atoms: C_17  and  C_23 
REMARK    7  A    between atoms: C_18  and  C_19 
REMARK    8  A    between atoms: C_19  and  C_20 
REMARK    9  A    between atoms: C_23  and  C_25 
REMARK   10  A    between atoms: C_25  and  C_26 
REMARK   11  A    between atoms: C_26  and  C_27 
REMARK   12  A    between atoms: C_27  and  C_28 
ROOT
HETATM    1  O           1     -20.380  -4.502  -5.910  0.00  0.00    -0.271 OA
HETATM    2  N           1     -21.679  -6.312  -5.769  0.00  0.00    -0.345 N 
HETATM    3  H           1     -22.390  -6.893  -6.197  0.00  0.00     0.163 HD
HETATM    4  C           1     -21.227  -5.195  -6.419  0.00  0.00     0.249 C 
ENDROOT
BRANCH   4   5
HETATM    5  C           1     -21.787  -4.831  -7.772  0.00  0.00     0.274 C 
BRANCH   5   6
HETATM    6  N           1     -23.088  -4.105  -7.595  0.00  0.00    -0.067 N 
HETATM    7  H           1     -23.199  -3.829  -6.593  0.00  0.00     0.275 HD
HETATM    8  H           1     -23.092  -3.249  -8.195  0.00  0.00     0.275 HD
HETATM    9  H           1     -23.877  -4.730  -7.874  0.00  0.00     0.275 HD
ENDBRANCH   5   6
BRANCH   5  10
HETATM   10  C           1     -20.800  -3.931  -8.505  0.00  0.00     0.042 C 
BRANCH  10  11
HETATM   11  C           1     -20.123  -4.719  -9.618  0.00  0.00     0.004 C 
BRANCH  11  12
HETATM   12  C           1     -20.318  -3.996 -10.944  0.00  0.00     0.027 C 
BRANCH  12  13
HETATM   13  C           1     -21.797  -3.693 -11.145  0.00  0.00     0.229 C 
BRANCH  13  14
HETATM   14  N           1     -22.372  -4.648 -12.147  0.00  0.00    -0.079 N 
HETATM   15  H           1     -21.639  -5.335 -12.436  0.00  0.00     0.274 HD
HETATM   16  H           1     -23.178  -5.158 -11.721  0.00  0.00     0.274 HD
HETATM   17  H           1     -22.701  -4.117 -12.986  0.00  0.00     0.274 HD
ENDBRANCH  13  14
ENDBRANCH  12  13
ENDBRANCH  11  12
ENDBRANCH  10  11
ENDBRANCH   5  10
ENDBRANCH   4   5
BRANCH   2  18
HETATM   18  C           1     -21.141  -6.662  -4.470  0.00  0.00     0.186 C 
BRANCH  18  19
HETATM   19  C           1     -20.367  -7.953  -4.578  0.00  0.00     0.196 C 
HETATM   20  O           1     -20.286  -8.542  -5.676  0.00  0.00    -0.646 OA
HETATM   21  O           1     -19.805  -8.431  -3.568  0.00  0.00    -0.646 OA
ENDBRANCH  18  19
BRANCH  18  22
HETATM   22  C           1     -22.285  -6.837  -3.478  0.00  0.00     0.045 C 
BRANCH  22  23
HETATM   23  C           1     -21.930  -6.148  -2.166  0.00  0.00     0.105 C 
BRANCH  23  24
HETATM   24  C           1     -22.029  -7.139  -1.034  0.00  0.00     0.215 C 
HETATM   25  N           1     -21.005  -8.017  -0.800  0.00  0.00    -0.370 N 
HETATM   26  H           1     -20.181  -8.001  -1.387  0.00  0.00     0.159 HD
HETATM   27  H           1     -21.072  -8.682  -0.040  0.00  0.00     0.159 HD
HETATM   28  O           1     -23.013  -7.158  -0.333  0.00  0.00    -0.274 OA
ENDBRANCH  23  24
ENDBRANCH  22  23
ENDBRANCH  18  22
ENDBRANCH   2  18
TORSDOF 12
ENDMDL
MODEL 7
REMARK VINA RESULT:      -5.5      1.727      2.497
REMARK  12 active torsions:
REMARK  status: ('A' for Active; 'I' for Inactive)
REMARK       I    between atoms: N_1  and  C_2 
REMARK    1  A    between atoms: C_2  and  C_20 
REMARK    2  A    between atoms: C_5  and  C_18 
REMARK    3  A    between atoms: N_11  and  C_23 
REMARK    4  A    between atoms: N_13  and  C_18 
REMARK       I    between atoms: N_13  and  C_17 
REMARK    5  A    between atoms: N_15  and  C_28 
REMARK    6  A    between atoms: C_17  and  C_23 
REMARK    7  A    between atoms: C_18  and  C_19 
REMARK    8  A    between atoms: C_19  and  C_20 
REMARK    9  A    between atoms: C_23  and  C_25 
REMARK   10  A    between atoms: C_25  and  C_26 
REMARK   11  A    between atoms: C_26  and  C_27 
REMARK   12  A    between atoms: C_27  and  C_28 
ROOT
HETATM    1  O           1     -26.989  -5.792 -20.519  0.00  0.00    -0.271 OA
HETATM    2  N           1     -26.495  -6.658 -18.522  0.00  0.00    -0.345 N 
HETATM    3  H           1     -25.980  -7.350 -17.991  0.00  0.00     0.163 HD
HETATM    4  C           1     -26.376  -6.616 -19.885  0.00  0.00     0.249 C 
ENDROOT
BRANCH   4   5
HETATM    5  C           1     -25.476  -7.599 -20.595  0.00  0.00     0.274 C 
BRANCH   5   6
HETATM    6  N           1     -26.315  -8.621 -21.303  0.00  0.00    -0.067 N 
HETATM    7  H           1     -26.545  -8.277 -22.263  0.00  0.00     0.275 HD
HETATM    8  H           1     -25.785  -9.518 -21.372  0.00  0.00     0.275 HD
HETATM    9  H           1     -27.198  -8.777 -20.768  0.00  0.00     0.275 HD
ENDBRANCH   5   6
BRANCH   5  10
HETATM   10  C           1     -24.615  -6.858 -21.610  0.00  0.00     0.042 C 
BRANCH  10  11
HETATM   11  C           1     -23.970  -7.860 -22.557  0.00  0.00     0.004 C 
BRANCH  11  12
HETATM   12  C           1     -22.764  -8.496 -21.879  0.00  0.00     0.027 C 
BRANCH  12  13
HETATM   13  C           1     -21.975  -9.306 -22.898  0.00  0.00     0.229 C 
BRANCH  13  14
HETATM   14  N           1     -20.576  -9.512 -22.400  0.00  0.00    -0.079 N 
HETATM   15  H           1     -19.972  -8.720 -22.717  0.00  0.00     0.274 HD
HETATM   16  H           1     -20.579  -9.552 -21.357  0.00  0.00     0.274 HD
HETATM   17  H           1     -20.199 -10.411 -22.781  0.00  0.00     0.274 HD
ENDBRANCH  13  14
ENDBRANCH  12  13
ENDBRANCH  11  12
ENDBRANCH  10  11
ENDBRANCH   5  10
ENDBRANCH   4   5
BRANCH   2  18
HETATM   18  C           1     -27.358  -5.715 -17.840  0.00  0.00     0.186 C 
BRANCH  18  19
HETATM   19  C           1     -26.920  -5.581 -16.402  0.00  0.00     0.196 C 
HETATM   20  O           1     -25.736  -5.824 -16.085  0.00  0.00    -0.646 OA
HETATM   21  O           1     -27.742  -5.228 -15.528  0.00  0.00    -0.646 OA
ENDBRANCH  18  19
BRANCH  18  22
HETATM   22  C           1     -28.796  -6.216 -17.890  0.00  0.00     0.045 C 
BRANCH  22  23
HETATM   23  C           1     -29.734  -5.044 -18.152  0.00  0.00     0.105 C 
BRANCH  23  24
HETATM   24  C           1     -30.932  -5.143 -17.242  0.00  0.00     0.215 C 
HETATM   25  N           1     -31.495  -6.363 -16.981  0.00  0.00    -0.370 N 
HETATM   26  H           1     -31.107  -7.199 -17.400  0.00  0.00     0.159 HD
HETATM   27  H           1     -32.299  -6.430 -16.370  0.00  0.00     0.159 HD
HETATM   28  O           1     -31.395  -4.146 -16.742  0.00  0.00    -0.274 OA
ENDBRANCH  23  24
ENDBRANCH  22  23
ENDBRANCH  18  22
ENDBRANCH   2  18
TORSDOF 12
ENDMDL
MODEL 8
REMARK VINA RESULT:      -5.5     13.952     15.920
REMARK  12 active torsions:
REMARK  status: ('A' for Active; 'I' for Inactive)
REMARK       I    between atoms: N_1  and  C_2 
REMARK    1  A    between atoms: C_2  and  C_20 
REMARK    2  A    between atoms: C_5  and  C_18 
REMARK    3  A    between atoms: N_11  and  C_23 
REMARK    4  A    between atoms: N_13  and  C_18 
REMARK       I    between atoms: N_13  and  C_17 
REMARK    5  A    between atoms: N_15  and  C_28 
REMARK    6  A    between atoms: C_17  and  C_23 
REMARK    7  A    between atoms: C_18  and  C_19 
REMARK    8  A    between atoms: C_19  and  C_20 
REMARK    9  A    between atoms: C_23  and  C_25 
REMARK   10  A    between atoms: C_25  and  C_26 
REMARK   11  A    between atoms: C_26  and  C_27 
REMARK   12  A    between atoms: C_27  and  C_28 
ROOT
HETATM    1  O           1     -22.775  -5.690  -5.676  0.00  0.00    -0.271 OA
HETATM    2  N           1     -20.932  -6.661  -4.874  0.00  0.00    -0.345 N 
HETATM    3  H           1     -19.923  -6.743  -4.906  0.00  0.00     0.163 HD
HETATM    4  C           1     -21.573  -5.789  -5.713  0.00  0.00     0.249 C 
ENDROOT
BRANCH   4   5
HETATM    5  C           1     -20.776  -4.950  -6.682  0.00  0.00     0.274 C 
BRANCH   5   6
HETATM    6  N           1     -20.024  -5.848  -7.619  0.00  0.00    -0.067 N 
HETATM    7  H           1     -20.678  -6.218  -8.345  0.00  0.00     0.275 HD
HETATM    8  H           1     -19.260  -5.307  -8.081  0.00  0.00     0.275 HD
HETATM    9  H           1     -19.613  -6.645  -7.082  0.00  0.00     0.275 HD
ENDBRANCH   5   6
BRANCH   5  10
HETATM   10  C           1     -21.720  -4.061  -7.481  0.00  0.00     0.042 C 
BRANCH  10  11
HETATM   11  C           1     -21.349  -4.120  -8.956  0.00  0.00     0.004 C 
BRANCH  11  12
HETATM   12  C           1     -22.617  -4.120  -9.800  0.00  0.00     0.027 C 
BRANCH  12  13
HETATM   13  C           1     -23.835  -4.062  -8.888  0.00  0.00     0.229 C 
BRANCH  13  14
HETATM   14  N           1     -25.080  -3.995  -9.720  0.00  0.00    -0.079 N 
HETATM   15  H           1     -24.849  -3.612 -10.664  0.00  0.00     0.274 HD
HETATM   16  H           1     -25.484  -4.952  -9.822  0.00  0.00     0.274 HD
HETATM   17  H           1     -25.778  -3.371  -9.253  0.00  0.00     0.274 HD
ENDBRANCH  13  14
ENDBRANCH  12  13
ENDBRANCH  11  12
ENDBRANCH  10  11
ENDBRANCH   5  10
ENDBRANCH   4   5
BRANCH   2  18
HETATM   18  C           1     -21.697  -7.466  -3.944  0.00  0.00     0.186 C 
BRANCH  18  19
HETATM   19  C           1     -21.594  -6.870  -2.561  0.00  0.00     0.196 C 
HETATM   20  O           1     -20.842  -7.391  -1.711  0.00  0.00    -0.646 OA
HETATM   21  O           1     -22.261  -5.853  -2.268  0.00  0.00    -0.646 OA
ENDBRANCH  18  19
BRANCH  18  22
HETATM   22  C           1     -21.143  -8.886  -3.928  0.00  0.00     0.045 C 
BRANCH  22  23
HETATM   23  C           1     -19.849  -8.935  -4.731  0.00  0.00     0.105 C 
BRANCH  23  24
HETATM   24  C           1     -18.716  -9.367  -3.834  0.00  0.00     0.215 C 
HETATM   25  N           1     -18.943  -9.590  -2.503  0.00  0.00    -0.370 N 
HETATM   26  H           1     -19.871  -9.466  -2.120  0.00  0.00     0.159 HD
HETATM   27  H           1     -18.183  -9.880  -1.902  0.00  0.00     0.159 HD
HETATM   28  O           1     -17.608  -9.515  -4.291  0.00  0.00    -0.274 OA
ENDBRANCH  23  24
ENDBRANCH  22  23
ENDBRANCH  18  22
ENDBRANCH   2  18
TORSDOF 12
ENDMDL
MODEL 9
REMARK VINA RESULT:      -5.4     14.086     15.843
REMARK  12 active torsions:
REMARK  status: ('A' for Active; 'I' for Inactive)
REMARK       I    between atoms: N_1  and  C_2 
REMARK    1  A    between atoms: C_2  and  C_20 
REMARK    2  A    between atoms: C_5  and  C_18 
REMARK    3  A    between atoms: N_11  and  C_23 
REMARK    4  A    between atoms: N_13  and  C_18 
REMARK       I    between atoms: N_13  and  C_17 
REMARK    5  A    between atoms: N_15  and  C_28 
REMARK    6  A    between atoms: C_17  and  C_23 
REMARK    7  A    between atoms: C_18  and  C_19 
REMARK    8  A    between atoms: C_19  and  C_20 
REMARK    9  A    between atoms: C_23  and  C_25 
REMARK   10  A    between atoms: C_25  and  C_26 
REMARK   11  A    between atoms: C_26  and  C_27 
REMARK   12  A    between atoms: C_27  and  C_28 
ROOT
HETATM    1  O           1     -22.757  -5.849  -5.532  0.00  0.00    -0.271 OA
HETATM    2  N           1     -20.871  -6.749  -4.747  0.00  0.00    -0.345 N 
HETATM    3  H           1     -19.861  -6.796  -4.791  0.00  0.00     0.163 HD
HETATM    4  C           1     -21.553  -5.906  -5.583  0.00  0.00     0.249 C 
ENDROOT
BRANCH   4   5
HETATM    5  C           1     -20.797  -5.047  -6.568  0.00  0.00     0.274 C 
BRANCH   5   6
HETATM    6  N           1     -20.125  -5.924  -7.582  0.00  0.00    -0.067 N 
HETATM    7  H           1     -19.157  -5.573  -7.759  0.00  0.00     0.275 HD
HETATM    8  H           1     -20.080  -6.902  -7.220  0.00  0.00     0.275 HD
HETATM    9  H           1     -20.670  -5.907  -8.473  0.00  0.00     0.275 HD
ENDBRANCH   5   6
BRANCH   5  10
HETATM   10  C           1     -21.769  -4.109  -7.274  0.00  0.00     0.042 C 
BRANCH  10  11
HETATM   11  C           1     -22.063  -4.638  -8.671  0.00  0.00     0.004 C 
BRANCH  11  12
HETATM   12  C           1     -23.001  -3.678  -9.390  0.00  0.00     0.027 C 
BRANCH  12  13
HETATM   13  C           1     -24.208  -4.444  -9.915  0.00  0.00     0.229 C 
BRANCH  13  14
HETATM   14  N           1     -25.449  -3.628  -9.704  0.00  0.00    -0.079 N 
HETATM   15  H           1     -26.291  -4.234  -9.825  0.00  0.00     0.274 HD
HETATM   16  H           1     -25.444  -3.228  -8.739  0.00  0.00     0.274 HD
HETATM   17  H           1     -25.477  -2.849 -10.402  0.00  0.00     0.274 HD
ENDBRANCH  13  14
ENDBRANCH  12  13
ENDBRANCH  11  12
ENDBRANCH  10  11
ENDBRANCH   5  10
ENDBRANCH   4   5
BRANCH   2  18
HETATM   18  C           1     -21.596  -7.574  -3.802  0.00  0.00     0.186 C 
BRANCH  18  19
HETATM   19  C           1     -21.567  -6.922  -2.441  0.00  0.00     0.196 C 
HETATM   20  O           1     -22.264  -5.909  -2.219  0.00  0.00    -0.646 OA
HETATM   21  O           1     -20.847  -7.396  -1.535  0.00  0.00    -0.646 OA
ENDBRANCH  18  19
BRANCH  18  22
HETATM   22  C           1     -20.942  -8.948  -3.722  0.00  0.00     0.045 C 
BRANCH  22  23
HETATM   23  C           1     -22.016 -10.026  -3.785  0.00  0.00     0.105 C 
BRANCH  23  24
HETATM   24  C           1     -22.264 -10.572  -2.401  0.00  0.00     0.215 C 
HETATM   25  N           1     -21.308 -10.439  -1.430  0.00  0.00    -0.370 N 
HETATM   26  H           1     -20.434  -9.975  -1.642  0.00  0.00     0.159 HD
HETATM   27  H           1     -21.475 -10.806  -0.502  0.00  0.00     0.159 HD
HETATM   28  O           1     -23.308 -11.126  -2.149  0.00  0.00    -0.274 OA
ENDBRANCH  23  24
ENDBRANCH  22  23
ENDBRANCH  18  22
ENDBRANCH   2  18
TORSDOF 12
ENDMDL
