MODEL 1
REMARK VINA RESULT:      -6.4      0.000      0.000
REMARK  7 active torsions:
REMARK  status: ('A' for Active; 'I' for Inactive)
REMARK       I    between atoms: C_1  and  N_4 
REMARK    1  A    between atoms: C_1  and  C_5 
REMARK    2  A    between atoms: C_2  and  C_10 
REMARK    3  A    between atoms: C_2  and  N_12 
REMARK    4  A    between atoms: N_3  and  C_7 
REMARK       I    between atoms: N_3  and  C_10 
REMARK    5  A    between atoms: C_5  and  C_6 
REMARK    6  A    between atoms: C_6  and  C_7 
REMARK    7  A    between atoms: C_7  and  C_11 
ROOT
HETATM    1  C           1     -27.748  -5.817 -16.620  0.00  0.00     0.186 C 
ENDROOT
BRANCH   1   2
HETATM    2  N           1     -26.681  -6.657 -17.130  0.00  0.00    -0.345 N 
HETATM    3  C           1     -25.404  -6.501 -16.661  0.00  0.00     0.243 C 
HETATM    4  O           1     -25.166  -5.664 -15.823  0.00  0.00    -0.272 OA
HETATM    5  H           1     -26.880  -7.358 -17.832  0.00  0.00     0.163 HD
BRANCH   3   6
HETATM    6  C           1     -24.294  -7.374 -17.191  0.00  0.00     0.332 C 
BRANCH   6   7
HETATM    7  N           1     -24.375  -7.434 -18.688  0.00  0.00    -0.071 N 
HETATM    8  H           1     -25.145  -6.811 -19.021  0.00  0.00     0.274 HD
HETATM    9  H           1     -23.468  -7.115 -19.098  0.00  0.00     0.274 HD
HETATM   10  H           1     -24.567  -8.417 -18.987  0.00  0.00     0.274 HD
ENDBRANCH   6   7
ENDBRANCH   3   6
ENDBRANCH   1   2
BRANCH   1  11
HETATM   11  C           1     -28.824  -5.662 -17.686  0.00  0.00     0.045 C 
BRANCH  11  12
HETATM   12  C           1     -29.249  -4.203 -17.770  0.00  0.00     0.105 C 
BRANCH  12  13
HETATM   13  C           1     -30.702  -4.078 -17.383  0.00  0.00     0.215 C 
HETATM   14  O           1     -31.311  -3.066 -17.639  0.00  0.00    -0.274 OA
HETATM   15  N           1     -31.332  -5.110 -16.741  0.00  0.00    -0.370 N 
HETATM   16  H           1     -30.822  -5.957 -16.526  0.00  0.00     0.159 HD
HETATM   17  H           1     -32.306  -5.026 -16.481  0.00  0.00     0.159 HD
ENDBRANCH  12  13
ENDBRANCH  11  12
ENDBRANCH   1  11
BRANCH   1  18
HETATM   18  C           1     -28.346  -6.456 -15.390  0.00  0.00     0.196 C 
HETATM   19  O           1     -29.225  -5.853 -14.737  0.00  0.00    -0.646 OA
HETATM   20  O           1     -27.962  -7.588 -15.025  0.00  0.00    -0.646 OA
ENDBRANCH   1  18
TORSDOF 7
ENDMDL
MODEL 2
REMARK VINA RESULT:      -6.0      2.028      2.219
REMARK  7 active torsions:
REMARK  status: ('A' for Active; 'I' for Inactive)
REMARK       I    between atoms: C_1  and  N_4 
REMARK    1  A    between atoms: C_1  and  C_5 
REMARK    2  A    between atoms: C_2  and  C_10 
REMARK    3  A    between atoms: C_2  and  N_12 
REMARK    4  A    between atoms: N_3  and  C_7 
REMARK       I    between atoms: N_3  and  C_10 
REMARK    5  A    between atoms: C_5  and  C_6 
REMARK    6  A    between atoms: C_6  and  C_7 
REMARK    7  A    between atoms: C_7  and  C_11 
ROOT
HETATM    1  C           1     -28.406  -6.371 -16.546  0.00  0.00     0.186 C 
ENDROOT
BRANCH   1   2
HETATM    2  N           1     -27.086  -6.405 -17.147  0.00  0.00    -0.345 N 
HETATM    3  C           1     -26.026  -6.910 -16.443  0.00  0.00     0.243 C 
HETATM    4  O           1     -26.190  -7.326 -15.320  0.00  0.00    -0.272 OA
HETATM    5  H           1     -26.949  -6.056 -18.087  0.00  0.00     0.163 HD
BRANCH   3   6
HETATM    6  C           1     -24.653  -6.946 -17.068  0.00  0.00     0.332 C 
BRANCH   6   7
HETATM    7  N           1     -23.852  -8.057 -16.455  0.00  0.00    -0.071 N 
HETATM    8  H           1     -22.835  -7.830 -16.520  0.00  0.00     0.274 HD
HETATM    9  H           1     -24.121  -8.166 -15.451  0.00  0.00     0.274 HD
HETATM   10  H           1     -24.045  -8.947 -16.968  0.00  0.00     0.274 HD
ENDBRANCH   6   7
ENDBRANCH   3   6
ENDBRANCH   1   2
BRANCH   1  11
HETATM   11  C           1     -28.770  -4.932 -16.207  0.00  0.00     0.045 C 
BRANCH  11  12
HETATM   12  C           1     -28.672  -4.073 -17.461  0.00  0.00     0.105 C 
BRANCH  12  13
HETATM   13  C           1     -29.706  -2.976 -17.404  0.00  0.00     0.215 C 
HETATM   14  O           1     -30.881  -3.255 -17.382  0.00  0.00    -0.274 OA
HETATM   15  N           1     -29.313  -1.665 -17.377  0.00  0.00    -0.370 N 
HETATM   16  H           1     -28.329  -1.431 -17.395  0.00  0.00     0.159 HD
HETATM   17  H           1     -30.007  -0.930 -17.338  0.00  0.00     0.159 HD
ENDBRANCH  12  13
ENDBRANCH  11  12
ENDBRANCH   1  11
BRANCH   1  18
HETATM   18  C           1     -29.415  -6.930 -17.519  0.00  0.00     0.196 C 
HETATM   19  O           1     -29.053  -7.280 -18.663  0.00  0.00    -0.646 OA
HETATM   20  O           1     -30.612  -7.044 -17.180  0.00  0.00    -0.646 OA
ENDBRANCH   1  18
TORSDOF 7
ENDMDL
MODEL 3
REMARK VINA RESULT:      -5.5      9.700     11.036
REMARK  7 active torsions:
REMARK  status: ('A' for Active; 'I' for Inactive)
REMARK       I    between atoms: C_1  and  N_4 
REMARK    1  A    between atoms: C_1  and  C_5 
REMARK    2  A    between atoms: C_2  and  C_10 
REMARK    3  A    between atoms: C_2  and  N_12 
REMARK    4  A    between atoms: N_3  and  C_7 
REMARK       I    between atoms: N_3  and  C_10 
REMARK    5  A    between atoms: C_5  and  C_6 
REMARK    6  A    between atoms: C_6  and  C_7 
REMARK    7  A    between atoms: C_7  and  C_11 
ROOT
HETATM    1  C           1     -21.675  -4.708  -8.240  0.00  0.00     0.186 C 
ENDROOT
BRANCH   1   2
HETATM    2  N           1     -21.435  -4.689  -6.809  0.00  0.00    -0.345 N 
HETATM    3  C           1     -21.200  -5.859  -6.138  0.00  0.00     0.243 C 
HETATM    4  O           1     -21.194  -6.908  -6.738  0.00  0.00    -0.272 OA
HETATM    5  H           1     -21.440  -3.810  -6.307  0.00  0.00     0.163 HD
BRANCH   3   6
HETATM    6  C           1     -20.951  -5.839  -4.651  0.00  0.00     0.332 C 
BRANCH   6   7
HETATM    7  N           1     -22.208  -6.222  -3.927  0.00  0.00    -0.071 N 
HETATM    8  H           1     -22.466  -5.467  -3.252  0.00  0.00     0.274 HD
HETATM    9  H           1     -22.982  -6.350  -4.618  0.00  0.00     0.274 HD
HETATM   10  H           1     -22.051  -7.115  -3.408  0.00  0.00     0.274 HD
ENDBRANCH   6   7
ENDBRANCH   3   6
ENDBRANCH   1   2
BRANCH   1  11
HETATM   11  C           1     -22.668  -3.612  -8.602  0.00  0.00     0.045 C 
BRANCH  11  12
HETATM   12  C           1     -23.978  -4.243  -9.055  0.00  0.00     0.105 C 
BRANCH  12  13
HETATM   13  C           1     -24.147  -4.042 -10.541  0.00  0.00     0.215 C 
HETATM   14  O           1     -24.969  -3.260 -10.954  0.00  0.00    -0.274 OA
HETATM   15  N           1     -23.370  -4.746 -11.421  0.00  0.00    -0.370 N 
HETATM   16  H           1     -22.681  -5.402 -11.075  0.00  0.00     0.159 HD
HETATM   17  H           1     -23.483  -4.611 -12.417  0.00  0.00     0.159 HD
ENDBRANCH  12  13
ENDBRANCH  11  12
ENDBRANCH   1  11
BRANCH   1  18
HETATM   18  C           1     -20.375  -4.472  -8.970  0.00  0.00     0.196 C 
HETATM   19  O           1     -19.353  -4.137  -8.333  0.00  0.00    -0.646 OA
HETATM   20  O           1     -20.322  -4.610 -10.211  0.00  0.00    -0.646 OA
ENDBRANCH   1  18
TORSDOF 7
ENDMDL
MODEL 4
REMARK VINA RESULT:      -5.1     19.248     21.327
REMARK  7 active torsions:
REMARK  status: ('A' for Active; 'I' for Inactive)
REMARK       I    between atoms: C_1  and  N_4 
REMARK    1  A    between atoms: C_1  and  C_5 
REMARK    2  A    between atoms: C_2  and  C_10 
REMARK    3  A    between atoms: C_2  and  N_12 
REMARK    4  A    between atoms: N_3  and  C_7 
REMARK       I    between atoms: N_3  and  C_10 
REMARK    5  A    between atoms: C_5  and  C_6 
REMARK    6  A    between atoms: C_6  and  C_7 
REMARK    7  A    between atoms: C_7  and  C_11 
ROOT
HETATM    1  C           1     -10.153   5.219 -20.506  0.00  0.00     0.186 C 
ENDROOT
BRANCH   1   2
HETATM    2  N           1     -11.280   5.108 -21.413  0.00  0.00    -0.345 N 
HETATM    3  C           1     -11.605   3.894 -21.955  0.00  0.00     0.243 C 
HETATM    4  O           1     -10.953   2.915 -21.680  0.00  0.00    -0.272 OA
HETATM    5  H           1     -11.826   5.928 -21.644  0.00  0.00     0.163 HD
BRANCH   3   6
HETATM    6  C           1     -12.776   3.779 -22.899  0.00  0.00     0.332 C 
BRANCH   6   7
HETATM    7  N           1     -13.849   2.942 -22.267  0.00  0.00    -0.071 N 
HETATM    8  H           1     -14.767   3.435 -22.344  0.00  0.00     0.274 HD
HETATM    9  H           1     -13.906   2.021 -22.758  0.00  0.00     0.274 HD
HETATM   10  H           1     -13.619   2.787 -21.259  0.00  0.00     0.274 HD
ENDBRANCH   6   7
ENDBRANCH   3   6
ENDBRANCH   1   2
BRANCH   1  11
HETATM   11  C           1      -9.335   6.452 -20.863  0.00  0.00     0.045 C 
BRANCH  11  12
HETATM   12  C           1     -10.270   7.583 -21.269  0.00  0.00     0.105 C 
BRANCH  12  13
HETATM   13  C           1      -9.968   8.809 -20.444  0.00  0.00     0.215 C 
HETATM   14  O           1      -9.599   9.825 -20.984  0.00  0.00    -0.274 OA
HETATM   15  N           1     -10.111   8.772 -19.083  0.00  0.00    -0.370 N 
HETATM   16  H           1     -10.420   7.921 -18.630  0.00  0.00     0.159 HD
HETATM   17  H           1      -9.908   9.594 -18.530  0.00  0.00     0.159 HD
ENDBRANCH  12  13
ENDBRANCH  11  12
ENDBRANCH   1  11
BRANCH   1  18
HETATM   18  C           1     -10.659   5.344 -19.089  0.00  0.00     0.196 C 
HETATM   19  O           1      -9.903   5.775 -18.191  0.00  0.00    -0.646 OA
HETATM   20  O           1     -11.833   5.016 -18.814  0.00  0.00    -0.646 OA
ENDBRANCH   1  18
TORSDOF 7
ENDMDL
MODEL 5
REMARK VINA RESULT:      -5.0      2.318      5.189
REMARK  7 active torsions:
REMARK  status: ('A' for Active; 'I' for Inactive)
REMARK       I    between atoms: C_1  and  N_4 
REMARK    1  A    between atoms: C_1  and  C_5 
REMARK    2  A    between atoms: C_2  and  C_10 
REMARK    3  A    between atoms: C_2  and  N_12 
REMARK    4  A    between atoms: N_3  and  C_7 
REMARK       I    between atoms: N_3  and  C_10 
REMARK    5  A    between atoms: C_5  and  C_6 
REMARK    6  A    between atoms: C_6  and  C_7 
REMARK    7  A    between atoms: C_7  and  C_11 
ROOT
HETATM    1  C           1     -28.604  -6.325 -17.032  0.00  0.00     0.186 C 
ENDROOT
BRANCH   1   2
HETATM    2  N           1     -29.068  -4.981 -17.317  0.00  0.00    -0.345 N 
HETATM    3  C           1     -30.410  -4.706 -17.317  0.00  0.00     0.243 C 
HETATM    4  O           1     -31.206  -5.583 -17.082  0.00  0.00    -0.272 OA
HETATM    5  H           1     -28.401  -4.246 -17.514  0.00  0.00     0.163 HD
BRANCH   3   6
HETATM    6  C           1     -30.892  -3.307 -17.614  0.00  0.00     0.332 C 
BRANCH   6   7
HETATM    7  N           1     -32.382  -3.246 -17.449  0.00  0.00    -0.071 N 
HETATM    8  H           1     -32.632  -2.446 -16.824  0.00  0.00     0.274 HD
HETATM    9  H           1     -32.830  -3.110 -18.383  0.00  0.00     0.274 HD
HETATM   10  H           1     -32.722  -4.139 -17.025  0.00  0.00     0.274 HD
ENDBRANCH   6   7
ENDBRANCH   3   6
ENDBRANCH   1   2
BRANCH   1  11
HETATM   11  C           1     -28.400  -7.078 -18.340  0.00  0.00     0.045 C 
BRANCH  11  12
HETATM   12  C           1     -27.658  -6.188 -19.328  0.00  0.00     0.105 C 
BRANCH  12  13
HETATM   13  C           1     -26.472  -6.934 -19.887  0.00  0.00     0.215 C 
HETATM   14  O           1     -26.591  -7.592 -20.892  0.00  0.00    -0.274 OA
HETATM   15  N           1     -25.259  -6.866 -19.254  0.00  0.00    -0.370 N 
HETATM   16  H           1     -25.159  -6.314 -18.412  0.00  0.00     0.159 HD
HETATM   17  H           1     -24.464  -7.366 -19.629  0.00  0.00     0.159 HD
ENDBRANCH  12  13
ENDBRANCH  11  12
ENDBRANCH   1  11
BRANCH   1  18
HETATM   18  C           1     -27.297  -6.257 -16.281  0.00  0.00     0.196 C 
HETATM   19  O           1     -26.564  -5.251 -16.392  0.00  0.00    -0.646 OA
HETATM   20  O           1     -26.948  -7.206 -15.547  0.00  0.00    -0.646 OA
ENDBRANCH   1  18
TORSDOF 7
ENDMDL
MODEL 6
REMARK VINA RESULT:      -5.0      2.476      6.219
REMARK  7 active torsions:
REMARK  status: ('A' for Active; 'I' for Inactive)
REMARK       I    between atoms: C_1  and  N_4 
REMARK    1  A    between atoms: C_1  and  C_5 
REMARK    2  A    between atoms: C_2  and  C_10 
REMARK    3  A    between atoms: C_2  and  N_12 
REMARK    4  A    between atoms: N_3  and  C_7 
REMARK       I    between atoms: N_3  and  C_10 
REMARK    5  A    between atoms: C_5  and  C_6 
REMARK    6  A    between atoms: C_6  and  C_7 
REMARK    7  A    between atoms: C_7  and  C_11 
ROOT
HETATM    1  C           1     -29.961  -3.875 -17.394  0.00  0.00     0.186 C 
ENDROOT
BRANCH   1   2
HETATM    2  N           1     -31.238  -3.289 -17.753  0.00  0.00    -0.345 N 
HETATM    3  C           1     -32.374  -3.661 -17.085  0.00  0.00     0.243 C 
HETATM    4  O           1     -32.313  -4.478 -16.198  0.00  0.00    -0.272 OA
HETATM    5  H           1     -31.289  -2.605 -18.497  0.00  0.00     0.163 HD
BRANCH   3   6
HETATM    6  C           1     -33.703  -3.051 -17.459  0.00  0.00     0.332 C 
BRANCH   6   7
HETATM    7  N           1     -34.504  -2.796 -16.217  0.00  0.00    -0.071 N 
HETATM    8  H           1     -34.975  -3.679 -15.918  0.00  0.00     0.274 HD
HETATM    9  H           1     -33.869  -2.465 -15.456  0.00  0.00     0.274 HD
HETATM   10  H           1     -35.225  -2.065 -16.414  0.00  0.00     0.274 HD
ENDBRANCH   6   7
ENDBRANCH   3   6
ENDBRANCH   1   2
BRANCH   1  11
HETATM   11  C           1     -29.442  -4.710 -18.556  0.00  0.00     0.045 C 
BRANCH  11  12
HETATM   12  C           1     -28.948  -6.054 -18.037  0.00  0.00     0.105 C 
BRANCH  12  13
HETATM   13  C           1     -27.480  -6.207 -18.349  0.00  0.00     0.215 C 
HETATM   14  O           1     -26.653  -5.916 -17.518  0.00  0.00    -0.274 OA
HETATM   15  N           1     -27.084  -6.675 -19.573  0.00  0.00    -0.370 N 
HETATM   16  H           1     -27.777  -6.918 -20.269  0.00  0.00     0.159 HD
HETATM   17  H           1     -26.100  -6.777 -19.781  0.00  0.00     0.159 HD
ENDBRANCH  12  13
ENDBRANCH  11  12
ENDBRANCH   1  11
BRANCH   1  18
HETATM   18  C           1     -28.974  -2.777 -17.082  0.00  0.00     0.196 C 
HETATM   19  O           1     -27.850  -3.061 -16.615  0.00  0.00    -0.646 OA
HETATM   20  O           1     -29.280  -1.584 -17.292  0.00  0.00    -0.646 OA
ENDBRANCH   1  18
TORSDOF 7
ENDMDL
MODEL 7
REMARK VINA RESULT:      -4.9     13.223     14.694
REMARK  7 active torsions:
REMARK  status: ('A' for Active; 'I' for Inactive)
REMARK       I    between atoms: C_1  and  N_4 
REMARK    1  A    between atoms: C_1  and  C_5 
REMARK    2  A    between atoms: C_2  and  C_10 
REMARK    3  A    between atoms: C_2  and  N_12 
REMARK    4  A    between atoms: N_3  and  C_7 
REMARK       I    between atoms: N_3  and  C_10 
REMARK    5  A    between atoms: C_5  and  C_6 
REMARK    6  A    between atoms: C_6  and  C_7 
REMARK    7  A    between atoms: C_7  and  C_11 
ROOT
HETATM    1  C           1     -21.157  -6.438  -4.456  0.00  0.00     0.186 C 
ENDROOT
BRANCH   1   2
HETATM    2  N           1     -21.604  -5.747  -5.650  0.00  0.00    -0.345 N 
HETATM    3  C           1     -20.823  -4.772  -6.210  0.00  0.00     0.243 C 
HETATM    4  O           1     -19.762  -4.486  -5.708  0.00  0.00    -0.272 OA
HETATM    5  H           1     -22.493  -5.987  -6.070  0.00  0.00     0.163 HD
BRANCH   3   6
HETATM    6  C           1     -21.288  -4.053  -7.452  0.00  0.00     0.332 C 
BRANCH   6   7
HETATM    7  N           1     -22.788  -4.036  -7.490  0.00  0.00    -0.071 N 
HETATM    8  H           1     -23.162  -4.104  -6.516  0.00  0.00     0.274 HD
HETATM    9  H           1     -23.114  -3.145  -7.926  0.00  0.00     0.274 HD
HETATM   10  H           1     -23.130  -4.847  -8.053  0.00  0.00     0.274 HD
ENDBRANCH   6   7
ENDBRANCH   3   6
ENDBRANCH   1   2
BRANCH   1  11
HETATM   11  C           1     -22.314  -6.550  -3.473  0.00  0.00     0.045 C 
BRANCH  11  12
HETATM   12  C           1     -21.855  -6.095  -2.094  0.00  0.00     0.105 C 
BRANCH  12  13
HETATM   13  C           1     -22.061  -7.211  -1.100  0.00  0.00     0.215 C 
HETATM   14  O           1     -22.980  -7.160  -0.317  0.00  0.00    -0.274 OA
HETATM   15  N           1     -21.208  -8.282  -1.084  0.00  0.00    -0.370 N 
HETATM   16  H           1     -20.438  -8.324  -1.740  0.00  0.00     0.159 HD
HETATM   17  H           1     -21.347  -9.030  -0.417  0.00  0.00     0.159 HD
ENDBRANCH  12  13
ENDBRANCH  11  12
ENDBRANCH   1  11
BRANCH   1  18
HETATM   18  C           1     -20.674  -7.820  -4.826  0.00  0.00     0.196 C 
HETATM   19  O           1     -21.004  -8.324  -5.921  0.00  0.00    -0.646 OA
HETATM   20  O           1     -19.945  -8.458  -4.037  0.00  0.00    -0.646 OA
ENDBRANCH   1  18
TORSDOF 7
ENDMDL
MODEL 8
REMARK VINA RESULT:      -4.7      3.066      5.350
REMARK  7 active torsions:
REMARK  status: ('A' for Active; 'I' for Inactive)
REMARK       I    between atoms: C_1  and  N_4 
REMARK    1  A    between atoms: C_1  and  C_5 
REMARK    2  A    between atoms: C_2  and  C_10 
REMARK    3  A    between atoms: C_2  and  N_12 
REMARK    4  A    between atoms: N_3  and  C_7 
REMARK       I    between atoms: N_3  and  C_10 
REMARK    5  A    between atoms: C_5  and  C_6 
REMARK    6  A    between atoms: C_6  and  C_7 
REMARK    7  A    between atoms: C_7  and  C_11 
ROOT
HETATM    1  C           1     -29.089  -5.066 -17.506  0.00  0.00     0.186 C 
ENDROOT
BRANCH   1   2
HETATM    2  N           1     -30.167  -4.117 -17.710  0.00  0.00    -0.345 N 
HETATM    3  C           1     -31.418  -4.386 -17.223  0.00  0.00     0.243 C 
HETATM    4  O           1     -31.624  -5.415 -16.625  0.00  0.00    -0.272 OA
HETATM    5  H           1     -29.993  -3.255 -18.211  0.00  0.00     0.163 HD
BRANCH   3   6
HETATM    6  C           1     -32.538  -3.399 -17.435  0.00  0.00     0.332 C 
BRANCH   6   7
HETATM    7  N           1     -33.727  -3.806 -16.615  0.00  0.00    -0.071 N 
HETATM    8  H           1     -34.602  -3.476 -17.082  0.00  0.00     0.274 HD
HETATM    9  H           1     -33.750  -4.847 -16.529  0.00  0.00     0.274 HD
HETATM   10  H           1     -33.656  -3.378 -15.665  0.00  0.00     0.274 HD
ENDBRANCH   6   7
ENDBRANCH   3   6
ENDBRANCH   1   2
BRANCH   1  11
HETATM   11  C           1     -28.637  -5.616 -18.853  0.00  0.00     0.045 C 
BRANCH  11  12
HETATM   12  C           1     -28.413  -7.118 -18.739  0.00  0.00     0.105 C 
BRANCH  12  13
HETATM   13  C           1     -29.590  -7.752 -18.040  0.00  0.00     0.215 C 
HETATM   14  O           1     -29.437  -8.293 -16.970  0.00  0.00    -0.274 OA
HETATM   15  N           1     -30.831  -7.716 -18.617  0.00  0.00    -0.370 N 
HETATM   16  H           1     -30.959  -7.263 -19.513  0.00  0.00     0.159 HD
HETATM   17  H           1     -31.620  -8.141 -18.148  0.00  0.00     0.159 HD
ENDBRANCH  12  13
ENDBRANCH  11  12
ENDBRANCH   1  11
BRANCH   1  18
HETATM   18  C           1     -27.931  -4.374 -16.831  0.00  0.00     0.196 C 
HETATM   19  O           1     -26.856  -4.987 -16.649  0.00  0.00    -0.646 OA
HETATM   20  O           1     -28.046  -3.189 -16.453  0.00  0.00    -0.646 OA
ENDBRANCH   1  18
TORSDOF 7
ENDMDL
MODEL 9
REMARK VINA RESULT:      -4.7     15.083     16.376
REMARK  7 active torsions:
REMARK  status: ('A' for Active; 'I' for Inactive)
REMARK       I    between atoms: C_1  and  N_4 
REMARK    1  A    between atoms: C_1  and  C_5 
REMARK    2  A    between atoms: C_2  and  C_10 
REMARK    3  A    between atoms: C_2  and  N_12 
REMARK    4  A    between atoms: N_3  and  C_7 
REMARK       I    between atoms: N_3  and  C_10 
REMARK    5  A    between atoms: C_5  and  C_6 
REMARK    6  A    between atoms: C_6  and  C_7 
REMARK    7  A    between atoms: C_7  and  C_11 
ROOT
HETATM    1  C           1     -21.244  -7.975  -1.545  0.00  0.00     0.186 C 
ENDROOT
BRANCH   1   2
HETATM    2  N           1     -21.940  -9.246  -1.480  0.00  0.00    -0.345 N 
HETATM    3  C           1     -21.752 -10.075  -0.407  0.00  0.00     0.243 C 
HETATM    4  O           1     -21.006  -9.748   0.486  0.00  0.00    -0.272 OA
HETATM    5  H           1     -22.565  -9.519  -2.227  0.00  0.00     0.163 HD
BRANCH   3   6
HETATM    6  C           1     -22.475 -11.397  -0.339  0.00  0.00     0.332 C 
BRANCH   6   7
HETATM    7  N           1     -23.956 -11.157  -0.301  0.00  0.00    -0.071 N 
HETATM    8  H           1     -24.306 -11.289   0.674  0.00  0.00     0.274 HD
HETATM    9  H           1     -24.158 -10.181  -0.614  0.00  0.00     0.274 HD
HETATM   10  H           1     -24.433 -11.834  -0.938  0.00  0.00     0.274 HD
ENDBRANCH   6   7
ENDBRANCH   3   6
ENDBRANCH   1   2
BRANCH   1  11
HETATM   11  C           1     -20.627  -7.805  -2.926  0.00  0.00     0.045 C 
BRANCH  11  12
HETATM   12  C           1     -21.530  -8.450  -3.969  0.00  0.00     0.105 C 
BRANCH  12  13
HETATM   13  C           1     -21.761  -7.483  -5.104  0.00  0.00     0.215 C 
HETATM   14  O           1     -21.275  -7.698  -6.189  0.00  0.00    -0.274 OA
HETATM   15  N           1     -22.520  -6.361  -4.905  0.00  0.00    -0.370 N 
HETATM   16  H           1     -22.927  -6.181  -3.996  0.00  0.00     0.159 HD
HETATM   17  H           1     -22.675  -5.713  -5.666  0.00  0.00     0.159 HD
ENDBRANCH  12  13
ENDBRANCH  11  12
ENDBRANCH   1  11
BRANCH   1  18
HETATM   18  C           1     -22.221  -6.853  -1.289  0.00  0.00     0.196 C 
HETATM   19  O           1     -22.171  -5.811  -1.977  0.00  0.00    -0.646 OA
HETATM   20  O           1     -23.081  -6.967  -0.389  0.00  0.00    -0.646 OA
ENDBRANCH   1  18
TORSDOF 7
ENDMDL
