MODEL 1
REMARK VINA RESULT:      -5.9      0.000      0.000
REMARK  3 active torsions:
REMARK  status: ('A' for Active; 'I' for Inactive)
REMARK       I    between atoms: C_8  and  N_14 
REMARK    1  A    between atoms: C_8  and  C_20 
REMARK    2  A    between atoms: C_12  and  C_19 
REMARK    3  A    between atoms: N_14  and  C_19 
ROOT
HETATM    1  H           1     -22.472  -5.077  -6.663  0.00  0.00     0.275 HD
HETATM    2  H           1     -22.906  -3.459  -6.992  0.00  0.00     0.275 HD
HETATM    3  H           1     -22.146  -3.855  -5.517  0.00  0.00     0.275 HD
HETATM    4  C           1     -21.510  -6.115  -4.559  0.00  0.00     0.229 C 
HETATM    5  H           1     -23.069  -7.185  -5.459  0.00  0.00     0.274 HD
HETATM    6  H           1     -22.661  -5.739  -6.268  0.00  0.00     0.274 HD
HETATM    7  H           1     -23.544  -5.681  -4.810  0.00  0.00     0.274 HD
HETATM    8  N           1     -22.793  -6.185  -5.333  0.00  0.00    -0.079 N 
HETATM    9  N           1     -22.196  -4.077  -6.537  0.00  0.00    -0.067 N 
HETATM   10  C           1     -20.222  -6.202  -6.685  0.00  0.00     0.004 C 
HETATM   11  C           1     -20.416  -6.851  -5.321  0.00  0.00     0.027 C 
HETATM   12  C           1     -20.854  -3.844  -7.167  0.00  0.00     0.274 C 
HETATM   13  C           1     -19.820  -4.744  -6.502  0.00  0.00     0.042 C 
ENDROOT
BRANCH  12  14
HETATM   14  C           1     -20.928  -4.164  -8.639  0.00  0.00     0.248 C 
HETATM   15  O           1     -19.914  -4.350  -9.269  0.00  0.00    -0.271 OA
HETATM   16  N           1     -22.145  -4.245  -9.262  0.00  0.00    -0.349 N 
HETATM   17  H           1     -22.994  -4.090  -8.734  0.00  0.00     0.163 HD
BRANCH  16  18
HETATM   18  C           1     -22.216  -4.553 -10.678  0.00  0.00     0.235 C 
BRANCH  18  19
HETATM   19  C           1     -23.662  -4.636 -11.102  0.00  0.00     0.191 C 
HETATM   20  O           1     -23.953  -4.752 -12.312  0.00  0.00    -0.647 OA
HETATM   21  O           1     -24.569  -4.589 -10.242  0.00  0.00    -0.647 OA
ENDBRANCH  18  19
ENDBRANCH  16  18
ENDBRANCH  12  14
TORSDOF 3
ENDMDL
MODEL 2
REMARK VINA RESULT:      -5.9      3.117      5.676
REMARK  3 active torsions:
REMARK  status: ('A' for Active; 'I' for Inactive)
REMARK       I    between atoms: C_8  and  N_14 
REMARK    1  A    between atoms: C_8  and  C_20 
REMARK    2  A    between atoms: C_12  and  C_19 
REMARK    3  A    between atoms: N_14  and  C_19 
ROOT
HETATM    1  H           1     -19.917  -5.055  -8.990  0.00  0.00     0.275 HD
HETATM    2  H           1     -18.774  -4.667  -7.783  0.00  0.00     0.275 HD
HETATM    3  H           1     -19.438  -3.434  -8.757  0.00  0.00     0.275 HD
HETATM    4  C           1     -20.998  -3.584 -10.750  0.00  0.00     0.229 C 
HETATM    5  H           1     -20.315  -5.444 -11.428  0.00  0.00     0.274 HD
HETATM    6  H           1     -20.039  -5.165  -9.767  0.00  0.00     0.274 HD
HETATM    7  H           1     -19.071  -4.386 -10.936  0.00  0.00     0.274 HD
HETATM    8  N           1     -20.033  -4.732 -10.717  0.00  0.00    -0.079 N 
HETATM    9  N           1     -19.634  -4.342  -8.280  0.00  0.00    -0.067 N 
HETATM   10  C           1     -22.409  -4.722  -9.047  0.00  0.00     0.004 C 
HETATM   11  C           1     -22.399  -4.089 -10.432  0.00  0.00     0.027 C 
HETATM   12  C           1     -20.744  -4.158  -7.287  0.00  0.00     0.274 C 
HETATM   13  C           1     -21.998  -3.684  -8.011  0.00  0.00     0.042 C 
ENDROOT
BRANCH  12  14
HETATM   14  C           1     -21.026  -5.470  -6.599  0.00  0.00     0.248 C 
HETATM   15  O           1     -20.416  -6.463  -6.917  0.00  0.00    -0.271 OA
HETATM   16  N           1     -21.974  -5.537  -5.612  0.00  0.00    -0.349 N 
HETATM   17  H           1     -22.485  -4.705  -5.346  0.00  0.00     0.163 HD
BRANCH  16  18
HETATM   18  C           1     -22.246  -6.798  -4.951  0.00  0.00     0.235 C 
BRANCH  18  19
HETATM   19  C           1     -21.773  -6.728  -3.520  0.00  0.00     0.191 C 
HETATM   20  O           1     -20.799  -7.416  -3.148  0.00  0.00    -0.647 OA
HETATM   21  O           1     -22.357  -5.979  -2.705  0.00  0.00    -0.647 OA
ENDBRANCH  18  19
ENDBRANCH  16  18
ENDBRANCH  12  14
TORSDOF 3
ENDMDL
MODEL 3
REMARK VINA RESULT:      -5.4      4.163      6.526
REMARK  3 active torsions:
REMARK  status: ('A' for Active; 'I' for Inactive)
REMARK       I    between atoms: C_8  and  N_14 
REMARK    1  A    between atoms: C_8  and  C_20 
REMARK    2  A    between atoms: C_12  and  C_19 
REMARK    3  A    between atoms: N_14  and  C_19 
ROOT
HETATM    1  H           1     -21.909  -6.193  -7.203  0.00  0.00     0.275 HD
HETATM    2  H           1     -21.690  -7.819  -6.732  0.00  0.00     0.275 HD
HETATM    3  H           1     -20.485  -7.025  -7.642  0.00  0.00     0.275 HD
HETATM    4  C           1     -20.482  -4.716  -8.690  0.00  0.00     0.229 C 
HETATM    5  H           1     -22.543  -4.632  -9.051  0.00  0.00     0.274 HD
HETATM    6  H           1     -22.099  -5.703  -7.798  0.00  0.00     0.274 HD
HETATM    7  H           1     -21.834  -6.138  -9.426  0.00  0.00     0.274 HD
HETATM    8  N           1     -21.842  -5.345  -8.745  0.00  0.00    -0.079 N 
HETATM    9  N           1     -21.209  -6.906  -6.898  0.00  0.00    -0.067 N 
HETATM   10  C           1     -20.871  -4.081  -6.316  0.00  0.00     0.004 C 
HETATM   11  C           1     -20.495  -3.561  -7.698  0.00  0.00     0.027 C 
HETATM   12  C           1     -20.552  -6.450  -5.628  0.00  0.00     0.274 C 
HETATM   13  C           1     -19.850  -5.121  -5.870  0.00  0.00     0.042 C 
ENDROOT
BRANCH  12  14
HETATM   14  C           1     -21.598  -6.280  -4.554  0.00  0.00     0.248 C 
HETATM   15  O           1     -22.769  -6.254  -4.850  0.00  0.00    -0.271 OA
HETATM   16  N           1     -21.220  -6.154  -3.244  0.00  0.00    -0.349 N 
HETATM   17  H           1     -20.239  -6.175  -2.997  0.00  0.00     0.163 HD
BRANCH  16  18
HETATM   18  C           1     -22.225  -5.990  -2.211  0.00  0.00     0.235 C 
BRANCH  18  19
HETATM   19  C           1     -22.090  -7.098  -1.197  0.00  0.00     0.191 C 
HETATM   20  O           1     -21.136  -7.902  -1.273  0.00  0.00    -0.647 OA
HETATM   21  O           1     -22.932  -7.212  -0.280  0.00  0.00    -0.647 OA
ENDBRANCH  18  19
ENDBRANCH  16  18
ENDBRANCH  12  14
TORSDOF 3
ENDMDL
MODEL 4
REMARK VINA RESULT:      -5.4     18.725     20.453
REMARK  3 active torsions:
REMARK  status: ('A' for Active; 'I' for Inactive)
REMARK       I    between atoms: C_8  and  N_14 
REMARK    1  A    between atoms: C_8  and  C_20 
REMARK    2  A    between atoms: C_12  and  C_19 
REMARK    3  A    between atoms: N_14  and  C_19 
ROOT
HETATM    1  H           1     -12.197   5.445 -21.962  0.00  0.00     0.275 HD
HETATM    2  H           1     -12.894   6.965 -21.622  0.00  0.00     0.275 HD
HETATM    3  H           1     -13.771   5.536 -21.308  0.00  0.00     0.275 HD
HETATM    4  C           1     -13.201   3.120 -21.825  0.00  0.00     0.229 C 
HETATM    5  H           1     -12.087   3.519 -23.552  0.00  0.00     0.274 HD
HETATM    6  H           1     -12.176   4.831 -22.465  0.00  0.00     0.274 HD
HETATM    7  H           1     -13.525   4.428 -23.430  0.00  0.00     0.274 HD
HETATM    8  N           1     -12.710   4.045 -22.899  0.00  0.00    -0.079 N 
HETATM    9  N           1     -12.821   5.971 -21.309  0.00  0.00    -0.067 N 
HETATM   10  C           1     -11.234   3.707 -20.420  0.00  0.00     0.004 C 
HETATM   11  C           1     -12.013   2.561 -21.052  0.00  0.00     0.027 C 
HETATM   12  C           1     -12.248   5.924 -19.923  0.00  0.00     0.274 C 
HETATM   13  C           1     -12.142   4.475 -19.467  0.00  0.00     0.042 C 
ENDROOT
BRANCH  12  14
HETATM   14  C           1     -10.876   6.552 -19.925  0.00  0.00     0.248 C 
HETATM   15  O           1     -10.235   6.606 -18.902  0.00  0.00    -0.271 OA
HETATM   16  N           1     -10.358   7.061 -21.086  0.00  0.00    -0.349 N 
HETATM   17  H           1     -10.896   7.015 -21.942  0.00  0.00     0.163 HD
BRANCH  16  18
HETATM   18  C           1      -9.039   7.665 -21.088  0.00  0.00     0.235 C 
BRANCH  18  19
HETATM   19  C           1      -9.174   9.167 -21.143  0.00  0.00     0.191 C 
HETATM   20  O           1      -9.729   9.780 -20.206  0.00  0.00    -0.647 OA
HETATM   21  O           1      -8.730   9.798 -22.127  0.00  0.00    -0.647 OA
ENDBRANCH  18  19
ENDBRANCH  16  18
ENDBRANCH  12  14
TORSDOF 3
ENDMDL
MODEL 5
REMARK VINA RESULT:      -5.4      3.039      5.624
REMARK  3 active torsions:
REMARK  status: ('A' for Active; 'I' for Inactive)
REMARK       I    between atoms: C_8  and  N_14 
REMARK    1  A    between atoms: C_8  and  C_20 
REMARK    2  A    between atoms: C_12  and  C_19 
REMARK    3  A    between atoms: N_14  and  C_19 
ROOT
HETATM    1  H           1     -20.074  -5.039  -8.805  0.00  0.00     0.275 HD
HETATM    2  H           1     -19.151  -4.583  -7.443  0.00  0.00     0.275 HD
HETATM    3  H           1     -19.602  -3.412  -8.599  0.00  0.00     0.275 HD
HETATM    4  C           1     -20.790  -3.681 -10.822  0.00  0.00     0.229 C 
HETATM    5  H           1     -20.047  -5.593 -11.243  0.00  0.00     0.274 HD
HETATM    6  H           1     -20.060  -5.202  -9.582  0.00  0.00     0.274 HD
HETATM    7  H           1     -18.882  -4.520 -10.610  0.00  0.00     0.274 HD
HETATM    8  N           1     -19.876  -4.836 -10.543  0.00  0.00    -0.079 N 
HETATM    9  N           1     -19.902  -4.282  -8.105  0.00  0.00    -0.067 N 
HETATM   10  C           1     -22.508  -4.676  -9.324  0.00  0.00     0.004 C 
HETATM   11  C           1     -22.238  -4.142 -10.725  0.00  0.00     0.027 C 
HETATM   12  C           1     -21.164  -4.013  -7.339  0.00  0.00     0.274 C 
HETATM   13  C           1     -22.258  -3.574  -8.303  0.00  0.00     0.042 C 
ENDROOT
BRANCH  12  14
HETATM   14  C           1     -21.597  -5.270  -6.625  0.00  0.00     0.248 C 
HETATM   15  O           1     -22.635  -5.287  -6.007  0.00  0.00    -0.271 OA
HETATM   16  N           1     -20.813  -6.392  -6.678  0.00  0.00    -0.349 N 
HETATM   17  H           1     -19.944  -6.377  -7.196  0.00  0.00     0.163 HD
BRANCH  16  18
HETATM   18  C           1     -21.229  -7.600  -5.993  0.00  0.00     0.235 C 
BRANCH  18  19
HETATM   19  C           1     -20.455  -7.739  -4.705  0.00  0.00     0.191 C 
HETATM   20  O           1     -19.411  -8.426  -4.674  0.00  0.00    -0.647 OA
HETATM   21  O           1     -20.858  -7.168  -3.669  0.00  0.00    -0.647 OA
ENDBRANCH  18  19
ENDBRANCH  16  18
ENDBRANCH  12  14
TORSDOF 3
ENDMDL
MODEL 6
REMARK VINA RESULT:      -5.2      2.130      3.517
REMARK  3 active torsions:
REMARK  status: ('A' for Active; 'I' for Inactive)
REMARK       I    between atoms: C_8  and  N_14 
REMARK    1  A    between atoms: C_8  and  C_20 
REMARK    2  A    between atoms: C_12  and  C_19 
REMARK    3  A    between atoms: N_14  and  C_19 
ROOT
HETATM    1  H           1     -20.078  -8.050  -4.851  0.00  0.00     0.275 HD
HETATM    2  H           1     -20.380  -8.878  -6.313  0.00  0.00     0.275 HD
HETATM    3  H           1     -21.426  -9.090  -4.982  0.00  0.00     0.275 HD
HETATM    4  C           1     -21.250  -8.216  -2.609  0.00  0.00     0.229 C 
HETATM    5  H           1     -19.158  -8.199  -2.531  0.00  0.00     0.274 HD
HETATM    6  H           1     -19.796  -8.108  -4.111  0.00  0.00     0.274 HD
HETATM    7  H           1     -19.813  -9.591  -3.268  0.00  0.00     0.274 HD
HETATM    8  N           1     -19.902  -8.554  -3.173  0.00  0.00    -0.079 N 
HETATM    9  N           1     -20.823  -8.406  -5.493  0.00  0.00    -0.067 N 
HETATM   10  C           1     -21.222  -6.053  -3.838  0.00  0.00     0.004 C 
HETATM   11  C           1     -21.379  -6.704  -2.470  0.00  0.00     0.027 C 
HETATM   12  C           1     -21.662  -7.257  -5.970  0.00  0.00     0.274 C 
HETATM   13  C           1     -22.308  -6.570  -4.774  0.00  0.00     0.042 C 
ENDROOT
BRANCH  12  14
HETATM   14  C           1     -20.791  -6.271  -6.707  0.00  0.00     0.248 C 
HETATM   15  O           1     -19.626  -6.523  -6.906  0.00  0.00    -0.271 OA
HETATM   16  N           1     -21.320  -5.088  -7.152  0.00  0.00    -0.349 N 
HETATM   17  H           1     -22.295  -4.877  -6.985  0.00  0.00     0.163 HD
BRANCH  16  18
HETATM   18  C           1     -20.482  -4.140  -7.860  0.00  0.00     0.235 C 
BRANCH  18  19
HETATM   19  C           1     -20.789  -4.203  -9.336  0.00  0.00     0.191 C 
HETATM   20  O           1     -21.845  -3.701  -9.778  0.00  0.00    -0.647 OA
HETATM   21  O           1     -19.986  -4.757 -10.118  0.00  0.00    -0.647 OA
ENDBRANCH  18  19
ENDBRANCH  16  18
ENDBRANCH  12  14
TORSDOF 3
ENDMDL
MODEL 7
REMARK VINA RESULT:      -5.2     18.612     19.890
REMARK  3 active torsions:
REMARK  status: ('A' for Active; 'I' for Inactive)
REMARK       I    between atoms: C_8  and  N_14 
REMARK    1  A    between atoms: C_8  and  C_20 
REMARK    2  A    between atoms: C_12  and  C_19 
REMARK    3  A    between atoms: N_14  and  C_19 
ROOT
HETATM    1  H           1     -12.722   4.899 -20.132  0.00  0.00     0.275 HD
HETATM    2  H           1     -12.076   4.779 -18.556  0.00  0.00     0.275 HD
HETATM    3  H           1     -12.382   3.366 -19.462  0.00  0.00     0.275 HD
HETATM    4  C           1     -13.487   3.082 -21.727  0.00  0.00     0.229 C 
HETATM    5  H           1     -14.769   4.730 -21.557  0.00  0.00     0.274 HD
HETATM    6  H           1     -13.373   4.831 -20.580  0.00  0.00     0.274 HD
HETATM    7  H           1     -14.652   3.793 -20.137  0.00  0.00     0.274 HD
HETATM    8  N           1     -14.118   4.193 -20.941  0.00  0.00    -0.079 N 
HETATM    9  N           1     -12.071   4.362 -19.514  0.00  0.00    -0.067 N 
HETATM   10  C           1     -11.624   4.597 -22.374  0.00  0.00     0.004 C 
HETATM   11  C           1     -12.709   3.666 -22.899  0.00  0.00     0.027 C 
HETATM   12  C           1     -10.681   4.424 -20.078  0.00  0.00     0.274 C 
HETATM   13  C           1     -10.674   3.816 -21.475  0.00  0.00     0.042 C 
ENDROOT
BRANCH  12  14
HETATM   14  C           1     -10.233   5.863 -20.153  0.00  0.00     0.248 C 
HETATM   15  O           1      -9.055   6.129 -20.152  0.00  0.00    -0.271 OA
HETATM   16  N           1     -11.162   6.866 -20.222  0.00  0.00    -0.349 N 
HETATM   17  H           1     -12.149   6.643 -20.224  0.00  0.00     0.163 HD
BRANCH  16  18
HETATM   18  C           1     -10.731   8.250 -20.294  0.00  0.00     0.235 C 
BRANCH  18  19
HETATM   19  C           1     -10.995   8.928 -18.973  0.00  0.00     0.191 C 
HETATM   20  O           1     -10.063   9.092 -18.157  0.00  0.00    -0.647 OA
HETATM   21  O           1     -12.148   9.325 -18.693  0.00  0.00    -0.647 OA
ENDBRANCH  18  19
ENDBRANCH  16  18
ENDBRANCH  12  14
TORSDOF 3
ENDMDL
MODEL 8
REMARK VINA RESULT:      -5.1     19.167     20.839
REMARK  3 active torsions:
REMARK  status: ('A' for Active; 'I' for Inactive)
REMARK       I    between atoms: C_8  and  N_14 
REMARK    1  A    between atoms: C_8  and  C_20 
REMARK    2  A    between atoms: C_12  and  C_19 
REMARK    3  A    between atoms: N_14  and  C_19 
ROOT
HETATM    1  H           1     -11.440   8.387 -22.050  0.00  0.00     0.275 HD
HETATM    2  H           1     -10.072   8.127 -23.038  0.00  0.00     0.275 HD
HETATM    3  H           1     -10.384   9.681 -22.405  0.00  0.00     0.275 HD
HETATM    4  C           1     -12.363  10.536 -21.071  0.00  0.00     0.229 C 
HETATM    5  H           1     -13.781   9.257 -21.930  0.00  0.00     0.274 HD
HETATM    6  H           1     -12.178   8.677 -22.016  0.00  0.00     0.274 HD
HETATM    7  H           1     -12.688   9.934 -23.051  0.00  0.00     0.274 HD
HETATM    8  N           1     -12.784   9.524 -22.094  0.00  0.00    -0.079 N 
HETATM    9  N           1     -10.443   8.655 -22.216  0.00  0.00    -0.067 N 
HETATM   10  C           1     -11.622   8.703 -19.562  0.00  0.00     0.004 C 
HETATM   11  C           1     -12.504   9.940 -19.677  0.00  0.00     0.027 C 
HETATM   12  C           1      -9.628   8.322 -21.000  0.00  0.00     0.274 C 
HETATM   13  C           1     -10.168   9.092 -19.802  0.00  0.00     0.042 C 
ENDROOT
BRANCH  12  14
HETATM   14  C           1      -9.714   6.841 -20.728  0.00  0.00     0.248 C 
HETATM   15  O           1      -8.902   6.311 -20.007  0.00  0.00    -0.271 OA
HETATM   16  N           1     -10.712   6.097 -21.297  0.00  0.00    -0.349 N 
HETATM   17  H           1     -11.392   6.541 -21.901  0.00  0.00     0.163 HD
BRANCH  16  18
HETATM   18  C           1     -10.795   4.672 -21.035  0.00  0.00     0.235 C 
BRANCH  18  19
HETATM   19  C           1     -11.973   4.394 -20.135  0.00  0.00     0.191 C 
HETATM   20  O           1     -12.873   3.609 -20.506  0.00  0.00    -0.647 OA
HETATM   21  O           1     -12.050   4.949 -19.017  0.00  0.00    -0.647 OA
ENDBRANCH  18  19
ENDBRANCH  16  18
ENDBRANCH  12  14
TORSDOF 3
ENDMDL
MODEL 9
REMARK VINA RESULT:      -5.0     18.293     20.026
REMARK  3 active torsions:
REMARK  status: ('A' for Active; 'I' for Inactive)
REMARK       I    between atoms: C_8  and  N_14 
REMARK    1  A    between atoms: C_8  and  C_20 
REMARK    2  A    between atoms: C_12  and  C_19 
REMARK    3  A    between atoms: N_14  and  C_19 
ROOT
HETATM    1  H           1     -11.446   7.849 -19.061  0.00  0.00     0.275 HD
HETATM    2  H           1     -13.140   7.880 -18.847  0.00  0.00     0.275 HD
HETATM    3  H           1     -12.382   9.056 -19.824  0.00  0.00     0.275 HD
HETATM    4  C           1      -9.921   9.484 -20.256  0.00  0.00     0.229 C 
HETATM    5  H           1      -9.249   8.830 -18.384  0.00  0.00     0.274 HD
HETATM    6  H           1     -10.753   8.174 -18.850  0.00  0.00     0.274 HD
HETATM    7  H           1     -10.656   9.792 -18.318  0.00  0.00     0.274 HD
HETATM    8  N           1     -10.163   9.036 -18.846  0.00  0.00    -0.079 N 
HETATM    9  N           1     -12.362   8.056 -19.522  0.00  0.00    -0.067 N 
HETATM   10  C           1     -10.062   7.124 -21.031  0.00  0.00     0.004 C 
HETATM   11  C           1      -9.202   8.382 -21.024  0.00  0.00     0.027 C 
HETATM   12  C           1     -12.529   7.167 -20.720  0.00  0.00     0.274 C 
HETATM   13  C           1     -11.395   7.423 -21.703  0.00  0.00     0.042 C 
ENDROOT
BRANCH  12  14
HETATM   14  C           1     -12.500   5.723 -20.282  0.00  0.00     0.248 C 
HETATM   15  O           1     -12.195   5.442 -19.148  0.00  0.00    -0.271 OA
HETATM   16  N           1     -12.818   4.732 -21.172  0.00  0.00    -0.349 N 
HETATM   17  H           1     -13.074   4.968 -22.122  0.00  0.00     0.163 HD
BRANCH  16  18
HETATM   18  C           1     -12.790   3.344 -20.751  0.00  0.00     0.235 C 
BRANCH  18  19
HETATM   19  C           1     -11.463   2.732 -21.127  0.00  0.00     0.191 C 
HETATM   20  O           1     -11.126   1.627 -20.649  0.00  0.00    -0.647 OA
HETATM   21  O           1     -10.701   3.330 -21.917  0.00  0.00    -0.647 OA
ENDBRANCH  18  19
ENDBRANCH  16  18
ENDBRANCH  12  14
TORSDOF 3
ENDMDL
