MODEL 1
REMARK VINA RESULT:      -7.4      0.000      0.000
REMARK  11 active torsions:
REMARK  status: ('A' for Active; 'I' for Inactive)
REMARK    1  A    between atoms: N_4  and  C_7 
REMARK    2  A    between atoms: P_6  and  O_14 
REMARK    3  A    between atoms: P_6  and  O_16 
REMARK    4  A    between atoms: C_7  and  C_8 
REMARK    5  A    between atoms: C_7  and  C_15 
REMARK       I    between atoms: C_8  and  N_9 
REMARK    6  A    between atoms: N_9  and  C_27 
REMARK    7  A    between atoms: C_10  and  C_15 
REMARK    8  A    between atoms: O_14  and  C_28 
REMARK    9  A    between atoms: C_18  and  C_27 
REMARK   10  A    between atoms: O_26  and  C_29 
REMARK   11  A    between atoms: C_27  and  C_28 
ROOT
HETATM    1  H           1     -22.919  -6.756  -4.544  0.00  0.00     0.163 HD
HETATM    2  C           1     -21.348  -5.751  -5.442  0.00  0.00     0.249 C 
HETATM    3  N           1     -21.937  -6.517  -4.473  0.00  0.00    -0.343 N 
HETATM    4  O           1     -20.177  -5.467  -5.358  0.00  0.00    -0.271 OA
ENDROOT
BRANCH   2   5
HETATM    5  C           1     -22.161  -5.262  -6.615  0.00  0.00     0.278 C 
BRANCH   5   6
HETATM    6  N           1     -23.580  -5.043  -6.182  0.00  0.00    -0.066 N 
HETATM    7  H           1     -23.785  -5.637  -5.346  0.00  0.00     0.275 HD
HETATM    8  H           1     -23.717  -4.036  -5.934  0.00  0.00     0.275 HD
HETATM    9  H           1     -24.227  -5.302  -6.960  0.00  0.00     0.275 HD
ENDBRANCH   5   6
BRANCH   5  10
HETATM   10  C           1     -21.579  -3.950  -7.126  0.00  0.00     0.081 C 
BRANCH  10  11
HETATM   11  C           1     -21.608  -3.938  -8.622  0.00  0.00    -0.056 A 
HETATM   12  C           1     -20.441  -4.181  -9.346  0.00  0.00     0.010 A 
HETATM   13  C           1     -20.469  -4.169 -10.740  0.00  0.00     0.037 A 
HETATM   14  C           1     -21.665  -3.914 -11.410  0.00  0.00     0.065 A 
HETATM   15  C           1     -22.833  -3.671 -10.688  0.00  0.00     0.037 A 
HETATM   16  C           1     -22.805  -3.683  -9.294  0.00  0.00     0.010 A 
BRANCH  14  17
HETATM   17  O           1     -21.692  -3.903 -12.765  0.00  0.00    -0.361 OA
HETATM   18  H           1     -22.126  -3.080 -13.050  0.00  0.00     0.217 HD
ENDBRANCH  14  17
ENDBRANCH  10  11
ENDBRANCH   5  10
ENDBRANCH   2   5
BRANCH   3  19
HETATM   19  C           1     -21.156  -6.988  -3.346  0.00  0.00     0.210 C 
BRANCH  19  20
HETATM   20  C           1     -20.796  -8.438  -3.553  0.00  0.00     0.198 C 
HETATM   21  O           1     -19.597  -8.791  -3.561  0.00  0.00    -0.646 OA
HETATM   22  O           1     -21.698  -9.288  -3.716  0.00  0.00    -0.646 OA
ENDBRANCH  19  20
BRANCH  19  23
HETATM   23  C           1     -21.971  -6.844  -2.068  0.00  0.00     0.217 C 
BRANCH  23  24
HETATM   24  O           1     -21.285  -7.450  -1.006  0.00  0.00    -0.287 OA
BRANCH  24  25
HETATM   25  P           1     -22.196  -8.261   0.053  0.00  0.00     0.406 P 
HETATM   26  O           1     -21.503  -8.316   1.360  0.00  0.00    -0.624 OA
HETATM   27  O           1     -22.421  -9.637  -0.443  0.00  0.00    -0.624 OA
BRANCH  25  28
HETATM   28  O           1     -23.615  -7.511   0.228  0.00  0.00    -0.300 OA
HETATM   29  H           1     -24.255  -8.202   0.248  0.00  0.00     0.223 HD
ENDBRANCH  25  28
ENDBRANCH  24  25
ENDBRANCH  23  24
ENDBRANCH  19  23
ENDBRANCH   3  19
TORSDOF 11
ENDMDL
MODEL 2
REMARK VINA RESULT:      -7.3     14.032     17.354
REMARK  11 active torsions:
REMARK  status: ('A' for Active; 'I' for Inactive)
REMARK    1  A    between atoms: N_4  and  C_7 
REMARK    2  A    between atoms: P_6  and  O_14 
REMARK    3  A    between atoms: P_6  and  O_16 
REMARK    4  A    between atoms: C_7  and  C_8 
REMARK    5  A    between atoms: C_7  and  C_15 
REMARK       I    between atoms: C_8  and  N_9 
REMARK    6  A    between atoms: N_9  and  C_27 
REMARK    7  A    between atoms: C_10  and  C_15 
REMARK    8  A    between atoms: O_14  and  C_28 
REMARK    9  A    between atoms: C_18  and  C_27 
REMARK   10  A    between atoms: O_26  and  C_29 
REMARK   11  A    between atoms: C_27  and  C_28 
ROOT
HETATM    1  H           1     -36.353  -2.210 -13.318  0.00  0.00     0.163 HD
HETATM    2  C           1     -34.675  -2.261 -12.107  0.00  0.00     0.249 C 
HETATM    3  N           1     -35.752  -1.668 -12.709  0.00  0.00    -0.343 N 
HETATM    4  O           1     -33.958  -1.616 -11.380  0.00  0.00    -0.271 OA
ENDROOT
BRANCH   2   5
HETATM    5  C           1     -34.384  -3.722 -12.350  0.00  0.00     0.278 C 
BRANCH   5   6
HETATM    6  N           1     -33.951  -3.914 -13.773  0.00  0.00    -0.066 N 
HETATM    7  H           1     -34.320  -4.825 -14.130  0.00  0.00     0.275 HD
HETATM    8  H           1     -34.326  -3.134 -14.359  0.00  0.00     0.275 HD
HETATM    9  H           1     -32.907  -3.918 -13.822  0.00  0.00     0.275 HD
ENDBRANCH   5   6
BRANCH   5  10
HETATM   10  C           1     -33.273  -4.182 -11.416  0.00  0.00     0.081 C 
BRANCH  10  11
HETATM   11  C           1     -33.604  -5.537 -10.873  0.00  0.00    -0.056 A 
HETATM   12  C           1     -34.831  -5.760 -10.249  0.00  0.00     0.010 A 
HETATM   13  C           1     -35.138  -7.023  -9.744  0.00  0.00     0.037 A 
HETATM   14  C           1     -34.217  -8.063  -9.862  0.00  0.00     0.065 A 
HETATM   15  C           1     -32.989  -7.842 -10.486  0.00  0.00     0.037 A 
HETATM   16  C           1     -32.683  -6.579 -10.991  0.00  0.00     0.010 A 
BRANCH  14  17
HETATM   17  O           1     -34.515  -9.291  -9.371  0.00  0.00    -0.361 OA
HETATM   18  H           1     -33.680  -9.733  -9.143  0.00  0.00     0.217 HD
ENDBRANCH  14  17
ENDBRANCH  10  11
ENDBRANCH   5  10
ENDBRANCH   2   5
BRANCH   3  19
HETATM   19  C           1     -36.031  -0.265 -12.475  0.00  0.00     0.210 C 
BRANCH  19  20
HETATM   20  C           1     -36.959  -0.127 -11.294  0.00  0.00     0.198 C 
HETATM   21  O           1     -38.070  -0.701 -11.300  0.00  0.00    -0.646 OA
HETATM   22  O           1     -36.619   0.563 -10.309  0.00  0.00    -0.646 OA
ENDBRANCH  19  20
BRANCH  19  23
HETATM   23  C           1     -36.689   0.334 -13.711  0.00  0.00     0.217 C 
BRANCH  23  24
HETATM   24  O           1     -36.887  -0.670 -14.668  0.00  0.00    -0.287 OA
BRANCH  24  25
HETATM   25  P           1     -35.783  -0.757 -15.843  0.00  0.00     0.406 P 
HETATM   26  O           1     -35.050  -2.038 -15.740  0.00  0.00    -0.624 OA
HETATM   27  O           1     -34.831   0.368 -15.709  0.00  0.00    -0.624 OA
BRANCH  25  28
HETATM   28  O           1     -36.518  -0.672 -17.279  0.00  0.00    -0.300 OA
HETATM   29  H           1     -35.946  -1.129 -17.872  0.00  0.00     0.223 HD
ENDBRANCH  25  28
ENDBRANCH  24  25
ENDBRANCH  23  24
ENDBRANCH  19  23
ENDBRANCH   3  19
TORSDOF 11
ENDMDL
MODEL 3
REMARK VINA RESULT:      -7.2     15.369     17.528
REMARK  11 active torsions:
REMARK  status: ('A' for Active; 'I' for Inactive)
REMARK    1  A    between atoms: N_4  and  C_7 
REMARK    2  A    between atoms: P_6  and  O_14 
REMARK    3  A    between atoms: P_6  and  O_16 
REMARK    4  A    between atoms: C_7  and  C_8 
REMARK    5  A    between atoms: C_7  and  C_15 
REMARK       I    between atoms: C_8  and  N_9 
REMARK    6  A    between atoms: N_9  and  C_27 
REMARK    7  A    between atoms: C_10  and  C_15 
REMARK    8  A    between atoms: O_14  and  C_28 
REMARK    9  A    between atoms: C_18  and  C_27 
REMARK   10  A    between atoms: O_26  and  C_29 
REMARK   11  A    between atoms: C_27  and  C_28 
ROOT
HETATM    1  H           1     -33.207  -3.073 -14.141  0.00  0.00     0.163 HD
HETATM    2  C           1     -34.452  -4.621 -13.560  0.00  0.00     0.249 C 
HETATM    3  N           1     -33.826  -3.806 -14.464  0.00  0.00    -0.343 N 
HETATM    4  O           1     -35.189  -5.497 -13.944  0.00  0.00    -0.271 OA
ENDROOT
BRANCH   2   5
HETATM    5  C           1     -34.219  -4.425 -12.081  0.00  0.00     0.278 C 
BRANCH   5   6
HETATM    6  N           1     -33.262  -5.467 -11.585  0.00  0.00    -0.066 N 
HETATM    7  H           1     -33.480  -5.694 -10.587  0.00  0.00     0.275 HD
HETATM    8  H           1     -33.356  -6.331 -12.166  0.00  0.00     0.275 HD
HETATM    9  H           1     -32.285  -5.104 -11.653  0.00  0.00     0.275 HD
ENDBRANCH   5   6
BRANCH   5  10
HETATM   10  C           1     -33.632  -3.041 -11.838  0.00  0.00     0.081 C 
BRANCH  10  11
HETATM   11  C           1     -34.736  -2.074 -11.541  0.00  0.00    -0.056 A 
HETATM   12  C           1     -34.788  -0.848 -12.203  0.00  0.00     0.010 A 
HETATM   13  C           1     -35.816   0.052 -11.925  0.00  0.00     0.037 A 
HETATM   14  C           1     -36.792  -0.274 -10.985  0.00  0.00     0.065 A 
HETATM   15  C           1     -36.741  -1.500 -10.322  0.00  0.00     0.037 A 
HETATM   16  C           1     -35.713  -2.400 -10.600  0.00  0.00     0.010 A 
BRANCH  14  17
HETATM   17  O           1     -37.792   0.601 -10.715  0.00  0.00    -0.361 OA
HETATM   18  H           1     -38.571   0.336 -11.235  0.00  0.00     0.217 HD
ENDBRANCH  14  17
ENDBRANCH  10  11
ENDBRANCH   5  10
ENDBRANCH   2   5
BRANCH   3  19
HETATM   19  C           1     -34.049  -3.995 -15.885  0.00  0.00     0.210 C 
BRANCH  19  20
HETATM   20  C           1     -32.730  -3.931 -16.614  0.00  0.00     0.198 C 
HETATM   21  O           1     -32.613  -3.219 -17.634  0.00  0.00    -0.646 OA
HETATM   22  O           1     -31.754  -4.593 -16.199  0.00  0.00    -0.646 OA
ENDBRANCH  19  20
BRANCH  19  23
HETATM   23  C           1     -34.970  -2.899 -16.403  0.00  0.00     0.217 C 
BRANCH  23  24
HETATM   24  O           1     -35.043  -1.865 -15.460  0.00  0.00    -0.287 OA
BRANCH  24  25
HETATM   25  P           1     -36.029  -0.639 -15.827  0.00  0.00     0.406 P 
HETATM   26  O           1     -35.363   0.644 -15.506  0.00  0.00    -0.624 OA
HETATM   27  O           1     -37.276  -0.757 -15.040  0.00  0.00    -0.624 OA
BRANCH  25  28
HETATM   28  O           1     -36.378  -0.684 -17.403  0.00  0.00    -0.300 OA
HETATM   29  H           1     -35.846  -1.379 -17.751  0.00  0.00     0.223 HD
ENDBRANCH  25  28
ENDBRANCH  24  25
ENDBRANCH  23  24
ENDBRANCH  19  23
ENDBRANCH   3  19
TORSDOF 11
ENDMDL
MODEL 4
REMARK VINA RESULT:      -7.2      3.251      8.850
REMARK  11 active torsions:
REMARK  status: ('A' for Active; 'I' for Inactive)
REMARK    1  A    between atoms: N_4  and  C_7 
REMARK    2  A    between atoms: P_6  and  O_14 
REMARK    3  A    between atoms: P_6  and  O_16 
REMARK    4  A    between atoms: C_7  and  C_8 
REMARK    5  A    between atoms: C_7  and  C_15 
REMARK       I    between atoms: C_8  and  N_9 
REMARK    6  A    between atoms: N_9  and  C_27 
REMARK    7  A    between atoms: C_10  and  C_15 
REMARK    8  A    between atoms: O_14  and  C_28 
REMARK    9  A    between atoms: C_18  and  C_27 
REMARK   10  A    between atoms: O_26  and  C_29 
REMARK   11  A    between atoms: C_27  and  C_28 
ROOT
HETATM    1  H           1     -21.413  -4.093  -6.270  0.00  0.00     0.163 HD
HETATM    2  C           1     -20.991  -6.115  -6.152  0.00  0.00     0.249 C 
HETATM    3  N           1     -21.330  -4.955  -6.794  0.00  0.00    -0.343 N 
HETATM    4  O           1     -20.891  -7.145  -6.776  0.00  0.00    -0.271 OA
ENDROOT
BRANCH   2   5
HETATM    5  C           1     -20.740  -6.108  -4.663  0.00  0.00     0.278 C 
BRANCH   5   6
HETATM    6  N           1     -20.188  -4.775  -4.257  0.00  0.00    -0.066 N 
HETATM    7  H           1     -19.143  -4.813  -4.264  0.00  0.00     0.275 HD
HETATM    8  H           1     -20.512  -4.044  -4.930  0.00  0.00     0.275 HD
HETATM    9  H           1     -20.521  -4.537  -3.296  0.00  0.00     0.275 HD
ENDBRANCH   5   6
BRANCH   5  10
HETATM   10  C           1     -22.049  -6.360  -3.926  0.00  0.00     0.081 C 
BRANCH  10  11
HETATM   11  C           1     -21.769  -7.059  -2.633  0.00  0.00    -0.056 A 
HETATM   12  C           1     -22.399  -6.640  -1.462  0.00  0.00     0.010 A 
HETATM   13  C           1     -22.137  -7.292  -0.257  0.00  0.00     0.037 A 
HETATM   14  C           1     -21.245  -8.363  -0.224  0.00  0.00     0.065 A 
HETATM   15  C           1     -20.614  -8.783  -1.395  0.00  0.00     0.037 A 
HETATM   16  C           1     -20.876  -8.131  -2.599  0.00  0.00     0.010 A 
BRANCH  14  17
HETATM   17  O           1     -20.991  -8.997   0.947  0.00  0.00    -0.361 OA
HETATM   18  H           1     -21.800  -9.464   1.218  0.00  0.00     0.217 HD
ENDBRANCH  14  17
ENDBRANCH  10  11
ENDBRANCH   5  10
ENDBRANCH   2   5
BRANCH   3  19
HETATM   19  C           1     -21.570  -4.962  -8.224  0.00  0.00     0.210 C 
BRANCH  19  20
HETATM   20  C           1     -20.352  -4.437  -8.941  0.00  0.00     0.198 C 
HETATM   21  O           1     -20.220  -4.624 -10.170  0.00  0.00    -0.646 OA
HETATM   22  O           1     -19.473  -3.814  -8.307  0.00  0.00    -0.646 OA
ENDBRANCH  19  20
BRANCH  19  23
HETATM   23  C           1     -22.768  -4.077  -8.541  0.00  0.00     0.217 C 
BRANCH  23  24
HETATM   24  O           1     -23.581  -4.713  -9.489  0.00  0.00    -0.287 OA
BRANCH  24  25
HETATM   25  P           1     -23.774  -3.937 -10.893  0.00  0.00     0.406 P 
HETATM   26  O           1     -25.059  -3.203 -10.879  0.00  0.00    -0.624 OA
HETATM   27  O           1     -23.778  -4.917 -12.001  0.00  0.00    -0.624 OA
BRANCH  25  28
HETATM   28  O           1     -22.560  -2.892 -11.100  0.00  0.00    -0.300 OA
HETATM   29  H           1     -22.968  -2.104 -11.417  0.00  0.00     0.223 HD
ENDBRANCH  25  28
ENDBRANCH  24  25
ENDBRANCH  23  24
ENDBRANCH  19  23
ENDBRANCH   3  19
TORSDOF 11
ENDMDL
MODEL 5
REMARK VINA RESULT:      -7.0     13.613     15.029
REMARK  11 active torsions:
REMARK  status: ('A' for Active; 'I' for Inactive)
REMARK    1  A    between atoms: N_4  and  C_7 
REMARK    2  A    between atoms: P_6  and  O_14 
REMARK    3  A    between atoms: P_6  and  O_16 
REMARK    4  A    between atoms: C_7  and  C_8 
REMARK    5  A    between atoms: C_7  and  C_15 
REMARK       I    between atoms: C_8  and  N_9 
REMARK    6  A    between atoms: N_9  and  C_27 
REMARK    7  A    between atoms: C_10  and  C_15 
REMARK    8  A    between atoms: O_14  and  C_28 
REMARK    9  A    between atoms: C_18  and  C_27 
REMARK   10  A    between atoms: O_26  and  C_29 
REMARK   11  A    between atoms: C_27  and  C_28 
ROOT
HETATM    1  H           1     -32.297  -3.838 -14.107  0.00  0.00     0.163 HD
HETATM    2  C           1     -33.775  -4.461 -15.415  0.00  0.00     0.249 C 
HETATM    3  N           1     -33.276  -4.078 -14.199  0.00  0.00    -0.343 N 
HETATM    4  O           1     -34.944  -4.746 -15.525  0.00  0.00    -0.271 OA
ENDROOT
BRANCH   2   5
HETATM    5  C           1     -32.866  -4.526 -16.617  0.00  0.00     0.278 C 
BRANCH   5   6
HETATM    6  N           1     -33.078  -3.311 -17.470  0.00  0.00    -0.066 N 
HETATM    7  H           1     -34.023  -3.359 -17.916  0.00  0.00     0.275 HD
HETATM    8  H           1     -33.019  -2.454 -16.875  0.00  0.00     0.275 HD
HETATM    9  H           1     -32.344  -3.272 -18.212  0.00  0.00     0.275 HD
ENDBRANCH   5   6
BRANCH   5  10
HETATM   10  C           1     -31.415  -4.574 -16.156  0.00  0.00     0.081 C 
BRANCH  10  11
HETATM   11  C           1     -30.627  -5.460 -17.069  0.00  0.00    -0.056 A 
HETATM   12  C           1     -29.427  -5.008 -17.618  0.00  0.00     0.010 A 
HETATM   13  C           1     -28.695  -5.834 -18.469  0.00  0.00     0.037 A 
HETATM   14  C           1     -29.162  -7.112 -18.773  0.00  0.00     0.065 A 
HETATM   15  C           1     -30.362  -7.565 -18.226  0.00  0.00     0.037 A 
HETATM   16  C           1     -31.095  -6.739 -17.374  0.00  0.00     0.010 A 
BRANCH  14  17
HETATM   17  O           1     -28.450  -7.915 -19.600  0.00  0.00    -0.361 OA
HETATM   18  H           1     -27.963  -7.348 -20.223  0.00  0.00     0.217 HD
ENDBRANCH  14  17
ENDBRANCH  10  11
ENDBRANCH   5  10
ENDBRANCH   2   5
BRANCH   3  19
HETATM   19  C           1     -34.150  -4.015 -13.044  0.00  0.00     0.210 C 
BRANCH  19  20
HETATM   20  C           1     -34.544  -2.582 -12.788  0.00  0.00     0.198 C 
HETATM   21  O           1     -35.149  -1.933 -13.668  0.00  0.00    -0.646 OA
HETATM   22  O           1     -34.265  -2.042 -11.696  0.00  0.00    -0.646 OA
ENDBRANCH  19  20
BRANCH  19  23
HETATM   23  C           1     -33.421  -4.567 -11.826  0.00  0.00     0.217 C 
BRANCH  23  24
HETATM   24  O           1     -34.358  -5.031 -10.892  0.00  0.00    -0.287 OA
BRANCH  24  25
HETATM   25  P           1     -34.462  -6.634 -10.730  0.00  0.00     0.406 P 
HETATM   26  O           1     -35.224  -6.959  -9.503  0.00  0.00    -0.624 OA
HETATM   27  O           1     -33.102  -7.209 -10.631  0.00  0.00    -0.624 OA
BRANCH  25  28
HETATM   28  O           1     -35.219  -7.256 -12.013  0.00  0.00    -0.300 OA
HETATM   29  H           1     -34.538  -7.657 -12.527  0.00  0.00     0.223 HD
ENDBRANCH  25  28
ENDBRANCH  24  25
ENDBRANCH  23  24
ENDBRANCH  19  23
ENDBRANCH   3  19
TORSDOF 11
ENDMDL
MODEL 6
REMARK VINA RESULT:      -6.8     13.197     15.325
REMARK  11 active torsions:
REMARK  status: ('A' for Active; 'I' for Inactive)
REMARK    1  A    between atoms: N_4  and  C_7 
REMARK    2  A    between atoms: P_6  and  O_14 
REMARK    3  A    between atoms: P_6  and  O_16 
REMARK    4  A    between atoms: C_7  and  C_8 
REMARK    5  A    between atoms: C_7  and  C_15 
REMARK       I    between atoms: C_8  and  N_9 
REMARK    6  A    between atoms: N_9  and  C_27 
REMARK    7  A    between atoms: C_10  and  C_15 
REMARK    8  A    between atoms: O_14  and  C_28 
REMARK    9  A    between atoms: C_18  and  C_27 
REMARK   10  A    between atoms: O_26  and  C_29 
REMARK   11  A    between atoms: C_27  and  C_28 
ROOT
HETATM    1  H           1     -27.300  -8.425 -19.307  0.00  0.00     0.163 HD
HETATM    2  C           1     -28.140  -6.543 -19.124  0.00  0.00     0.249 C 
HETATM    3  N           1     -27.138  -7.431 -19.406  0.00  0.00    -0.343 N 
HETATM    4  O           1     -27.948  -5.356 -19.243  0.00  0.00    -0.271 OA
ENDROOT
BRANCH   2   5
HETATM    5  C           1     -29.487  -7.046 -18.664  0.00  0.00     0.278 C 
BRANCH   5   6
HETATM    6  N           1     -29.502  -8.545 -18.714  0.00  0.00    -0.066 N 
HETATM    7  H           1     -28.586  -8.891 -19.080  0.00  0.00     0.275 HD
HETATM    8  H           1     -29.658  -8.924 -17.752  0.00  0.00     0.275 HD
HETATM    9  H           1     -30.272  -8.865 -19.344  0.00  0.00     0.275 HD
ENDBRANCH   5   6
BRANCH   5  10
HETATM   10  C           1     -29.741  -6.584 -17.235  0.00  0.00     0.081 C 
BRANCH  10  11
HETATM   11  C           1     -30.805  -5.532 -17.231  0.00  0.00    -0.056 A 
HETATM   12  C           1     -32.105  -5.855 -16.841  0.00  0.00     0.010 A 
HETATM   13  C           1     -33.096  -4.874 -16.839  0.00  0.00     0.037 A 
HETATM   14  C           1     -32.788  -3.570 -17.225  0.00  0.00     0.065 A 
HETATM   15  C           1     -31.488  -3.247 -17.615  0.00  0.00     0.037 A 
HETATM   16  C           1     -30.497  -4.228 -17.618  0.00  0.00     0.010 A 
BRANCH  14  17
HETATM   17  O           1     -33.751  -2.617 -17.222  0.00  0.00    -0.361 OA
HETATM   18  H           1     -34.601  -3.048 -17.415  0.00  0.00     0.217 HD
ENDBRANCH  14  17
ENDBRANCH  10  11
ENDBRANCH   5  10
ENDBRANCH   2   5
BRANCH   3  19
HETATM   19  C           1     -25.844  -6.947 -19.849  0.00  0.00     0.210 C 
BRANCH  19  20
HETATM   20  C           1     -25.320  -7.841 -20.944  0.00  0.00     0.198 C 
HETATM   21  O           1     -24.100  -7.851 -21.214  0.00  0.00    -0.646 OA
HETATM   22  O           1     -26.107  -8.573 -21.584  0.00  0.00    -0.646 OA
ENDBRANCH  19  20
BRANCH  19  23
HETATM   23  C           1     -24.872  -6.956 -18.677  0.00  0.00     0.217 C 
BRANCH  23  24
HETATM   24  O           1     -25.423  -6.238 -17.607  0.00  0.00    -0.287 OA
BRANCH  24  25
HETATM   25  P           1     -25.248  -6.901 -16.144  0.00  0.00     0.406 P 
HETATM   26  O           1     -24.272  -8.010 -16.218  0.00  0.00    -0.624 OA
HETATM   27  O           1     -26.553  -7.423 -15.681  0.00  0.00    -0.624 OA
BRANCH  25  28
HETATM   28  O           1     -24.715  -5.784 -15.108  0.00  0.00    -0.300 OA
HETATM   29  H           1     -24.791  -4.966 -15.571  0.00  0.00     0.223 HD
ENDBRANCH  25  28
ENDBRANCH  24  25
ENDBRANCH  23  24
ENDBRANCH  19  23
ENDBRANCH   3  19
TORSDOF 11
ENDMDL
MODEL 7
REMARK VINA RESULT:      -6.8      1.585      2.385
REMARK  11 active torsions:
REMARK  status: ('A' for Active; 'I' for Inactive)
REMARK    1  A    between atoms: N_4  and  C_7 
REMARK    2  A    between atoms: P_6  and  O_14 
REMARK    3  A    between atoms: P_6  and  O_16 
REMARK    4  A    between atoms: C_7  and  C_8 
REMARK    5  A    between atoms: C_7  and  C_15 
REMARK       I    between atoms: C_8  and  N_9 
REMARK    6  A    between atoms: N_9  and  C_27 
REMARK    7  A    between atoms: C_10  and  C_15 
REMARK    8  A    between atoms: O_14  and  C_28 
REMARK    9  A    between atoms: C_18  and  C_27 
REMARK   10  A    between atoms: O_26  and  C_29 
REMARK   11  A    between atoms: C_27  and  C_28 
ROOT
HETATM    1  H           1     -20.095  -6.177  -3.837  0.00  0.00     0.163 HD
HETATM    2  C           1     -21.807  -6.043  -4.992  0.00  0.00     0.249 C 
HETATM    3  N           1     -21.062  -6.463  -3.923  0.00  0.00    -0.343 N 
HETATM    4  O           1     -22.961  -6.383  -5.096  0.00  0.00    -0.271 OA
ENDROOT
BRANCH   2   5
HETATM    5  C           1     -21.185  -5.154  -6.041  0.00  0.00     0.278 C 
BRANCH   5   6
HETATM    6  N           1     -19.901  -4.585  -5.516  0.00  0.00    -0.066 N 
HETATM    7  H           1     -19.597  -3.790  -6.124  0.00  0.00     0.275 HD
HETATM    8  H           1     -20.047  -4.240  -4.540  0.00  0.00     0.275 HD
HETATM    9  H           1     -19.165  -5.327  -5.518  0.00  0.00     0.275 HD
ENDBRANCH   5   6
BRANCH   5  10
HETATM   10  C           1     -20.903  -5.969  -7.296  0.00  0.00     0.081 C 
BRANCH  10  11
HETATM   11  C           1     -21.111  -5.113  -8.507  0.00  0.00    -0.056 A 
HETATM   12  C           1     -20.089  -4.970  -9.445  0.00  0.00     0.010 A 
HETATM   13  C           1     -20.283  -4.172 -10.572  0.00  0.00     0.037 A 
HETATM   14  C           1     -21.499  -3.517 -10.761  0.00  0.00     0.065 A 
HETATM   15  C           1     -22.522  -3.659  -9.822  0.00  0.00     0.037 A 
HETATM   16  C           1     -22.327  -4.457  -8.696  0.00  0.00     0.010 A 
BRANCH  14  17
HETATM   17  O           1     -21.688  -2.741 -11.856  0.00  0.00    -0.361 OA
HETATM   18  H           1     -21.491  -1.821 -11.609  0.00  0.00     0.217 HD
ENDBRANCH  14  17
ENDBRANCH  10  11
ENDBRANCH   5  10
ENDBRANCH   2   5
BRANCH   3  19
HETATM   19  C           1     -21.660  -7.317  -2.915  0.00  0.00     0.210 C 
BRANCH  19  20
HETATM   20  C           1     -22.150  -6.473  -1.766  0.00  0.00     0.198 C 
HETATM   21  O           1     -21.944  -5.240  -1.763  0.00  0.00    -0.646 OA
HETATM   22  O           1     -22.762  -7.005  -0.815  0.00  0.00    -0.646 OA
ENDBRANCH  19  20
BRANCH  19  23
HETATM   23  C           1     -20.620  -8.309  -2.410  0.00  0.00     0.217 C 
BRANCH  23  24
HETATM   24  O           1     -21.093  -9.615  -2.593  0.00  0.00    -0.287 OA
BRANCH  24  25
HETATM   25  P           1     -21.624 -10.369  -1.266  0.00  0.00     0.406 P 
HETATM   26  O           1     -20.998 -11.707  -1.174  0.00  0.00    -0.624 OA
HETATM   27  O           1     -23.094 -10.517  -1.338  0.00  0.00    -0.624 OA
BRANCH  25  28
HETATM   28  O           1     -21.232  -9.501   0.038  0.00  0.00    -0.300 OA
HETATM   29  H           1     -20.656 -10.056   0.536  0.00  0.00     0.223 HD
ENDBRANCH  25  28
ENDBRANCH  24  25
ENDBRANCH  23  24
ENDBRANCH  19  23
ENDBRANCH   3  19
TORSDOF 11
ENDMDL
MODEL 8
REMARK VINA RESULT:      -6.8     14.066     17.663
REMARK  11 active torsions:
REMARK  status: ('A' for Active; 'I' for Inactive)
REMARK    1  A    between atoms: N_4  and  C_7 
REMARK    2  A    between atoms: P_6  and  O_14 
REMARK    3  A    between atoms: P_6  and  O_16 
REMARK    4  A    between atoms: C_7  and  C_8 
REMARK    5  A    between atoms: C_7  and  C_15 
REMARK       I    between atoms: C_8  and  N_9 
REMARK    6  A    between atoms: N_9  and  C_27 
REMARK    7  A    between atoms: C_10  and  C_15 
REMARK    8  A    between atoms: O_14  and  C_28 
REMARK    9  A    between atoms: C_18  and  C_27 
REMARK   10  A    between atoms: O_26  and  C_29 
REMARK   11  A    between atoms: C_27  and  C_28 
ROOT
HETATM    1  H           1     -36.728  -1.529 -13.525  0.00  0.00     0.163 HD
HETATM    2  C           1     -35.359  -0.114 -12.888  0.00  0.00     0.249 C 
HETATM    3  N           1     -36.120  -0.772 -13.815  0.00  0.00    -0.343 N 
HETATM    4  O           1     -34.635   0.790 -13.232  0.00  0.00    -0.271 OA
ENDROOT
BRANCH   2   5
HETATM    5  C           1     -35.424  -0.516 -11.435  0.00  0.00     0.278 C 
BRANCH   5   6
HETATM    6  N           1     -36.150   0.541 -10.657  0.00  0.00    -0.066 N 
HETATM    7  H           1     -35.728   1.476 -10.860  0.00  0.00     0.275 HD
HETATM    8  H           1     -37.157   0.547 -10.935  0.00  0.00     0.275 HD
HETATM    9  H           1     -36.071   0.338  -9.635  0.00  0.00     0.275 HD
ENDBRANCH   5   6
BRANCH   5  10
HETATM   10  C           1     -36.167  -1.839 -11.307  0.00  0.00     0.081 C 
BRANCH  10  11
HETATM   11  C           1     -35.185  -2.969 -11.330  0.00  0.00    -0.056 A 
HETATM   12  C           1     -35.596  -4.259 -10.996  0.00  0.00     0.010 A 
HETATM   13  C           1     -34.681  -5.311 -11.017  0.00  0.00     0.037 A 
HETATM   14  C           1     -33.354  -5.072 -11.373  0.00  0.00     0.065 A 
HETATM   15  C           1     -32.941  -3.782 -11.707  0.00  0.00     0.037 A 
HETATM   16  C           1     -33.857  -2.731 -11.685  0.00  0.00     0.010 A 
BRANCH  14  17
HETATM   17  O           1     -32.464  -6.094 -11.394  0.00  0.00    -0.361 OA
HETATM   18  H           1     -31.839  -5.963 -10.660  0.00  0.00     0.217 HD
ENDBRANCH  14  17
ENDBRANCH  10  11
ENDBRANCH   5  10
ENDBRANCH   2   5
BRANCH   3  19
HETATM   19  C           1     -36.058  -0.385 -15.211  0.00  0.00     0.210 C 
BRANCH  19  20
HETATM   20  C           1     -37.457  -0.254 -15.760  0.00  0.00     0.198 C 
HETATM   21  O           1     -37.999   0.870 -15.827  0.00  0.00    -0.646 OA
HETATM   22  O           1     -38.074  -1.269 -16.147  0.00  0.00    -0.646 OA
ENDBRANCH  19  20
BRANCH  19  23
HETATM   23  C           1     -35.301  -1.446 -15.998  0.00  0.00     0.217 C 
BRANCH  23  24
HETATM   24  O           1     -34.867  -2.454 -15.126  0.00  0.00    -0.287 OA
BRANCH  24  25
HETATM   25  P           1     -34.199  -3.751 -15.818  0.00  0.00     0.406 P 
HETATM   26  O           1     -35.173  -4.866 -15.824  0.00  0.00    -0.624 OA
HETATM   27  O           1     -32.996  -4.152 -15.056  0.00  0.00    -0.624 OA
BRANCH  25  28
HETATM   28  O           1     -33.781  -3.395 -17.337  0.00  0.00    -0.300 OA
HETATM   29  H           1     -32.853  -3.552 -17.377  0.00  0.00     0.223 HD
ENDBRANCH  25  28
ENDBRANCH  24  25
ENDBRANCH  23  24
ENDBRANCH  19  23
ENDBRANCH   3  19
TORSDOF 11
ENDMDL
MODEL 9
REMARK VINA RESULT:      -6.7      1.935      3.349
REMARK  11 active torsions:
REMARK  status: ('A' for Active; 'I' for Inactive)
REMARK    1  A    between atoms: N_4  and  C_7 
REMARK    2  A    between atoms: P_6  and  O_14 
REMARK    3  A    between atoms: P_6  and  O_16 
REMARK    4  A    between atoms: C_7  and  C_8 
REMARK    5  A    between atoms: C_7  and  C_15 
REMARK       I    between atoms: C_8  and  N_9 
REMARK    6  A    between atoms: N_9  and  C_27 
REMARK    7  A    between atoms: C_10  and  C_15 
REMARK    8  A    between atoms: O_14  and  C_28 
REMARK    9  A    between atoms: C_18  and  C_27 
REMARK   10  A    between atoms: O_26  and  C_29 
REMARK   11  A    between atoms: C_27  and  C_28 
ROOT
HETATM    1  H           1     -19.996  -6.543  -4.202  0.00  0.00     0.163 HD
HETATM    2  C           1     -21.460  -5.817  -5.473  0.00  0.00     0.249 C 
HETATM    3  N           1     -20.992  -6.496  -4.380  0.00  0.00    -0.343 N 
HETATM    4  O           1     -22.648  -5.760  -5.685  0.00  0.00    -0.271 OA
ENDROOT
BRANCH   2   5
HETATM    5  C           1     -20.492  -5.140  -6.412  0.00  0.00     0.278 C 
BRANCH   5   6
HETATM    6  N           1     -20.175  -6.061  -7.551  0.00  0.00    -0.066 N 
HETATM    7  H           1     -19.322  -5.719  -8.050  0.00  0.00     0.275 HD
HETATM    8  H           1     -19.999  -7.023  -7.182  0.00  0.00     0.275 HD
HETATM    9  H           1     -20.981  -6.085  -8.216  0.00  0.00     0.275 HD
ENDBRANCH   5   6
BRANCH   5  10
HETATM   10  C           1     -21.120  -3.862  -6.953  0.00  0.00     0.081 C 
BRANCH  10  11
HETATM   11  C           1     -21.424  -4.031  -8.409  0.00  0.00    -0.056 A 
HETATM   12  C           1     -20.401  -3.936  -9.352  0.00  0.00     0.010 A 
HETATM   13  C           1     -20.685  -4.093 -10.708  0.00  0.00     0.037 A 
HETATM   14  C           1     -21.993  -4.346 -11.121  0.00  0.00     0.065 A 
HETATM   15  C           1     -23.017  -4.441 -10.179  0.00  0.00     0.037 A 
HETATM   16  C           1     -22.733  -4.283  -8.823  0.00  0.00     0.010 A 
BRANCH  14  17
HETATM   17  O           1     -22.269  -4.499 -12.439  0.00  0.00    -0.361 OA
HETATM   18  H           1     -22.878  -3.788 -12.703  0.00  0.00     0.217 HD
ENDBRANCH  14  17
ENDBRANCH  10  11
ENDBRANCH   5  10
ENDBRANCH   2   5
BRANCH   3  19
HETATM   19  C           1     -21.922  -7.146  -3.477  0.00  0.00     0.210 C 
BRANCH  19  20
HETATM   20  C           1     -22.049  -6.332  -2.214  0.00  0.00     0.198 C 
HETATM   21  O           1     -22.633  -6.811  -1.217  0.00  0.00    -0.646 OA
HETATM   22  O           1     -21.573  -5.178  -2.163  0.00  0.00    -0.646 OA
ENDBRANCH  19  20
BRANCH  19  23
HETATM   23  C           1     -21.407  -8.538  -3.135  0.00  0.00     0.217 C 
BRANCH  23  24
HETATM   24  O           1     -21.788  -9.437  -4.141  0.00  0.00    -0.287 OA
BRANCH  24  25
HETATM   25  P           1     -20.588 -10.057  -5.028  0.00  0.00     0.406 P 
HETATM   26  O           1     -19.825 -11.030  -4.216  0.00  0.00    -0.624 OA
HETATM   27  O           1     -19.687  -8.968  -5.468  0.00  0.00    -0.624 OA
BRANCH  25  28
HETATM   28  O           1     -21.205 -10.802  -6.321  0.00  0.00    -0.300 OA
HETATM   29  H           1     -21.727 -11.504  -5.971  0.00  0.00     0.223 HD
ENDBRANCH  25  28
ENDBRANCH  24  25
ENDBRANCH  23  24
ENDBRANCH  19  23
ENDBRANCH   3  19
TORSDOF 11
ENDMDL
