MODEL 1
REMARK VINA RESULT:      -6.6      0.000      0.000
REMARK  12 active torsions:
REMARK  status: ('A' for Active; 'I' for Inactive)
REMARK    1  A    between atoms: N_1  and  C_15 
REMARK    2  A    between atoms: C_2  and  C_14 
REMARK    3  A    between atoms: C_2  and  C_3 
REMARK    4  A    between atoms: C_2  and  N_8 
REMARK    5  A    between atoms: C_3  and  C_4 
REMARK    6  A    between atoms: C_4  and  C_5 
REMARK       I    between atoms: C_5  and  N_6 
REMARK    7  A    between atoms: N_10  and  C_22 
REMARK       I    between atoms: N_10  and  C_14 
REMARK    8  A    between atoms: C_15  and  C_16 
REMARK    9  A    between atoms: C_16  and  C_28 
REMARK   10  A    between atoms: C_17  and  C_22 
REMARK   11  A    between atoms: C_18  and  C_28 
REMARK   12  A    between atoms: C_18  and  C_22 
ROOT
HETATM    1  N           1     -26.473  -6.666 -18.284  0.00  0.00    -0.345 N 
HETATM    2  C           1     -25.327  -6.907 -18.993  0.00  0.00     0.249 C 
HETATM    3  H           1     -27.365  -6.984 -18.641  0.00  0.00     0.163 HD
HETATM    4  O           1     -24.263  -6.527 -18.566  0.00  0.00    -0.271 OA
ENDROOT
BRANCH   1   5
HETATM    5  C           1     -26.409  -5.956 -17.021  0.00  0.00     0.185 C 
BRANCH   5   6
HETATM    6  C           1     -26.344  -6.950 -15.889  0.00  0.00     0.196 C 
HETATM    7  O           1     -25.236  -7.333 -15.455  0.00  0.00    -0.646 OA
HETATM    8  O           1     -27.399  -7.392 -15.383  0.00  0.00    -0.646 OA
ENDBRANCH   5   6
BRANCH   5   9
HETATM    9  C           1     -27.651  -5.087 -16.866  0.00  0.00     0.036 C 
BRANCH   9  10
HETATM   10  C           1     -28.571  -5.300 -18.061  0.00  0.00     0.004 C 
BRANCH  10  11
HETATM   11  C           1     -29.896  -5.884 -17.585  0.00  0.00     0.027 C 
BRANCH  11  12
HETATM   12  C           1     -30.091  -7.266 -18.195  0.00  0.00     0.229 C 
BRANCH  12  13
HETATM   13  N           1     -29.442  -8.296 -17.318  0.00  0.00    -0.079 N 
HETATM   14  H           1     -28.480  -8.499 -17.671  0.00  0.00     0.274 HD
HETATM   15  H           1     -29.385  -7.933 -16.339  0.00  0.00     0.274 HD
HETATM   16  H           1     -30.011  -9.173 -17.332  0.00  0.00     0.274 HD
ENDBRANCH  12  13
ENDBRANCH  11  12
ENDBRANCH  10  11
ENDBRANCH   9  10
ENDBRANCH   5   9
ENDBRANCH   1   5
BRANCH   2  17
HETATM   17  C           1     -25.394  -7.646 -20.307  0.00  0.00     0.275 C 
BRANCH  17  18
HETATM   18  C           1     -24.598  -6.884 -21.359  0.00  0.00     0.052 C 
BRANCH  18  19
HETATM   19  C           1     -24.087  -7.857 -22.413  0.00  0.00     0.105 C 
BRANCH  19  20
HETATM   20  C           1     -22.792  -8.473 -21.944  0.00  0.00     0.215 C 
HETATM   21  N           1     -22.410  -8.349 -20.635  0.00  0.00    -0.370 N 
HETATM   22  H           1     -21.541  -8.763 -20.320  0.00  0.00     0.159 HD
HETATM   23  H           1     -22.996  -7.845 -19.983  0.00  0.00     0.159 HD
HETATM   24  O           1     -22.093  -9.075 -22.723  0.00  0.00    -0.274 OA
ENDBRANCH  19  20
ENDBRANCH  18  19
ENDBRANCH  17  18
BRANCH  17  25
HETATM   25  N           1     -26.823  -7.756 -20.745  0.00  0.00    -0.066 N 
HETATM   26  H           1     -27.202  -8.690 -20.467  0.00  0.00     0.275 HD
HETATM   27  H           1     -27.386  -7.003 -20.290  0.00  0.00     0.275 HD
HETATM   28  H           1     -26.878  -7.654 -21.784  0.00  0.00     0.275 HD
ENDBRANCH  17  25
ENDBRANCH   2  17
TORSDOF 12
ENDMDL
MODEL 2
REMARK VINA RESULT:      -6.4     11.072     13.050
REMARK  12 active torsions:
REMARK  status: ('A' for Active; 'I' for Inactive)
REMARK    1  A    between atoms: N_1  and  C_15 
REMARK    2  A    between atoms: C_2  and  C_14 
REMARK    3  A    between atoms: C_2  and  C_3 
REMARK    4  A    between atoms: C_2  and  N_8 
REMARK    5  A    between atoms: C_3  and  C_4 
REMARK    6  A    between atoms: C_4  and  C_5 
REMARK       I    between atoms: C_5  and  N_6 
REMARK    7  A    between atoms: N_10  and  C_22 
REMARK       I    between atoms: N_10  and  C_14 
REMARK    8  A    between atoms: C_15  and  C_16 
REMARK    9  A    between atoms: C_16  and  C_28 
REMARK   10  A    between atoms: C_17  and  C_22 
REMARK   11  A    between atoms: C_18  and  C_28 
REMARK   12  A    between atoms: C_18  and  C_22 
ROOT
HETATM    1  N           1     -35.217  -2.064 -12.319  0.00  0.00    -0.345 N 
HETATM    2  C           1     -34.095  -2.743 -11.927  0.00  0.00     0.249 C 
HETATM    3  H           1     -35.855  -2.484 -12.984  0.00  0.00     0.163 HD
HETATM    4  O           1     -33.334  -2.242 -11.133  0.00  0.00    -0.271 OA
ENDROOT
BRANCH   1   5
HETATM    5  C           1     -35.493  -0.746 -11.784  0.00  0.00     0.185 C 
BRANCH   5   6
HETATM    6  C           1     -36.501  -0.858 -10.667  0.00  0.00     0.196 C 
HETATM    7  O           1     -36.149  -0.656  -9.484  0.00  0.00    -0.646 OA
HETATM    8  O           1     -37.688  -1.154 -10.924  0.00  0.00    -0.646 OA
ENDBRANCH   5   6
BRANCH   5   9
HETATM    9  C           1     -36.052   0.142 -12.888  0.00  0.00     0.036 C 
BRANCH   9  10
HETATM   10  C           1     -34.939   0.497 -13.866  0.00  0.00     0.004 C 
BRANCH  10  11
HETATM   11  C           1     -35.452   0.353 -15.293  0.00  0.00     0.027 C 
BRANCH  11  12
HETATM   12  C           1     -36.969   0.218 -15.278  0.00  0.00     0.229 C 
BRANCH  12  13
HETATM   13  N           1     -37.581   1.375 -16.012  0.00  0.00    -0.079 N 
HETATM   14  H           1     -37.472   2.245 -15.445  0.00  0.00     0.274 HD
HETATM   15  H           1     -37.101   1.496 -16.933  0.00  0.00     0.274 HD
HETATM   16  H           1     -38.597   1.188 -16.170  0.00  0.00     0.274 HD
ENDBRANCH  12  13
ENDBRANCH  11  12
ENDBRANCH  10  11
ENDBRANCH   9  10
ENDBRANCH   5   9
ENDBRANCH   1   5
BRANCH   2  17
HETATM   17  C           1     -33.808  -4.115 -12.484  0.00  0.00     0.275 C 
BRANCH  17  18
HETATM   18  C           1     -34.760  -5.127 -11.858  0.00  0.00     0.052 C 
BRANCH  18  19
HETATM   19  C           1     -34.233  -5.544 -10.492  0.00  0.00     0.105 C 
BRANCH  19  20
HETATM   20  C           1     -34.632  -6.972 -10.213  0.00  0.00     0.215 C 
HETATM   21  N           1     -35.004  -7.792 -11.244  0.00  0.00    -0.370 N 
HETATM   22  H           1     -35.273  -8.750 -11.057  0.00  0.00     0.159 HD
HETATM   23  H           1     -35.010  -7.441 -12.193  0.00  0.00     0.159 HD
HETATM   24  O           1     -34.625  -7.391  -9.080  0.00  0.00    -0.274 OA
ENDBRANCH  19  20
ENDBRANCH  18  19
ENDBRANCH  17  18
BRANCH  17  25
HETATM   25  N           1     -32.394  -4.497 -12.166  0.00  0.00    -0.066 N 
HETATM   26  H           1     -31.857  -3.646 -11.884  0.00  0.00     0.275 HD
HETATM   27  H           1     -32.388  -5.187 -11.381  0.00  0.00     0.275 HD
HETATM   28  H           1     -31.949  -4.925 -13.010  0.00  0.00     0.275 HD
ENDBRANCH  17  25
ENDBRANCH   2  17
TORSDOF 12
ENDMDL
MODEL 3
REMARK VINA RESULT:      -6.4     11.224     13.363
REMARK  12 active torsions:
REMARK  status: ('A' for Active; 'I' for Inactive)
REMARK    1  A    between atoms: N_1  and  C_15 
REMARK    2  A    between atoms: C_2  and  C_14 
REMARK    3  A    between atoms: C_2  and  C_3 
REMARK    4  A    between atoms: C_2  and  N_8 
REMARK    5  A    between atoms: C_3  and  C_4 
REMARK    6  A    between atoms: C_4  and  C_5 
REMARK       I    between atoms: C_5  and  N_6 
REMARK    7  A    between atoms: N_10  and  C_22 
REMARK       I    between atoms: N_10  and  C_14 
REMARK    8  A    between atoms: C_15  and  C_16 
REMARK    9  A    between atoms: C_16  and  C_28 
REMARK   10  A    between atoms: C_17  and  C_22 
REMARK   11  A    between atoms: C_18  and  C_28 
REMARK   12  A    between atoms: C_18  and  C_22 
ROOT
HETATM    1  N           1     -34.967  -1.208 -12.390  0.00  0.00    -0.345 N 
HETATM    2  C           1     -34.328  -2.415 -12.480  0.00  0.00     0.249 C 
HETATM    3  H           1     -34.755  -0.578 -11.625  0.00  0.00     0.163 HD
HETATM    4  O           1     -34.582  -3.165 -13.392  0.00  0.00    -0.271 OA
ENDROOT
BRANCH   1   5
HETATM    5  C           1     -35.948  -0.829 -13.388  0.00  0.00     0.185 C 
BRANCH   5   6
HETATM    6  C           1     -35.302   0.075 -14.409  0.00  0.00     0.196 C 
HETATM    7  O           1     -34.909  -0.394 -15.500  0.00  0.00    -0.646 OA
HETATM    8  O           1     -35.158   1.292 -14.164  0.00  0.00    -0.646 OA
ENDBRANCH   5   6
BRANCH   5   9
HETATM    9  C           1     -37.100  -0.095 -12.714  0.00  0.00     0.036 C 
BRANCH   9  10
HETATM   10  C           1     -36.779   0.105 -11.239  0.00  0.00     0.004 C 
BRANCH  10  11
HETATM   11  C           1     -38.066   0.039 -10.425  0.00  0.00     0.027 C 
BRANCH  11  12
HETATM   12  C           1     -38.034   1.104  -9.336  0.00  0.00     0.229 C 
BRANCH  12  13
HETATM   13  N           1     -36.610   1.395  -8.964  0.00  0.00    -0.079 N 
HETATM   14  H           1     -35.971   0.985  -9.681  0.00  0.00     0.274 HD
HETATM   15  H           1     -36.467   2.430  -8.920  0.00  0.00     0.274 HD
HETATM   16  H           1     -36.402   0.976  -8.030  0.00  0.00     0.274 HD
ENDBRANCH  12  13
ENDBRANCH  11  12
ENDBRANCH  10  11
ENDBRANCH   9  10
ENDBRANCH   5   9
ENDBRANCH   1   5
BRANCH   2  17
HETATM   17  C           1     -33.308  -2.808 -11.440  0.00  0.00     0.275 C 
BRANCH  17  18
HETATM   18  C           1     -33.034  -4.304 -11.537  0.00  0.00     0.052 C 
BRANCH  18  19
HETATM   19  C           1     -33.910  -5.047 -10.539  0.00  0.00     0.105 C 
BRANCH  19  20
HETATM   20  C           1     -34.574  -6.216 -11.225  0.00  0.00     0.215 C 
HETATM   21  N           1     -34.927  -6.124 -12.545  0.00  0.00    -0.370 N 
HETATM   22  H           1     -35.373  -6.909 -13.005  0.00  0.00     0.159 HD
HETATM   23  H           1     -34.741  -5.274 -13.060  0.00  0.00     0.159 HD
HETATM   24  O           1     -34.796  -7.232 -10.610  0.00  0.00    -0.274 OA
ENDBRANCH  19  20
ENDBRANCH  18  19
ENDBRANCH  17  18
BRANCH  17  25
HETATM   25  N           1     -33.836  -2.486 -10.074  0.00  0.00    -0.066 N 
HETATM   26  H           1     -33.895  -3.361  -9.507  0.00  0.00     0.275 HD
HETATM   27  H           1     -33.194  -1.810  -9.604  0.00  0.00     0.275 HD
HETATM   28  H           1     -34.788  -2.062 -10.160  0.00  0.00     0.275 HD
ENDBRANCH  17  25
ENDBRANCH   2  17
TORSDOF 12
ENDMDL
MODEL 4
REMARK VINA RESULT:      -6.3     10.222     12.009
REMARK  12 active torsions:
REMARK  status: ('A' for Active; 'I' for Inactive)
REMARK    1  A    between atoms: N_1  and  C_15 
REMARK    2  A    between atoms: C_2  and  C_14 
REMARK    3  A    between atoms: C_2  and  C_3 
REMARK    4  A    between atoms: C_2  and  N_8 
REMARK    5  A    between atoms: C_3  and  C_4 
REMARK    6  A    between atoms: C_4  and  C_5 
REMARK       I    between atoms: C_5  and  N_6 
REMARK    7  A    between atoms: N_10  and  C_22 
REMARK       I    between atoms: N_10  and  C_14 
REMARK    8  A    between atoms: C_15  and  C_16 
REMARK    9  A    between atoms: C_16  and  C_28 
REMARK   10  A    between atoms: C_17  and  C_22 
REMARK   11  A    between atoms: C_18  and  C_28 
REMARK   12  A    between atoms: C_18  and  C_22 
ROOT
HETATM    1  N           1     -34.796  -1.483 -13.215  0.00  0.00    -0.345 N 
HETATM    2  C           1     -35.904  -0.804 -13.644  0.00  0.00     0.249 C 
HETATM    3  H           1     -33.900  -1.320 -13.657  0.00  0.00     0.163 HD
HETATM    4  O           1     -36.973  -0.999 -13.116  0.00  0.00    -0.271 OA
ENDROOT
BRANCH   1   5
HETATM    5  C           1     -34.905  -2.437 -12.129  0.00  0.00     0.185 C 
BRANCH   5   6
HETATM    6  C           1     -34.485  -1.778 -10.838  0.00  0.00     0.196 C 
HETATM    7  O           1     -33.280  -1.768 -10.505  0.00  0.00    -0.646 OA
HETATM    8  O           1     -35.342  -1.243 -10.101  0.00  0.00    -0.646 OA
ENDBRANCH   5   6
BRANCH   5   9
HETATM    9  C           1     -34.000  -3.630 -12.410  0.00  0.00     0.036 C 
BRANCH   9  10
HETATM   10  C           1     -34.702  -4.911 -11.978  0.00  0.00     0.004 C 
BRANCH  10  11
HETATM   11  C           1     -33.838  -5.646 -10.961  0.00  0.00     0.027 C 
BRANCH  11  12
HETATM   12  C           1     -34.704  -6.610 -10.161  0.00  0.00     0.229 C 
BRANCH  12  13
HETATM   13  N           1     -34.757  -7.935 -10.863  0.00  0.00    -0.079 N 
HETATM   14  H           1     -35.244  -8.632 -10.255  0.00  0.00     0.274 HD
HETATM   15  H           1     -35.280  -7.831 -11.762  0.00  0.00     0.274 HD
HETATM   16  H           1     -33.785  -8.263 -11.061  0.00  0.00     0.274 HD
ENDBRANCH  12  13
ENDBRANCH  11  12
ENDBRANCH  10  11
ENDBRANCH   9  10
ENDBRANCH   5   9
ENDBRANCH   1   5
BRANCH   2  17
HETATM   17  C           1     -35.791   0.189 -14.775  0.00  0.00     0.275 C 
BRANCH  17  18
HETATM   18  C           1     -34.815  -0.339 -15.818  0.00  0.00     0.052 C 
BRANCH  18  19
HETATM   19  C           1     -35.475  -1.456 -16.614  0.00  0.00     0.105 C 
BRANCH  19  20
HETATM   20  C           1     -34.602  -2.686 -16.576  0.00  0.00     0.215 C 
HETATM   21  N           1     -33.652  -2.881 -17.543  0.00  0.00    -0.370 N 
HETATM   22  H           1     -33.066  -3.706 -17.517  0.00  0.00     0.159 HD
HETATM   23  H           1     -33.536  -2.201 -18.282  0.00  0.00     0.159 HD
HETATM   24  O           1     -34.740  -3.498 -15.693  0.00  0.00    -0.274 OA
ENDBRANCH  19  20
ENDBRANCH  18  19
ENDBRANCH  17  18
BRANCH  17  25
HETATM   25  N           1     -35.292   1.498 -14.241  0.00  0.00    -0.066 N 
HETATM   26  H           1     -35.652   2.278 -14.837  0.00  0.00     0.275 HD
HETATM   27  H           1     -35.630   1.626 -13.261  0.00  0.00     0.275 HD
HETATM   28  H           1     -34.247   1.505 -14.254  0.00  0.00     0.275 HD
ENDBRANCH  17  25
ENDBRANCH   2  17
TORSDOF 12
ENDMDL
MODEL 5
REMARK VINA RESULT:      -6.3      6.679      9.225
REMARK  12 active torsions:
REMARK  status: ('A' for Active; 'I' for Inactive)
REMARK    1  A    between atoms: N_1  and  C_15 
REMARK    2  A    between atoms: C_2  and  C_14 
REMARK    3  A    between atoms: C_2  and  C_3 
REMARK    4  A    between atoms: C_2  and  N_8 
REMARK    5  A    between atoms: C_3  and  C_4 
REMARK    6  A    between atoms: C_4  and  C_5 
REMARK       I    between atoms: C_5  and  N_6 
REMARK    7  A    between atoms: N_10  and  C_22 
REMARK       I    between atoms: N_10  and  C_14 
REMARK    8  A    between atoms: C_15  and  C_16 
REMARK    9  A    between atoms: C_16  and  C_28 
REMARK   10  A    between atoms: C_17  and  C_22 
REMARK   11  A    between atoms: C_18  and  C_28 
REMARK   12  A    between atoms: C_18  and  C_22 
ROOT
HETATM    1  N           1     -33.283  -4.073 -14.098  0.00  0.00    -0.345 N 
HETATM    2  C           1     -33.852  -4.545 -15.250  0.00  0.00     0.249 C 
HETATM    3  H           1     -32.337  -3.713 -14.111  0.00  0.00     0.163 HD
HETATM    4  O           1     -34.981  -4.974 -15.233  0.00  0.00    -0.271 OA
ENDROOT
BRANCH   1   5
HETATM    5  C           1     -34.035  -4.087 -12.858  0.00  0.00     0.185 C 
BRANCH   5   6
HETATM    6  C           1     -34.526  -2.694 -12.552  0.00  0.00     0.196 C 
HETATM    7  O           1     -33.974  -2.019 -11.657  0.00  0.00    -0.646 OA
HETATM    8  O           1     -35.487  -2.214 -13.195  0.00  0.00    -0.646 OA
ENDBRANCH   5   6
BRANCH   5   9
HETATM    9  C           1     -33.137  -4.571 -11.727  0.00  0.00     0.036 C 
BRANCH   9  10
HETATM   10  C           1     -33.989  -5.225 -10.647  0.00  0.00     0.004 C 
BRANCH  10  11
HETATM   11  C           1     -34.595  -6.513 -11.189  0.00  0.00     0.027 C 
BRANCH  11  12
HETATM   12  C           1     -34.683  -7.544 -10.071  0.00  0.00     0.229 C 
BRANCH  12  13
HETATM   13  N           1     -33.645  -8.605 -10.286  0.00  0.00    -0.079 N 
HETATM   14  H           1     -33.337  -8.594 -11.285  0.00  0.00     0.274 HD
HETATM   15  H           1     -32.825  -8.420  -9.665  0.00  0.00     0.274 HD
HETATM   16  H           1     -34.052  -9.540 -10.058  0.00  0.00     0.274 HD
ENDBRANCH  12  13
ENDBRANCH  11  12
ENDBRANCH  10  11
ENDBRANCH   9  10
ENDBRANCH   5   9
ENDBRANCH   1   5
BRANCH   2  17
HETATM   17  C           1     -33.070  -4.530 -16.540  0.00  0.00     0.275 C 
BRANCH  17  18
HETATM   18  C           1     -31.579  -4.547 -16.230  0.00  0.00     0.052 C 
BRANCH  18  19
HETATM   19  C           1     -30.837  -5.282 -17.338  0.00  0.00     0.105 C 
BRANCH  19  20
HETATM   20  C           1     -29.875  -4.335 -18.014  0.00  0.00     0.215 C 
HETATM   21  N           1     -29.959  -2.990 -17.775  0.00  0.00    -0.370 N 
HETATM   22  H           1     -29.314  -2.354 -18.228  0.00  0.00     0.159 HD
HETATM   23  H           1     -30.665  -2.630 -17.145  0.00  0.00     0.159 HD
HETATM   24  O           1     -29.033  -4.764 -18.765  0.00  0.00    -0.274 OA
ENDBRANCH  19  20
ENDBRANCH  18  19
ENDBRANCH  17  18
BRANCH  17  25
HETATM   25  N           1     -33.405  -3.289 -17.312  0.00  0.00    -0.066 N 
HETATM   26  H           1     -33.509  -2.485 -16.653  0.00  0.00     0.275 HD
HETATM   27  H           1     -32.637  -3.084 -17.991  0.00  0.00     0.275 HD
HETATM   28  H           1     -34.300  -3.432 -17.831  0.00  0.00     0.275 HD
ENDBRANCH  17  25
ENDBRANCH   2  17
TORSDOF 12
ENDMDL
MODEL 6
REMARK VINA RESULT:      -6.0      2.994      6.643
REMARK  12 active torsions:
REMARK  status: ('A' for Active; 'I' for Inactive)
REMARK    1  A    between atoms: N_1  and  C_15 
REMARK    2  A    between atoms: C_2  and  C_14 
REMARK    3  A    between atoms: C_2  and  C_3 
REMARK    4  A    between atoms: C_2  and  N_8 
REMARK    5  A    between atoms: C_3  and  C_4 
REMARK    6  A    between atoms: C_4  and  C_5 
REMARK       I    between atoms: C_5  and  N_6 
REMARK    7  A    between atoms: N_10  and  C_22 
REMARK       I    between atoms: N_10  and  C_14 
REMARK    8  A    between atoms: C_15  and  C_16 
REMARK    9  A    between atoms: C_16  and  C_28 
REMARK   10  A    between atoms: C_17  and  C_22 
REMARK   11  A    between atoms: C_18  and  C_28 
REMARK   12  A    between atoms: C_18  and  C_22 
ROOT
HETATM    1  N           1     -27.372  -7.128 -19.186  0.00  0.00    -0.345 N 
HETATM    2  C           1     -28.285  -6.227 -18.709  0.00  0.00     0.249 C 
HETATM    3  H           1     -27.214  -7.998 -18.694  0.00  0.00     0.163 HD
HETATM    4  O           1     -28.473  -5.189 -19.297  0.00  0.00    -0.271 OA
ENDROOT
BRANCH   1   5
HETATM    5  C           1     -26.630  -6.836 -20.398  0.00  0.00     0.185 C 
BRANCH   5   6
HETATM    6  C           1     -26.547  -8.080 -21.247  0.00  0.00     0.196 C 
HETATM    7  O           1     -27.539  -8.833 -21.353  0.00  0.00    -0.646 OA
HETATM    8  O           1     -25.484  -8.360 -21.844  0.00  0.00    -0.646 OA
ENDBRANCH   5   6
BRANCH   5   9
HETATM    9  C           1     -25.226  -6.373 -20.032  0.00  0.00     0.036 C 
BRANCH   9  10
HETATM   10  C           1     -24.534  -7.453 -19.210  0.00  0.00     0.004 C 
BRANCH  10  11
HETATM   11  C           1     -23.941  -6.831 -17.951  0.00  0.00     0.027 C 
BRANCH  11  12
HETATM   12  C           1     -24.507  -7.532 -16.723  0.00  0.00     0.229 C 
BRANCH  12  13
HETATM   13  N           1     -24.917  -6.507 -15.707  0.00  0.00    -0.079 N 
HETATM   14  H           1     -25.387  -5.707 -16.188  0.00  0.00     0.274 HD
HETATM   15  H           1     -25.580  -6.940 -15.023  0.00  0.00     0.274 HD
HETATM   16  H           1     -24.071  -6.161 -15.201  0.00  0.00     0.274 HD
ENDBRANCH  12  13
ENDBRANCH  11  12
ENDBRANCH  10  11
ENDBRANCH   9  10
ENDBRANCH   5   9
ENDBRANCH   1   5
BRANCH   2  17
HETATM   17  C           1     -29.057  -6.530 -17.448  0.00  0.00     0.275 C 
BRANCH  17  18
HETATM   18  C           1     -29.342  -5.233 -16.702  0.00  0.00     0.052 C 
BRANCH  18  19
HETATM   19  C           1     -30.820  -4.889 -16.826  0.00  0.00     0.105 C 
BRANCH  19  20
HETATM   20  C           1     -30.969  -3.536 -17.476  0.00  0.00     0.215 C 
HETATM   21  N           1     -29.860  -2.777 -17.739  0.00  0.00    -0.370 N 
HETATM   22  H           1     -29.960  -1.869 -18.175  0.00  0.00     0.159 HD
HETATM   23  H           1     -28.941  -3.124 -17.497  0.00  0.00     0.159 HD
HETATM   24  O           1     -32.066  -3.122 -17.765  0.00  0.00    -0.274 OA
ENDBRANCH  19  20
ENDBRANCH  18  19
ENDBRANCH  17  18
BRANCH  17  25
HETATM   25  N           1     -28.248  -7.441 -16.575  0.00  0.00    -0.066 N 
HETATM   26  H           1     -27.264  -7.092 -16.522  0.00  0.00     0.275 HD
HETATM   27  H           1     -28.661  -7.461 -15.615  0.00  0.00     0.275 HD
HETATM   28  H           1     -28.253  -8.406 -16.976  0.00  0.00     0.275 HD
ENDBRANCH  17  25
ENDBRANCH   2  17
TORSDOF 12
ENDMDL
MODEL 7
REMARK VINA RESULT:      -6.0     11.737     13.916
REMARK  12 active torsions:
REMARK  status: ('A' for Active; 'I' for Inactive)
REMARK    1  A    between atoms: N_1  and  C_15 
REMARK    2  A    between atoms: C_2  and  C_14 
REMARK    3  A    between atoms: C_2  and  C_3 
REMARK    4  A    between atoms: C_2  and  N_8 
REMARK    5  A    between atoms: C_3  and  C_4 
REMARK    6  A    between atoms: C_4  and  C_5 
REMARK       I    between atoms: C_5  and  N_6 
REMARK    7  A    between atoms: N_10  and  C_22 
REMARK       I    between atoms: N_10  and  C_14 
REMARK    8  A    between atoms: C_15  and  C_16 
REMARK    9  A    between atoms: C_16  and  C_28 
REMARK   10  A    between atoms: C_17  and  C_22 
REMARK   11  A    between atoms: C_18  and  C_28 
REMARK   12  A    between atoms: C_18  and  C_22 
ROOT
HETATM    1  N           1     -21.423  -6.273  -6.429  0.00  0.00    -0.345 N 
HETATM    2  C           1     -21.067  -5.077  -6.993  0.00  0.00     0.249 C 
HETATM    3  H           1     -22.048  -6.899  -6.921  0.00  0.00     0.163 HD
HETATM    4  O           1     -20.321  -4.331  -6.406  0.00  0.00    -0.271 OA
ENDROOT
BRANCH   1   5
HETATM    5  C           1     -20.904  -6.643  -5.127  0.00  0.00     0.185 C 
BRANCH   5   6
HETATM    6  C           1     -20.429  -8.074  -5.164  0.00  0.00     0.196 C 
HETATM    7  O           1     -19.455  -8.428  -4.464  0.00  0.00    -0.646 OA
HETATM    8  O           1     -21.008  -8.907  -5.896  0.00  0.00    -0.646 OA
ENDBRANCH   5   6
BRANCH   5   9
HETATM    9  C           1     -22.005  -6.499  -4.084  0.00  0.00     0.036 C 
BRANCH   9  10
HETATM   10  C           1     -21.404  -5.993  -2.779  0.00  0.00     0.004 C 
BRANCH  10  11
HETATM   11  C           1     -22.187  -6.564  -1.603  0.00  0.00     0.027 C 
BRANCH  11  12
HETATM   12  C           1     -21.770  -8.010  -1.368  0.00  0.00     0.229 C 
BRANCH  12  13
HETATM   13  N           1     -20.281  -8.130  -1.507  0.00  0.00    -0.079 N 
HETATM   14  H           1     -19.960  -7.559  -2.321  0.00  0.00     0.274 HD
HETATM   15  H           1     -19.821  -7.782  -0.634  0.00  0.00     0.274 HD
HETATM   16  H           1     -20.025  -9.131  -1.660  0.00  0.00     0.274 HD
ENDBRANCH  12  13
ENDBRANCH  11  12
ENDBRANCH  10  11
ENDBRANCH   9  10
ENDBRANCH   5   9
ENDBRANCH   1   5
BRANCH   2  17
HETATM   17  C           1     -21.607  -4.692  -8.348  0.00  0.00     0.275 C 
BRANCH  17  18
HETATM   18  C           1     -20.544  -3.919  -9.118  0.00  0.00     0.052 C 
BRANCH  18  19
HETATM   19  C           1     -20.409  -4.498 -10.520  0.00  0.00     0.105 C 
BRANCH  19  20
HETATM   20  C           1     -21.456  -3.887 -11.419  0.00  0.00     0.215 C 
HETATM   21  N           1     -22.346  -4.692 -12.078  0.00  0.00    -0.370 N 
HETATM   22  H           1     -23.048  -4.282 -12.682  0.00  0.00     0.159 HD
HETATM   23  H           1     -22.302  -5.696 -11.962  0.00  0.00     0.159 HD
HETATM   24  O           1     -21.508  -2.689 -11.558  0.00  0.00    -0.274 OA
ENDBRANCH  19  20
ENDBRANCH  18  19
ENDBRANCH  17  18
BRANCH  17  25
HETATM   25  N           1     -22.823  -3.831  -8.175  0.00  0.00    -0.066 N 
HETATM   26  H           1     -23.600  -4.200  -8.768  0.00  0.00     0.275 HD
HETATM   27  H           1     -23.116  -3.841  -7.173  0.00  0.00     0.275 HD
HETATM   28  H           1     -22.600  -2.851  -8.463  0.00  0.00     0.275 HD
ENDBRANCH  17  25
ENDBRANCH   2  17
TORSDOF 12
ENDMDL
MODEL 8
REMARK VINA RESULT:      -5.8      3.124      7.109
REMARK  12 active torsions:
REMARK  status: ('A' for Active; 'I' for Inactive)
REMARK    1  A    between atoms: N_1  and  C_15 
REMARK    2  A    between atoms: C_2  and  C_14 
REMARK    3  A    between atoms: C_2  and  C_3 
REMARK    4  A    between atoms: C_2  and  N_8 
REMARK    5  A    between atoms: C_3  and  C_4 
REMARK    6  A    between atoms: C_4  and  C_5 
REMARK       I    between atoms: C_5  and  N_6 
REMARK    7  A    between atoms: N_10  and  C_22 
REMARK       I    between atoms: N_10  and  C_14 
REMARK    8  A    between atoms: C_15  and  C_16 
REMARK    9  A    between atoms: C_16  and  C_28 
REMARK   10  A    between atoms: C_17  and  C_22 
REMARK   11  A    between atoms: C_18  and  C_28 
REMARK   12  A    between atoms: C_18  and  C_22 
ROOT
HETATM    1  N           1     -27.522  -6.856 -18.926  0.00  0.00    -0.345 N 
HETATM    2  C           1     -28.329  -5.868 -18.430  0.00  0.00     0.249 C 
HETATM    3  H           1     -27.126  -7.547 -18.301  0.00  0.00     0.163 HD
HETATM    4  O           1     -28.801  -5.044 -19.176  0.00  0.00    -0.271 OA
ENDROOT
BRANCH   1   5
HETATM    5  C           1     -27.233  -6.913 -20.346  0.00  0.00     0.185 C 
BRANCH   5   6
HETATM    6  C           1     -27.575  -8.284 -20.873  0.00  0.00     0.196 C 
HETATM    7  O           1     -26.815  -8.848 -21.690  0.00  0.00    -0.646 OA
HETATM    8  O           1     -28.620  -8.857 -20.494  0.00  0.00    -0.646 OA
ENDBRANCH   5   6
BRANCH   5   9
HETATM    9  C           1     -25.752  -6.635 -20.572  0.00  0.00     0.036 C 
BRANCH   9  10
HETATM   10  C           1     -24.980  -6.926 -19.292  0.00  0.00     0.004 C 
BRANCH  10  11
HETATM   11  C           1     -23.607  -7.484 -19.643  0.00  0.00     0.027 C 
BRANCH  11  12
HETATM   12  C           1     -23.658  -8.132 -21.021  0.00  0.00     0.229 C 
BRANCH  12  13
HETATM   13  N           1     -22.549  -9.135 -21.143  0.00  0.00    -0.079 N 
HETATM   14  H           1     -21.636  -8.636 -21.237  0.00  0.00     0.274 HD
HETATM   15  H           1     -22.530  -9.739 -20.290  0.00  0.00     0.274 HD
HETATM   16  H           1     -22.709  -9.730 -21.987  0.00  0.00     0.274 HD
ENDBRANCH  12  13
ENDBRANCH  11  12
ENDBRANCH  10  11
ENDBRANCH   9  10
ENDBRANCH   5   9
ENDBRANCH   1   5
BRANCH   2  17
HETATM   17  C           1     -28.630  -5.809 -16.953  0.00  0.00     0.275 C 
BRANCH  17  18
HETATM   18  C           1     -29.530  -4.614 -16.665  0.00  0.00     0.052 C 
BRANCH  18  19
HETATM   19  C           1     -30.985  -5.064 -16.659  0.00  0.00     0.105 C 
BRANCH  19  20
HETATM   20  C           1     -31.863  -3.931 -17.131  0.00  0.00     0.215 C 
HETATM   21  N           1     -33.210  -3.963 -16.889  0.00  0.00    -0.370 N 
HETATM   22  H           1     -33.799  -3.203 -17.206  0.00  0.00     0.159 HD
HETATM   23  H           1     -33.617  -4.745 -16.393  0.00  0.00     0.159 HD
HETATM   24  O           1     -31.378  -2.997 -17.723  0.00  0.00    -0.274 OA
ENDBRANCH  19  20
ENDBRANCH  18  19
ENDBRANCH  17  18
BRANCH  17  25
HETATM   25  N           1     -27.348  -5.664 -16.188  0.00  0.00    -0.066 N 
HETATM   26  H           1     -27.226  -6.485 -15.553  0.00  0.00     0.275 HD
HETATM   27  H           1     -26.547  -5.621 -16.857  0.00  0.00     0.275 HD
HETATM   28  H           1     -27.377  -4.787 -15.621  0.00  0.00     0.275 HD
ENDBRANCH  17  25
ENDBRANCH   2  17
TORSDOF 12
ENDMDL
MODEL 9
REMARK VINA RESULT:      -5.7     12.726     15.603
REMARK  12 active torsions:
REMARK  status: ('A' for Active; 'I' for Inactive)
REMARK    1  A    between atoms: N_1  and  C_15 
REMARK    2  A    between atoms: C_2  and  C_14 
REMARK    3  A    between atoms: C_2  and  C_3 
REMARK    4  A    between atoms: C_2  and  N_8 
REMARK    5  A    between atoms: C_3  and  C_4 
REMARK    6  A    between atoms: C_4  and  C_5 
REMARK       I    between atoms: C_5  and  N_6 
REMARK    7  A    between atoms: N_10  and  C_22 
REMARK       I    between atoms: N_10  and  C_14 
REMARK    8  A    between atoms: C_15  and  C_16 
REMARK    9  A    between atoms: C_16  and  C_28 
REMARK   10  A    between atoms: C_17  and  C_22 
REMARK   11  A    between atoms: C_18  and  C_28 
REMARK   12  A    between atoms: C_18  and  C_22 
ROOT
HETATM    1  N           1     -21.109  -5.438  -5.230  0.00  0.00    -0.345 N 
HETATM    2  C           1     -21.577  -6.480  -4.477  0.00  0.00     0.249 C 
HETATM    3  H           1     -20.596  -4.685  -4.788  0.00  0.00     0.163 HD
HETATM    4  O           1     -22.189  -7.378  -5.005  0.00  0.00    -0.271 OA
ENDROOT
BRANCH   1   5
HETATM    5  C           1     -21.346  -5.411  -6.660  0.00  0.00     0.185 C 
BRANCH   5   6
HETATM    6  C           1     -20.049  -5.659  -7.389  0.00  0.00     0.196 C 
HETATM    7  O           1     -19.586  -4.788  -8.157  0.00  0.00    -0.646 OA
HETATM    8  O           1     -19.436  -6.737  -7.226  0.00  0.00    -0.646 OA
ENDBRANCH   5   6
BRANCH   5   9
HETATM    9  C           1     -21.900  -4.048  -7.056  0.00  0.00     0.036 C 
BRANCH   9  10
HETATM   10  C           1     -23.143  -4.236  -7.916  0.00  0.00     0.004 C 
BRANCH  10  11
HETATM   11  C           1     -22.848  -3.786  -9.341  0.00  0.00     0.027 C 
BRANCH  11  12
HETATM   12  C           1     -24.047  -4.091 -10.230  0.00  0.00     0.229 C 
BRANCH  12  13
HETATM   13  N           1     -25.299  -3.603  -9.564  0.00  0.00    -0.079 N 
HETATM   14  H           1     -26.131  -3.910 -10.118  0.00  0.00     0.274 HD
HETATM   15  H           1     -25.358  -3.999  -8.598  0.00  0.00     0.274 HD
HETATM   16  H           1     -25.282  -2.559  -9.512  0.00  0.00     0.274 HD
ENDBRANCH  12  13
ENDBRANCH  11  12
ENDBRANCH  10  11
ENDBRANCH   9  10
ENDBRANCH   5   9
ENDBRANCH   1   5
BRANCH   2  17
HETATM   17  C           1     -21.331  -6.508  -2.989  0.00  0.00     0.275 C 
BRANCH  17  18
HETATM   18  C           1     -21.269  -7.953  -2.511  0.00  0.00     0.052 C 
BRANCH  18  19
HETATM   19  C           1     -20.864  -7.987  -1.044  0.00  0.00     0.105 C 
BRANCH  19  20
HETATM   20  C           1     -22.007  -8.525  -0.218  0.00  0.00     0.215 C 
HETATM   21  N           1     -21.973  -9.816   0.238  0.00  0.00    -0.370 N 
HETATM   22  H           1     -22.740 -10.177   0.792  0.00  0.00     0.159 HD
HETATM   23  H           1     -21.181 -10.408   0.023  0.00  0.00     0.159 HD
HETATM   24  O           1     -22.952  -7.819   0.039  0.00  0.00    -0.274 OA
ENDBRANCH  19  20
ENDBRANCH  18  19
ENDBRANCH  17  18
BRANCH  17  25
HETATM   25  N           1     -22.447  -5.796  -2.285  0.00  0.00    -0.066 N 
HETATM   26  H           1     -23.229  -5.623  -2.956  0.00  0.00     0.275 HD
HETATM   27  H           1     -22.791  -6.386  -1.494  0.00  0.00     0.275 HD
HETATM   28  H           1     -22.099  -4.884  -1.913  0.00  0.00     0.275 HD
ENDBRANCH  17  25
ENDBRANCH   2  17
TORSDOF 12
ENDMDL
