MODEL 1
REMARK VINA RESULT:      -5.2      0.000      0.000
REMARK  7 active torsions:
REMARK  status: ('A' for Active; 'I' for Inactive)
REMARK    1  A    between atoms: C_1  and  C_7 
REMARK    2  A    between atoms: C_1  and  C_4 
REMARK    3  A    between atoms: C_1  and  N_13 
REMARK    4  A    between atoms: N_3  and  C_19 
REMARK       I    between atoms: N_13  and  C_20 
REMARK    5  A    between atoms: C_16  and  C_18 
REMARK    6  A    between atoms: C_18  and  C_19 
REMARK    7  A    between atoms: C_19  and  C_20 
ROOT
HETATM    1  O           1     -22.281 -10.578  -3.841  0.00  0.00    -0.271 OA
HETATM    2  H           1     -20.710  -8.433  -2.175  0.00  0.00     0.163 HD
HETATM    3  N           1     -21.122  -8.869  -2.991  0.00  0.00    -0.344 N 
HETATM    4  C           1     -21.791 -10.057  -2.868  0.00  0.00     0.249 C 
ENDROOT
BRANCH   4   5
HETATM    5  C           1     -21.915 -10.717  -1.516  0.00  0.00     0.278 C 
BRANCH   5   6
HETATM    6  N           1     -20.603 -10.630  -0.796  0.00  0.00    -0.066 N 
HETATM    7  H           1     -19.988  -9.931  -1.272  0.00  0.00     0.275 HD
HETATM    8  H           1     -20.767 -10.331   0.192  0.00  0.00     0.275 HD
HETATM    9  H           1     -20.138 -11.566  -0.804  0.00  0.00     0.275 HD
ENDBRANCH   5   6
BRANCH   5  10
HETATM   10  C           1     -22.989 -10.008  -0.701  0.00  0.00     0.021 C 
HETATM   11  C           1     -23.877 -11.042  -0.023  0.00  0.00     0.012 C 
BRANCH  10  12
HETATM   12  C           1     -22.328  -9.134   0.356  0.00  0.00     0.002 C 
HETATM   13  C           1     -23.073  -7.809   0.460  0.00  0.00     0.005 C 
ENDBRANCH  10  12
ENDBRANCH   5  10
ENDBRANCH   4   5
BRANCH   3  14
HETATM   14  C           1     -21.002  -8.236  -4.290  0.00  0.00     0.189 C 
BRANCH  14  15
HETATM   15  C           1     -21.254  -6.741  -4.150  0.00  0.00     0.010 C 
HETATM   16  C           1     -22.313  -6.309  -5.156  0.00  0.00     0.012 C 
HETATM   17  C           1     -21.741  -6.439  -2.738  0.00  0.00     0.012 C 
ENDBRANCH  14  15
BRANCH  14  18
HETATM   18  C           1     -19.613  -8.463  -4.833  0.00  0.00     0.197 C 
HETATM   19  O           1     -19.354  -8.182  -6.024  0.00  0.00    -0.646 OA
HETATM   20  O           1     -18.721  -8.933  -4.095  0.00  0.00    -0.646 OA
ENDBRANCH  14  18
ENDBRANCH   3  14
TORSDOF 7
ENDMDL
MODEL 2
REMARK VINA RESULT:      -5.0      1.690      5.172
REMARK  7 active torsions:
REMARK  status: ('A' for Active; 'I' for Inactive)
REMARK    1  A    between atoms: C_1  and  C_7 
REMARK    2  A    between atoms: C_1  and  C_4 
REMARK    3  A    between atoms: C_1  and  N_13 
REMARK    4  A    between atoms: N_3  and  C_19 
REMARK       I    between atoms: N_13  and  C_20 
REMARK    5  A    between atoms: C_16  and  C_18 
REMARK    6  A    between atoms: C_18  and  C_19 
REMARK    7  A    between atoms: C_19  and  C_20 
ROOT
HETATM    1  O           1     -19.760  -9.593  -2.256  0.00  0.00    -0.271 OA
HETATM    2  H           1     -22.676  -8.456  -2.460  0.00  0.00     0.163 HD
HETATM    3  N           1     -21.902  -8.986  -2.081  0.00  0.00    -0.344 N 
HETATM    4  C           1     -20.684  -8.961  -2.707  0.00  0.00     0.249 C 
ENDROOT
BRANCH   4   5
HETATM    5  C           1     -20.498  -8.144  -3.962  0.00  0.00     0.278 C 
BRANCH   5   6
HETATM    6  N           1     -20.611  -9.037  -5.161  0.00  0.00    -0.066 N 
HETATM    7  H           1     -19.680  -9.465  -5.367  0.00  0.00     0.275 HD
HETATM    8  H           1     -21.306  -9.793  -4.968  0.00  0.00     0.275 HD
HETATM    9  H           1     -20.927  -8.476  -5.985  0.00  0.00     0.275 HD
ENDBRANCH   5   6
BRANCH   5  10
HETATM   10  C           1     -21.571  -7.064  -4.030  0.00  0.00     0.021 C 
HETATM   11  C           1     -21.203  -5.923  -3.092  0.00  0.00     0.012 C 
BRANCH  10  12
HETATM   12  C           1     -21.669  -6.538  -5.456  0.00  0.00     0.002 C 
HETATM   13  C           1     -20.775  -5.315  -5.609  0.00  0.00     0.005 C 
ENDBRANCH  10  12
ENDBRANCH   5  10
ENDBRANCH   4   5
BRANCH   3  14
HETATM   14  C           1     -22.081  -9.771  -0.876  0.00  0.00     0.189 C 
BRANCH  14  15
HETATM   15  C           1     -22.351  -8.842   0.299  0.00  0.00     0.010 C 
HETATM   16  C           1     -21.097  -8.730   1.156  0.00  0.00     0.012 C 
HETATM   17  C           1     -22.736  -7.463  -0.223  0.00  0.00     0.012 C 
ENDBRANCH  14  15
BRANCH  14  18
HETATM   18  C           1     -23.249 -10.709  -1.056  0.00  0.00     0.197 C 
HETATM   19  O           1     -24.083 -10.853  -0.135  0.00  0.00    -0.646 OA
HETATM   20  O           1     -23.385 -11.341  -2.125  0.00  0.00    -0.646 OA
ENDBRANCH  14  18
ENDBRANCH   3  14
TORSDOF 7
ENDMDL
MODEL 3
REMARK VINA RESULT:      -4.9      2.710      5.042
REMARK  7 active torsions:
REMARK  status: ('A' for Active; 'I' for Inactive)
REMARK    1  A    between atoms: C_1  and  C_7 
REMARK    2  A    between atoms: C_1  and  C_4 
REMARK    3  A    between atoms: C_1  and  N_13 
REMARK    4  A    between atoms: N_3  and  C_19 
REMARK       I    between atoms: N_13  and  C_20 
REMARK    5  A    between atoms: C_16  and  C_18 
REMARK    6  A    between atoms: C_18  and  C_19 
REMARK    7  A    between atoms: C_19  and  C_20 
ROOT
HETATM    1  O           1     -20.831 -10.419  -3.087  0.00  0.00    -0.271 OA
HETATM    2  H           1     -19.727  -8.421  -0.934  0.00  0.00     0.163 HD
HETATM    3  N           1     -20.406  -8.863  -1.542  0.00  0.00    -0.344 N 
HETATM    4  C           1     -20.023  -9.891  -2.362  0.00  0.00     0.249 C 
ENDROOT
BRANCH   4   5
HETATM    5  C           1     -18.590 -10.365  -2.359  0.00  0.00     0.278 C 
BRANCH   5   6
HETATM    6  N           1     -18.526 -11.765  -2.891  0.00  0.00    -0.066 N 
HETATM    7  H           1     -19.423 -11.997  -3.374  0.00  0.00     0.275 HD
HETATM    8  H           1     -17.735 -11.844  -3.570  0.00  0.00     0.275 HD
HETATM    9  H           1     -18.374 -12.431  -2.100  0.00  0.00     0.275 HD
ENDBRANCH   5   6
BRANCH   5  10
HETATM   10  C           1     -17.750  -9.449  -3.240  0.00  0.00     0.021 C 
HETATM   11  C           1     -16.291  -9.531  -2.813  0.00  0.00     0.012 C 
BRANCH  10  12
HETATM   12  C           1     -17.879  -9.886  -4.693  0.00  0.00     0.002 C 
HETATM   13  C           1     -16.501  -9.918  -5.339  0.00  0.00     0.005 C 
ENDBRANCH  10  12
ENDBRANCH   5  10
ENDBRANCH   4   5
BRANCH   3  14
HETATM   14  C           1     -21.782  -8.408  -1.545  0.00  0.00     0.189 C 
BRANCH  14  15
HETATM   15  C           1     -22.380  -8.592  -0.157  0.00  0.00     0.010 C 
HETATM   16  C           1     -23.246  -9.845  -0.139  0.00  0.00     0.012 C 
HETATM   17  C           1     -21.257  -8.736   0.863  0.00  0.00     0.012 C 
ENDBRANCH  14  15
BRANCH  14  18
HETATM   18  C           1     -21.829  -6.949  -1.924  0.00  0.00     0.197 C 
HETATM   19  O           1     -21.232  -6.549  -2.947  0.00  0.00    -0.646 OA
HETATM   20  O           1     -22.463  -6.139  -1.214  0.00  0.00    -0.646 OA
ENDBRANCH  14  18
ENDBRANCH   3  14
TORSDOF 7
ENDMDL
MODEL 4
REMARK VINA RESULT:      -4.9      2.330      3.367
REMARK  7 active torsions:
REMARK  status: ('A' for Active; 'I' for Inactive)
REMARK    1  A    between atoms: C_1  and  C_7 
REMARK    2  A    between atoms: C_1  and  C_4 
REMARK    3  A    between atoms: C_1  and  N_13 
REMARK    4  A    between atoms: N_3  and  C_19 
REMARK       I    between atoms: N_13  and  C_20 
REMARK    5  A    between atoms: C_16  and  C_18 
REMARK    6  A    between atoms: C_18  and  C_19 
REMARK    7  A    between atoms: C_19  and  C_20 
ROOT
HETATM    1  O           1     -20.621  -8.258  -0.178  0.00  0.00    -0.271 OA
HETATM    2  H           1     -22.626  -8.835  -2.521  0.00  0.00     0.163 HD
HETATM    3  N           1     -21.819  -8.441  -2.054  0.00  0.00    -0.344 N 
HETATM    4  C           1     -21.583  -8.728  -0.736  0.00  0.00     0.249 C 
ENDROOT
BRANCH   4   5
HETATM    5  C           1     -22.526  -9.631   0.019  0.00  0.00     0.278 C 
BRANCH   5   6
HETATM    6  N           1     -23.749  -8.858   0.415  0.00  0.00    -0.066 N 
HETATM    7  H           1     -23.491  -8.138   1.127  0.00  0.00     0.275 HD
HETATM    8  H           1     -24.150  -8.386  -0.427  0.00  0.00     0.275 HD
HETATM    9  H           1     -24.458  -9.510   0.820  0.00  0.00     0.275 HD
ENDBRANCH   5   6
BRANCH   5  10
HETATM   10  C           1     -22.932 -10.801  -0.869  0.00  0.00     0.021 C 
HETATM   11  C           1     -21.716 -11.677  -1.140  0.00  0.00     0.012 C 
BRANCH  10  12
HETATM   12  C           1     -24.003 -11.623  -0.165  0.00  0.00     0.002 C 
HETATM   13  C           1     -23.342 -12.637   0.758  0.00  0.00     0.005 C 
ENDBRANCH  10  12
ENDBRANCH   5  10
ENDBRANCH   4   5
BRANCH   3  14
HETATM   14  C           1     -20.912  -7.573  -2.780  0.00  0.00     0.189 C 
BRANCH  14  15
HETATM   15  C           1     -20.414  -8.289  -4.028  0.00  0.00     0.010 C 
HETATM   16  C           1     -19.132  -9.043  -3.702  0.00  0.00     0.012 C 
HETATM   17  C           1     -21.476  -9.273  -4.504  0.00  0.00     0.012 C 
ENDBRANCH  14  15
BRANCH  14  18
HETATM   18  C           1     -21.636  -6.311  -3.179  0.00  0.00     0.197 C 
HETATM   19  O           1     -22.507  -5.824  -2.424  0.00  0.00    -0.646 OA
HETATM   20  O           1     -21.367  -5.752  -4.263  0.00  0.00    -0.646 OA
ENDBRANCH  14  18
ENDBRANCH   3  14
TORSDOF 7
ENDMDL
MODEL 5
REMARK VINA RESULT:      -4.9     24.259     26.109
REMARK  7 active torsions:
REMARK  status: ('A' for Active; 'I' for Inactive)
REMARK    1  A    between atoms: C_1  and  C_7 
REMARK    2  A    between atoms: C_1  and  C_4 
REMARK    3  A    between atoms: C_1  and  N_13 
REMARK    4  A    between atoms: N_3  and  C_19 
REMARK       I    between atoms: N_13  and  C_20 
REMARK    5  A    between atoms: C_16  and  C_18 
REMARK    6  A    between atoms: C_18  and  C_19 
REMARK    7  A    between atoms: C_19  and  C_20 
ROOT
HETATM    1  O           1     -13.455   6.565 -19.800  0.00  0.00    -0.271 OA
HETATM    2  H           1     -11.606   7.393 -22.194  0.00  0.00     0.163 HD
HETATM    3  N           1     -12.094   7.484 -21.312  0.00  0.00    -0.344 N 
HETATM    4  C           1     -12.873   6.457 -20.851  0.00  0.00     0.249 C 
ENDROOT
BRANCH   4   5
HETATM    5  C           1     -13.004   5.189 -21.660  0.00  0.00     0.278 C 
BRANCH   5   6
HETATM    6  N           1     -11.946   5.163 -22.722  0.00  0.00    -0.066 N 
HETATM    7  H           1     -11.780   6.132 -23.074  0.00  0.00     0.275 HD
HETATM    8  H           1     -11.059   4.782 -22.321  0.00  0.00     0.275 HD
HETATM    9  H           1     -12.261   4.555 -23.512  0.00  0.00     0.275 HD
ENDBRANCH   5   6
BRANCH   5  10
HETATM   10  C           1     -12.834   3.983 -20.745  0.00  0.00     0.021 C 
HETATM   11  C           1     -13.351   2.735 -21.449  0.00  0.00     0.012 C 
BRANCH  10  12
HETATM   12  C           1     -11.359   3.803 -20.412  0.00  0.00     0.002 C 
HETATM   13  C           1     -10.947   2.363 -20.688  0.00  0.00     0.005 C 
ENDBRANCH  10  12
ENDBRANCH   5  10
ENDBRANCH   4   5
BRANCH   3  14
HETATM   14  C           1     -11.968   8.702 -20.535  0.00  0.00     0.189 C 
BRANCH  14  15
HETATM   15  C           1     -10.498   8.963 -20.236  0.00  0.00     0.010 C 
HETATM   16  C           1     -10.292   9.034 -18.728  0.00  0.00     0.012 C 
HETATM   17  C           1      -9.655   7.831 -20.811  0.00  0.00     0.012 C 
ENDBRANCH  14  15
BRANCH  14  18
HETATM   18  C           1     -12.534   9.859 -21.320  0.00  0.00     0.197 C 
HETATM   19  O           1     -11.811  10.842 -21.595  0.00  0.00    -0.646 OA
HETATM   20  O           1     -13.726   9.836 -21.696  0.00  0.00    -0.646 OA
ENDBRANCH  14  18
ENDBRANCH   3  14
TORSDOF 7
ENDMDL
MODEL 6
REMARK VINA RESULT:      -4.9     23.610     25.643
REMARK  7 active torsions:
REMARK  status: ('A' for Active; 'I' for Inactive)
REMARK    1  A    between atoms: C_1  and  C_7 
REMARK    2  A    between atoms: C_1  and  C_4 
REMARK    3  A    between atoms: C_1  and  N_13 
REMARK    4  A    between atoms: N_3  and  C_19 
REMARK       I    between atoms: N_13  and  C_20 
REMARK    5  A    between atoms: C_16  and  C_18 
REMARK    6  A    between atoms: C_18  and  C_19 
REMARK    7  A    between atoms: C_19  and  C_20 
ROOT
HETATM    1  O           1     -11.724   5.349 -19.050  0.00  0.00    -0.271 OA
HETATM    2  H           1     -13.254   7.063 -21.186  0.00  0.00     0.163 HD
HETATM    3  N           1     -12.579   6.854 -20.461  0.00  0.00    -0.344 N 
HETATM    4  C           1     -12.528   5.599 -19.915  0.00  0.00     0.249 C 
ENDROOT
BRANCH   4   5
HETATM    5  C           1     -13.478   4.529 -20.395  0.00  0.00     0.278 C 
BRANCH   5   6
HETATM    6  N           1     -14.499   5.140 -21.308  0.00  0.00    -0.066 N 
HETATM    7  H           1     -14.091   5.980 -21.775  0.00  0.00     0.275 HD
HETATM    8  H           1     -14.780   4.441 -22.033  0.00  0.00     0.275 HD
HETATM    9  H           1     -15.338   5.423 -20.753  0.00  0.00     0.275 HD
ENDBRANCH   5   6
BRANCH   5  10
HETATM   10  C           1     -12.699   3.458 -21.148  0.00  0.00     0.021 C 
HETATM   11  C           1     -13.585   2.237 -21.355  0.00  0.00     0.012 C 
BRANCH  10  12
HETATM   12  C           1     -12.265   4.006 -22.501  0.00  0.00     0.002 C 
HETATM   13  C           1     -10.746   3.957 -22.606  0.00  0.00     0.005 C 
ENDBRANCH  10  12
ENDBRANCH   5  10
ENDBRANCH   4   5
BRANCH   3  14
HETATM   14  C           1     -11.667   7.882 -20.000  0.00  0.00     0.189 C 
BRANCH  14  15
HETATM   15  C           1     -10.754   8.300 -21.145  0.00  0.00     0.010 C 
HETATM   16  C           1      -9.358   7.736 -20.911  0.00  0.00     0.012 C 
HETATM   17  C           1     -11.307   7.759 -22.458  0.00  0.00     0.012 C 
ENDBRANCH  14  15
BRANCH  14  18
HETATM   18  C           1     -12.456   9.077 -19.524  0.00  0.00     0.197 C 
HETATM   19  O           1     -13.133   9.743 -20.337  0.00  0.00    -0.646 OA
HETATM   20  O           1     -12.432   9.402 -18.318  0.00  0.00    -0.646 OA
ENDBRANCH  14  18
ENDBRANCH   3  14
TORSDOF 7
ENDMDL
MODEL 7
REMARK VINA RESULT:      -4.8      2.156      5.295
REMARK  7 active torsions:
REMARK  status: ('A' for Active; 'I' for Inactive)
REMARK    1  A    between atoms: C_1  and  C_7 
REMARK    2  A    between atoms: C_1  and  C_4 
REMARK    3  A    between atoms: C_1  and  N_13 
REMARK    4  A    between atoms: N_3  and  C_19 
REMARK       I    between atoms: N_13  and  C_20 
REMARK    5  A    between atoms: C_16  and  C_18 
REMARK    6  A    between atoms: C_18  and  C_19 
REMARK    7  A    between atoms: C_19  and  C_20 
ROOT
HETATM    1  O           1     -20.470  -7.187  -1.981  0.00  0.00    -0.271 OA
HETATM    2  H           1     -22.347  -9.641  -2.525  0.00  0.00     0.163 HD
HETATM    3  N           1     -21.712  -9.043  -2.012  0.00  0.00    -0.344 N 
HETATM    4  C           1     -21.227  -7.901  -2.592  0.00  0.00     0.249 C 
ENDROOT
BRANCH   4   5
HETATM    5  C           1     -21.640  -7.536  -3.997  0.00  0.00     0.278 C 
BRANCH   5   6
HETATM    6  N           1     -22.473  -6.289  -3.965  0.00  0.00    -0.066 N 
HETATM    7  H           1     -23.424  -6.514  -3.594  0.00  0.00     0.275 HD
HETATM    8  H           1     -22.017  -5.581  -3.346  0.00  0.00     0.275 HD
HETATM    9  H           1     -22.559  -5.903  -4.932  0.00  0.00     0.275 HD
ENDBRANCH   5   6
BRANCH   5  10
HETATM   10  C           1     -20.398  -7.294  -4.846  0.00  0.00     0.021 C 
HETATM   11  C           1     -19.712  -8.623  -5.131  0.00  0.00     0.012 C 
BRANCH  10  12
HETATM   12  C           1     -20.803  -6.639  -6.159  0.00  0.00     0.002 C 
HETATM   13  C           1     -20.022  -5.345  -6.344  0.00  0.00     0.005 C 
ENDBRANCH  10  12
ENDBRANCH   5  10
ENDBRANCH   4   5
BRANCH   3  14
HETATM   14  C           1     -21.315  -9.393  -0.662  0.00  0.00     0.189 C 
BRANCH  14  15
HETATM   15  C           1     -22.556  -9.562   0.204  0.00  0.00     0.010 C 
HETATM   16  C           1     -23.182  -8.199   0.465  0.00  0.00     0.012 C 
HETATM   17  C           1     -23.560 -10.453  -0.518  0.00  0.00     0.012 C 
ENDBRANCH  14  15
BRANCH  14  18
HETATM   18  C           1     -20.538 -10.687  -0.687  0.00  0.00     0.197 C 
HETATM   19  O           1     -20.281 -11.240  -1.778  0.00  0.00    -0.646 OA
HETATM   20  O           1     -20.153 -11.205   0.383  0.00  0.00    -0.646 OA
ENDBRANCH  14  18
ENDBRANCH   3  14
TORSDOF 7
ENDMDL
MODEL 8
REMARK VINA RESULT:      -4.8      2.388      3.383
REMARK  7 active torsions:
REMARK  status: ('A' for Active; 'I' for Inactive)
REMARK    1  A    between atoms: C_1  and  C_7 
REMARK    2  A    between atoms: C_1  and  C_4 
REMARK    3  A    between atoms: C_1  and  N_13 
REMARK    4  A    between atoms: N_3  and  C_19 
REMARK       I    between atoms: N_13  and  C_20 
REMARK    5  A    between atoms: C_16  and  C_18 
REMARK    6  A    between atoms: C_18  and  C_19 
REMARK    7  A    between atoms: C_19  and  C_20 
ROOT
HETATM    1  O           1     -20.500 -10.112  -0.580  0.00  0.00    -0.271 OA
HETATM    2  H           1     -22.691  -9.395  -2.709  0.00  0.00     0.163 HD
HETATM    3  N           1     -21.879  -9.263  -2.119  0.00  0.00    -0.344 N 
HETATM    4  C           1     -21.468 -10.269  -1.285  0.00  0.00     0.249 C 
ENDROOT
BRANCH   4   5
HETATM    5  C           1     -22.227 -11.573  -1.245  0.00  0.00     0.278 C 
BRANCH   5   6
HETATM    6  N           1     -21.261 -12.716  -1.345  0.00  0.00    -0.066 N 
HETATM    7  H           1     -21.773 -13.583  -1.623  0.00  0.00     0.275 HD
HETATM    8  H           1     -20.534 -12.496  -2.063  0.00  0.00     0.275 HD
HETATM    9  H           1     -20.801 -12.864  -0.418  0.00  0.00     0.275 HD
ENDBRANCH   5   6
BRANCH   5  10
HETATM   10  C           1     -22.998 -11.673   0.065  0.00  0.00     0.021 C 
HETATM   11  C           1     -24.197 -10.735   0.021  0.00  0.00     0.012 C 
BRANCH  10  12
HETATM   12  C           1     -23.479 -13.104   0.261  0.00  0.00     0.002 C 
HETATM   13  C           1     -23.243 -13.528   1.704  0.00  0.00     0.005 C 
ENDBRANCH  10  12
ENDBRANCH   5  10
ENDBRANCH   4   5
BRANCH   3  14
HETATM   14  C           1     -21.150  -8.010  -2.156  0.00  0.00     0.189 C 
BRANCH  14  15
HETATM   15  C           1     -20.680  -7.740  -3.579  0.00  0.00     0.010 C 
HETATM   16  C           1     -19.421  -8.550  -3.860  0.00  0.00     0.012 C 
HETATM   17  C           1     -21.773  -8.144  -4.560  0.00  0.00     0.012 C 
ENDBRANCH  14  15
BRANCH  14  18
HETATM   18  C           1     -22.053  -6.890  -1.704  0.00  0.00     0.197 C 
HETATM   19  O           1     -22.085  -5.816  -2.343  0.00  0.00    -0.646 OA
HETATM   20  O           1     -22.769  -7.035  -0.690  0.00  0.00    -0.646 OA
ENDBRANCH  14  18
ENDBRANCH   3  14
TORSDOF 7
ENDMDL
MODEL 9
REMARK VINA RESULT:      -4.7      2.466      4.023
REMARK  7 active torsions:
REMARK  status: ('A' for Active; 'I' for Inactive)
REMARK    1  A    between atoms: C_1  and  C_7 
REMARK    2  A    between atoms: C_1  and  C_4 
REMARK    3  A    between atoms: C_1  and  N_13 
REMARK    4  A    between atoms: N_3  and  C_19 
REMARK       I    between atoms: N_13  and  C_20 
REMARK    5  A    between atoms: C_16  and  C_18 
REMARK    6  A    between atoms: C_18  and  C_19 
REMARK    7  A    between atoms: C_19  and  C_20 
ROOT
HETATM    1  O           1     -23.543 -10.970  -1.165  0.00  0.00    -0.271 OA
HETATM    2  H           1     -20.576 -10.505  -0.256  0.00  0.00     0.163 HD
HETATM    3  N           1     -21.495 -10.272  -0.611  0.00  0.00    -0.344 N 
HETATM    4  C           1     -22.447 -11.247  -0.740  0.00  0.00     0.249 C 
ENDROOT
BRANCH   4   5
HETATM    5  C           1     -22.127 -12.670  -0.353  0.00  0.00     0.278 C 
BRANCH   5   6
HETATM    6  N           1     -20.857 -12.696   0.445  0.00  0.00    -0.066 N 
HETATM    7  H           1     -20.283 -13.523   0.161  0.00  0.00     0.275 HD
HETATM    8  H           1     -20.315 -11.820   0.266  0.00  0.00     0.275 HD
HETATM    9  H           1     -21.086 -12.763   1.462  0.00  0.00     0.275 HD
ENDBRANCH   5   6
BRANCH   5  10
HETATM   10  C           1     -23.264 -13.237   0.487  0.00  0.00     0.021 C 
HETATM   11  C           1     -23.895 -14.415  -0.243  0.00  0.00     0.012 C 
BRANCH  10  12
HETATM   12  C           1     -22.718 -13.705   1.829  0.00  0.00     0.002 C 
HETATM   13  C           1     -23.842 -14.327   2.647  0.00  0.00     0.005 C 
ENDBRANCH  10  12
ENDBRANCH   5  10
ENDBRANCH   4   5
BRANCH   3  14
HETATM   14  C           1     -21.803  -8.905  -0.984  0.00  0.00     0.189 C 
BRANCH  14  15
HETATM   15  C           1     -21.884  -8.044   0.269  0.00  0.00     0.010 C 
HETATM   16  C           1     -23.335  -7.942   0.722  0.00  0.00     0.012 C 
HETATM   17  C           1     -21.049  -8.678   1.374  0.00  0.00     0.012 C 
ENDBRANCH  14  15
BRANCH  14  18
HETATM   18  C           1     -20.720  -8.375  -1.890  0.00  0.00     0.197 C 
HETATM   19  O           1     -19.714  -9.076  -2.139  0.00  0.00    -0.646 OA
HETATM   20  O           1     -20.826  -7.235  -2.391  0.00  0.00    -0.646 OA
ENDBRANCH  14  18
ENDBRANCH   3  14
TORSDOF 7
ENDMDL
