MODEL 1
REMARK VINA RESULT:      -6.2      0.000      0.000
REMARK  9 active torsions:
REMARK  status: ('A' for Active; 'I' for Inactive)
REMARK    1  A    between atoms: C_1  and  C_19 
REMARK       I    between atoms: C_5  and  N_6 
REMARK    2  A    between atoms: C_5  and  C_7 
REMARK    3  A    between atoms: C_7  and  C_18 
REMARK    4  A    between atoms: N_12  and  C_15 
REMARK    5  A    between atoms: Se_13  and  C_14 
REMARK    6  A    between atoms: C_14  and  C_15 
REMARK    7  A    between atoms: C_15  and  C_16 
REMARK       I    between atoms: C_16  and  N_17 
REMARK    8  A    between atoms: N_17  and  C_19 
REMARK    9  A    between atoms: C_18  and  C_19 
ROOT
HETATM    1  H           1     -27.799  -7.160 -20.048  0.00  0.00     0.163 HD
HETATM    2  O           1     -26.186  -6.063 -17.592  0.00  0.00    -0.271 OA
HETATM    3  C           1     -26.370  -6.526 -18.692  0.00  0.00     0.249 C 
HETATM    4  N           1     -27.645  -6.772 -19.126  0.00  0.00    -0.345 N 
ENDROOT
BRANCH   4   5
HETATM    5  C           1     -28.774  -6.479 -18.265  0.00  0.00     0.186 C 
BRANCH   5   6
HETATM    6  C           1     -29.828  -7.543 -18.439  0.00  0.00     0.196 C 
HETATM    7  O           1     -29.647  -8.477 -19.250  0.00  0.00    -0.646 OA
HETATM    8  O           1     -30.885  -7.492 -17.772  0.00  0.00    -0.646 OA
ENDBRANCH   5   6
BRANCH   5   9
HETATM    9  C           1     -29.355  -5.121 -18.636  0.00  0.00     0.045 C 
BRANCH   9  10
HETATM   10  C           1     -29.566  -4.296 -17.373  0.00  0.00     0.105 C 
BRANCH  10  11
HETATM   11  C           1     -31.042  -4.045 -17.176  0.00  0.00     0.215 C 
HETATM   12  O           1     -31.545  -3.035 -17.608  0.00  0.00    -0.274 OA
HETATM   13  N           1     -31.808  -4.962 -16.509  0.00  0.00    -0.370 N 
HETATM   14  H           1     -31.386  -5.807 -16.147  0.00  0.00     0.159 HD
HETATM   15  H           1     -32.797  -4.794 -16.376  0.00  0.00     0.159 HD
ENDBRANCH  10  11
ENDBRANCH   9  10
ENDBRANCH   5   9
ENDBRANCH   4   5
BRANCH   3  16
HETATM   16  C           1     -25.195  -6.832 -19.588  0.00  0.00     0.274 C 
BRANCH  16  17
HETATM   17  N           1     -24.153  -7.578 -18.809  0.00  0.00    -0.067 N 
HETATM   18  H           1     -24.321  -7.445 -17.787  0.00  0.00     0.275 HD
HETATM   19  H           1     -24.207  -8.596 -19.043  0.00  0.00     0.275 HD
HETATM   20  H           1     -23.206  -7.213 -19.058  0.00  0.00     0.275 HD
ENDBRANCH  16  17
BRANCH  16  21
HETATM   21  C           1     -25.659  -7.684 -20.762  0.00  0.00     0.045 C 
BRANCH  21  22
HETATM   22 Se           1     -24.215  -7.842 -22.061  0.00  0.00     0.000 Se
HETATM   23  H           1     -24.568  -6.606 -22.778  0.00  0.00     0.000 HD
ENDBRANCH  21  22
ENDBRANCH  16  21
ENDBRANCH   3  16
TORSDOF 9
ENDMDL
MODEL 2
REMARK VINA RESULT:      -6.0      9.456     10.737
REMARK  9 active torsions:
REMARK  status: ('A' for Active; 'I' for Inactive)
REMARK    1  A    between atoms: C_1  and  C_19 
REMARK       I    between atoms: C_5  and  N_6 
REMARK    2  A    between atoms: C_5  and  C_7 
REMARK    3  A    between atoms: C_7  and  C_18 
REMARK    4  A    between atoms: N_12  and  C_15 
REMARK    5  A    between atoms: Se_13  and  C_14 
REMARK    6  A    between atoms: C_14  and  C_15 
REMARK    7  A    between atoms: C_15  and  C_16 
REMARK       I    between atoms: C_16  and  N_17 
REMARK    8  A    between atoms: N_17  and  C_19 
REMARK    9  A    between atoms: C_18  and  C_19 
ROOT
HETATM    1  H           1     -35.421  -2.060 -14.080  0.00  0.00     0.163 HD
HETATM    2  O           1     -33.843  -2.071 -11.369  0.00  0.00    -0.271 OA
HETATM    3  C           1     -34.337  -2.517 -12.377  0.00  0.00     0.249 C 
HETATM    4  N           1     -35.008  -1.687 -13.235  0.00  0.00    -0.345 N 
ENDROOT
BRANCH   4   5
HETATM    5  C           1     -35.127  -0.274 -12.933  0.00  0.00     0.186 C 
BRANCH   5   6
HETATM    6  C           1     -36.364  -0.040 -12.104  0.00  0.00     0.196 C 
HETATM    7  O           1     -36.260   0.371 -10.927  0.00  0.00    -0.646 OA
HETATM    8  O           1     -37.495  -0.257 -12.591  0.00  0.00    -0.646 OA
ENDBRANCH   5   6
BRANCH   5   9
HETATM    9  C           1     -35.228   0.516 -14.232  0.00  0.00     0.045 C 
BRANCH   9  10
HETATM   10  C           1     -35.469  -0.441 -15.392  0.00  0.00     0.105 C 
BRANCH  10  11
HETATM   11  C           1     -36.841  -0.195 -15.971  0.00  0.00     0.215 C 
HETATM   12  O           1     -37.314  -0.978 -16.760  0.00  0.00    -0.274 OA
HETATM   13  N           1     -37.549   0.916 -15.602  0.00  0.00    -0.370 N 
HETATM   14  H           1     -37.154   1.573 -14.941  0.00  0.00     0.159 HD
HETATM   15  H           1     -38.470   1.082 -15.990  0.00  0.00     0.159 HD
ENDBRANCH  10  11
ENDBRANCH   9  10
ENDBRANCH   5   9
ENDBRANCH   4   5
BRANCH   3  16
HETATM   16  C           1     -34.213  -3.987 -12.691  0.00  0.00     0.274 C 
BRANCH  16  17
HETATM   17  N           1     -33.695  -4.158 -14.089  0.00  0.00    -0.067 N 
HETATM   18  H           1     -33.876  -5.136 -14.410  0.00  0.00     0.275 HD
HETATM   19  H           1     -34.182  -3.486 -14.725  0.00  0.00     0.275 HD
HETATM   20  H           1     -32.667  -3.970 -14.104  0.00  0.00     0.275 HD
ENDBRANCH  16  17
BRANCH  16  21
HETATM   21  C           1     -33.247  -4.637 -11.710  0.00  0.00     0.045 C 
BRANCH  21  22
HETATM   22 Se           1     -34.158  -6.073 -10.756  0.00  0.00     0.000 Se
HETATM   23  H           1     -35.499  -5.489 -10.922  0.00  0.00     0.000 HD
ENDBRANCH  21  22
ENDBRANCH  16  21
ENDBRANCH   3  16
TORSDOF 9
ENDMDL
MODEL 3
REMARK VINA RESULT:      -5.8      2.244      3.296
REMARK  9 active torsions:
REMARK  status: ('A' for Active; 'I' for Inactive)
REMARK    1  A    between atoms: C_1  and  C_19 
REMARK       I    between atoms: C_5  and  N_6 
REMARK    2  A    between atoms: C_5  and  C_7 
REMARK    3  A    between atoms: C_7  and  C_18 
REMARK    4  A    between atoms: N_12  and  C_15 
REMARK    5  A    between atoms: Se_13  and  C_14 
REMARK    6  A    between atoms: C_14  and  C_15 
REMARK    7  A    between atoms: C_15  and  C_16 
REMARK       I    between atoms: C_16  and  N_17 
REMARK    8  A    between atoms: N_17  and  C_19 
REMARK    9  A    between atoms: C_18  and  C_19 
ROOT
HETATM    1  H           1     -27.002  -7.371 -18.721  0.00  0.00     0.163 HD
HETATM    2  O           1     -24.032  -6.387 -18.942  0.00  0.00    -0.271 OA
HETATM    3  C           1     -25.049  -6.955 -19.263  0.00  0.00     0.249 C 
HETATM    4  N           1     -26.150  -6.896 -18.452  0.00  0.00    -0.345 N 
ENDROOT
BRANCH   4   5
HETATM    5  C           1     -26.097  -6.153 -17.208  0.00  0.00     0.186 C 
BRANCH   5   6
HETATM    6  C           1     -25.850  -7.105 -16.065  0.00  0.00     0.196 C 
HETATM    7  O           1     -26.766  -7.357 -15.252  0.00  0.00    -0.646 OA
HETATM    8  O           1     -24.729  -7.641 -15.928  0.00  0.00    -0.646 OA
ENDBRANCH   5   6
BRANCH   5   9
HETATM    9  C           1     -27.420  -5.429 -16.991  0.00  0.00     0.045 C 
BRANCH   9  10
HETATM   10  C           1     -28.434  -5.903 -18.024  0.00  0.00     0.105 C 
BRANCH  10  11
HETATM   11  C           1     -29.483  -6.751 -17.348  0.00  0.00     0.215 C 
HETATM   12  O           1     -30.321  -6.232 -16.649  0.00  0.00    -0.274 OA
HETATM   13  N           1     -29.485  -8.108 -17.527  0.00  0.00    -0.370 N 
HETATM   14  H           1     -28.784  -8.543 -18.113  0.00  0.00     0.159 HD
HETATM   15  H           1     -30.189  -8.677 -17.074  0.00  0.00     0.159 HD
ENDBRANCH  10  11
ENDBRANCH   9  10
ENDBRANCH   5   9
ENDBRANCH   4   5
BRANCH   3  16
HETATM   16  C           1     -25.105  -7.728 -20.557  0.00  0.00     0.274 C 
BRANCH  16  17
HETATM   17  N           1     -26.528  -8.091 -20.862  0.00  0.00    -0.067 N 
HETATM   18  H           1     -26.671  -8.102 -21.897  0.00  0.00     0.275 HD
HETATM   19  H           1     -26.736  -9.038 -20.471  0.00  0.00     0.275 HD
HETATM   20  H           1     -27.167  -7.386 -20.428  0.00  0.00     0.275 HD
ENDBRANCH  16  17
BRANCH  16  21
HETATM   21  C           1     -24.547  -6.871 -21.686  0.00  0.00     0.045 C 
BRANCH  21  22
HETATM   22 Se           1     -23.508  -7.989 -22.898  0.00  0.00     0.000 Se
HETATM   23  H           1     -22.225  -7.339 -22.583  0.00  0.00     0.000 HD
ENDBRANCH  21  22
ENDBRANCH  16  21
ENDBRANCH   3  16
TORSDOF 9
ENDMDL
MODEL 4
REMARK VINA RESULT:      -5.6      9.777     12.112
REMARK  9 active torsions:
REMARK  status: ('A' for Active; 'I' for Inactive)
REMARK    1  A    between atoms: C_1  and  C_19 
REMARK       I    between atoms: C_5  and  N_6 
REMARK    2  A    between atoms: C_5  and  C_7 
REMARK    3  A    between atoms: C_7  and  C_18 
REMARK    4  A    between atoms: N_12  and  C_15 
REMARK    5  A    between atoms: Se_13  and  C_14 
REMARK    6  A    between atoms: C_14  and  C_15 
REMARK    7  A    between atoms: C_15  and  C_16 
REMARK       I    between atoms: C_16  and  N_17 
REMARK    8  A    between atoms: N_17  and  C_19 
REMARK    9  A    between atoms: C_18  and  C_19 
ROOT
HETATM    1  H           1     -35.197   0.546 -12.040  0.00  0.00     0.163 HD
HETATM    2  O           1     -37.650  -0.796 -13.461  0.00  0.00    -0.271 OA
HETATM    3  C           1     -36.649  -0.129 -13.351  0.00  0.00     0.249 C 
HETATM    4  N           1     -36.036  -0.012 -12.132  0.00  0.00    -0.345 N 
ENDROOT
BRANCH   4   5
HETATM    5  C           1     -36.589  -0.686 -10.974  0.00  0.00     0.186 C 
BRANCH   5   6
HETATM    6  C           1     -36.987   0.336  -9.939  0.00  0.00     0.196 C 
HETATM    7  O           1     -36.278   0.506  -8.924  0.00  0.00    -0.646 OA
HETATM    8  O           1     -38.026   1.013 -10.096  0.00  0.00    -0.646 OA
ENDBRANCH   5   6
BRANCH   5   9
HETATM    9  C           1     -35.543  -1.626 -10.386  0.00  0.00     0.045 C 
BRANCH   9  10
HETATM   10  C           1     -35.544  -2.937 -11.161  0.00  0.00     0.105 C 
BRANCH  10  11
HETATM   11  C           1     -34.376  -2.957 -12.117  0.00  0.00     0.215 C 
HETATM   12  O           1     -34.536  -2.648 -13.274  0.00  0.00    -0.274 OA
HETATM   13  N           1     -33.135  -3.327 -11.672  0.00  0.00    -0.370 N 
HETATM   14  H           1     -33.001  -3.586 -10.703  0.00  0.00     0.159 HD
HETATM   15  H           1     -32.352  -3.341 -12.313  0.00  0.00     0.159 HD
ENDBRANCH  10  11
ENDBRANCH   9  10
ENDBRANCH   5   9
ENDBRANCH   4   5
BRANCH   3  16
HETATM   16  C           1     -36.074   0.573 -14.556  0.00  0.00     0.274 C 
BRANCH  16  17
HETATM   17  N           1     -34.596   0.326 -14.620  0.00  0.00    -0.067 N 
HETATM   18  H           1     -34.310   0.175 -15.614  0.00  0.00     0.275 HD
HETATM   19  H           1     -34.088   1.154 -14.233  0.00  0.00     0.275 HD
HETATM   20  H           1     -34.360  -0.522 -14.057  0.00  0.00     0.275 HD
ENDBRANCH  16  17
BRANCH  16  21
HETATM   21  C           1     -36.733   0.037 -15.819  0.00  0.00     0.045 C 
BRANCH  21  22
HETATM   22 Se           1     -35.582  -1.310 -16.632  0.00  0.00     0.000 Se
HETATM   23  H           1     -35.749  -2.280 -15.537  0.00  0.00     0.000 HD
ENDBRANCH  21  22
ENDBRANCH  16  21
ENDBRANCH   3  16
TORSDOF 9
ENDMDL
MODEL 5
REMARK VINA RESULT:      -5.5      2.234      2.808
REMARK  9 active torsions:
REMARK  status: ('A' for Active; 'I' for Inactive)
REMARK    1  A    between atoms: C_1  and  C_19 
REMARK       I    between atoms: C_5  and  N_6 
REMARK    2  A    between atoms: C_5  and  C_7 
REMARK    3  A    between atoms: C_7  and  C_18 
REMARK    4  A    between atoms: N_12  and  C_15 
REMARK    5  A    between atoms: Se_13  and  C_14 
REMARK    6  A    between atoms: C_14  and  C_15 
REMARK    7  A    between atoms: C_15  and  C_16 
REMARK       I    between atoms: C_16  and  N_17 
REMARK    8  A    between atoms: N_17  and  C_19 
REMARK    9  A    between atoms: C_18  and  C_19 
ROOT
HETATM    1  H           1     -27.546  -6.591 -18.552  0.00  0.00     0.163 HD
HETATM    2  O           1     -24.426  -6.513 -18.229  0.00  0.00    -0.271 OA
HETATM    3  C           1     -25.490  -6.703 -18.769  0.00  0.00     0.249 C 
HETATM    4  N           1     -26.654  -6.432 -18.100  0.00  0.00    -0.345 N 
ENDROOT
BRANCH   4   5
HETATM    5  C           1     -26.610  -5.920 -16.745  0.00  0.00     0.186 C 
BRANCH   5   6
HETATM    6  C           1     -26.580  -7.072 -15.772  0.00  0.00     0.196 C 
HETATM    7  O           1     -27.650  -7.542 -15.327  0.00  0.00    -0.646 OA
HETATM    8  O           1     -25.486  -7.557 -15.410  0.00  0.00    -0.646 OA
ENDBRANCH   5   6
BRANCH   5   9
HETATM    9  C           1     -27.844  -5.066 -16.485  0.00  0.00     0.045 C 
BRANCH   9  10
HETATM   10  C           1     -28.632  -4.904 -17.777  0.00  0.00     0.105 C 
BRANCH  10  11
HETATM   11  C           1     -29.610  -3.762 -17.632  0.00  0.00     0.215 C 
HETATM   12  O           1     -30.798  -3.973 -17.691  0.00  0.00    -0.274 OA
HETATM   13  N           1     -29.148  -2.489 -17.433  0.00  0.00    -0.370 N 
HETATM   14  H           1     -28.153  -2.313 -17.384  0.00  0.00     0.159 HD
HETATM   15  H           1     -29.803  -1.723 -17.336  0.00  0.00     0.159 HD
ENDBRANCH  10  11
ENDBRANCH   9  10
ENDBRANCH   5   9
ENDBRANCH   4   5
BRANCH   3  16
HETATM   16  C           1     -25.537  -7.236 -20.179  0.00  0.00     0.274 C 
BRANCH  16  17
HETATM   17  N           1     -25.748  -6.101 -21.137  0.00  0.00    -0.067 N 
HETATM   18  H           1     -26.722  -6.140 -21.513  0.00  0.00     0.275 HD
HETATM   19  H           1     -25.602  -5.194 -20.638  0.00  0.00     0.275 HD
HETATM   20  H           1     -25.066  -6.180 -21.925  0.00  0.00     0.275 HD
ENDBRANCH  16  17
BRANCH  16  21
HETATM   21  C           1     -24.222  -7.934 -20.502  0.00  0.00     0.045 C 
BRANCH  21  22
HETATM   22 Se           1     -23.934  -7.918 -22.429  0.00  0.00     0.000 Se
HETATM   23  H           1     -25.368  -7.920 -22.761  0.00  0.00     0.000 HD
ENDBRANCH  21  22
ENDBRANCH  16  21
ENDBRANCH   3  16
TORSDOF 9
ENDMDL
MODEL 6
REMARK VINA RESULT:      -5.5      9.459     11.236
REMARK  9 active torsions:
REMARK  status: ('A' for Active; 'I' for Inactive)
REMARK    1  A    between atoms: C_1  and  C_19 
REMARK       I    between atoms: C_5  and  N_6 
REMARK    2  A    between atoms: C_5  and  C_7 
REMARK    3  A    between atoms: C_7  and  C_18 
REMARK    4  A    between atoms: N_12  and  C_15 
REMARK    5  A    between atoms: Se_13  and  C_14 
REMARK    6  A    between atoms: C_14  and  C_15 
REMARK    7  A    between atoms: C_15  and  C_16 
REMARK       I    between atoms: C_16  and  N_17 
REMARK    8  A    between atoms: N_17  and  C_19 
REMARK    9  A    between atoms: C_18  and  C_19 
ROOT
HETATM    1  H           1     -35.487   0.160 -12.506  0.00  0.00     0.163 HD
HETATM    2  O           1     -34.932  -2.429 -14.188  0.00  0.00    -0.271 OA
HETATM    3  C           1     -35.103  -1.253 -13.968  0.00  0.00     0.249 C 
HETATM    4  N           1     -35.343  -0.825 -12.690  0.00  0.00    -0.345 N 
ENDROOT
BRANCH   4   5
HETATM    5  C           1     -35.393  -1.781 -11.602  0.00  0.00     0.186 C 
BRANCH   5   6
HETATM    6  C           1     -36.307  -1.263 -10.519  0.00  0.00     0.196 C 
HETATM    7  O           1     -37.545  -1.404 -10.626  0.00  0.00    -0.646 OA
HETATM    8  O           1     -35.828  -0.693  -9.515  0.00  0.00    -0.646 OA
ENDBRANCH   5   6
BRANCH   5   9
HETATM    9  C           1     -33.993  -1.978 -11.034  0.00  0.00     0.045 C 
BRANCH   9  10
HETATM   10  C           1     -33.818  -3.428 -10.603  0.00  0.00     0.105 C 
BRANCH  10  11
HETATM   11  C           1     -33.380  -4.256 -11.787  0.00  0.00     0.215 C 
HETATM   12  O           1     -32.214  -4.296 -12.098  0.00  0.00    -0.274 OA
HETATM   13  N           1     -34.306  -4.961 -12.508  0.00  0.00    -0.370 N 
HETATM   14  H           1     -35.283  -4.927 -12.247  0.00  0.00     0.159 HD
HETATM   15  H           1     -34.013  -5.516 -13.302  0.00  0.00     0.159 HD
ENDBRANCH  10  11
ENDBRANCH   9  10
ENDBRANCH   5   9
ENDBRANCH   4   5
BRANCH   3  16
HETATM   16  C           1     -35.052  -0.258 -15.101  0.00  0.00     0.274 C 
BRANCH  16  17
HETATM   17  N           1     -35.146  -0.985 -16.410  0.00  0.00    -0.067 N 
HETATM   18  H           1     -34.198  -1.047 -16.844  0.00  0.00     0.275 HD
HETATM   19  H           1     -35.519  -1.949 -16.246  0.00  0.00     0.275 HD
HETATM   20  H           1     -35.790  -0.467 -17.049  0.00  0.00     0.275 HD
ENDBRANCH  16  17
BRANCH  16  21
HETATM   21  C           1     -36.215   0.715 -14.976  0.00  0.00     0.045 C 
BRANCH  21  22
HETATM   22 Se           1     -37.853  -0.146 -15.589  0.00  0.00     0.000 Se
HETATM   23  H           1     -37.399  -1.507 -15.255  0.00  0.00     0.000 HD
ENDBRANCH  21  22
ENDBRANCH  16  21
ENDBRANCH   3  16
TORSDOF 9
ENDMDL
MODEL 7
REMARK VINA RESULT:      -5.1     13.011     14.172
REMARK  9 active torsions:
REMARK  status: ('A' for Active; 'I' for Inactive)
REMARK    1  A    between atoms: C_1  and  C_19 
REMARK       I    between atoms: C_5  and  N_6 
REMARK    2  A    between atoms: C_5  and  C_7 
REMARK    3  A    between atoms: C_7  and  C_18 
REMARK    4  A    between atoms: N_12  and  C_15 
REMARK    5  A    between atoms: Se_13  and  C_14 
REMARK    6  A    between atoms: C_14  and  C_15 
REMARK    7  A    between atoms: C_15  and  C_16 
REMARK       I    between atoms: C_16  and  N_17 
REMARK    8  A    between atoms: N_17  and  C_19 
REMARK    9  A    between atoms: C_18  and  C_19 
ROOT
HETATM    1  H           1     -21.390  -4.482  -5.616  0.00  0.00     0.163 HD
HETATM    2  O           1     -21.154  -7.510  -6.400  0.00  0.00    -0.271 OA
HETATM    3  C           1     -21.193  -6.541  -5.680  0.00  0.00     0.249 C 
HETATM    4  N           1     -21.358  -5.294  -6.219  0.00  0.00    -0.345 N 
ENDROOT
BRANCH   4   5
HETATM    5  C           1     -21.485  -5.135  -7.655  0.00  0.00     0.186 C 
BRANCH   5   6
HETATM    6  C           1     -20.135  -4.822  -8.248  0.00  0.00     0.196 C 
HETATM    7  O           1     -19.183  -4.506  -7.502  0.00  0.00    -0.646 OA
HETATM    8  O           1     -19.967  -4.877  -9.486  0.00  0.00    -0.646 OA
ENDBRANCH   5   6
BRANCH   5   9
HETATM    9  C           1     -22.451  -3.996  -7.956  0.00  0.00     0.045 C 
BRANCH   9  10
HETATM   10  C           1     -23.468  -4.452  -8.994  0.00  0.00     0.105 C 
BRANCH  10  11
HETATM   11  C           1     -23.412  -3.533 -10.190  0.00  0.00     0.215 C 
HETATM   12  O           1     -24.422  -3.010 -10.598  0.00  0.00    -0.274 OA
HETATM   13  N           1     -22.217  -3.294 -10.814  0.00  0.00    -0.370 N 
HETATM   14  H           1     -21.371  -3.733 -10.472  0.00  0.00     0.159 HD
HETATM   15  H           1     -22.180  -2.678 -11.616  0.00  0.00     0.159 HD
ENDBRANCH  10  11
ENDBRANCH   9  10
ENDBRANCH   5   9
ENDBRANCH   4   5
BRANCH   3  16
HETATM   16  C           1     -21.060  -6.706  -4.186  0.00  0.00     0.274 C 
BRANCH  16  17
HETATM   17  N           1     -22.277  -6.146  -3.511  0.00  0.00    -0.067 N 
HETATM   18  H           1     -22.599  -6.808  -2.769  0.00  0.00     0.275 HD
HETATM   19  H           1     -22.041  -5.224  -3.077  0.00  0.00     0.275 HD
HETATM   20  H           1     -23.036  -6.016  -4.217  0.00  0.00     0.275 HD
ENDBRANCH  16  17
BRANCH  16  21
HETATM   21  C           1     -20.926  -8.184  -3.847  0.00  0.00     0.045 C 
BRANCH  21  22
HETATM   22 Se           1     -20.520  -8.383  -1.951  0.00  0.00     0.000 Se
HETATM   23  H           1     -19.065  -8.249  -2.130  0.00  0.00     0.000 HD
ENDBRANCH  21  22
ENDBRANCH  16  21
ENDBRANCH   3  16
TORSDOF 9
ENDMDL
MODEL 8
REMARK VINA RESULT:      -5.0     14.464     15.540
REMARK  9 active torsions:
REMARK  status: ('A' for Active; 'I' for Inactive)
REMARK    1  A    between atoms: C_1  and  C_19 
REMARK       I    between atoms: C_5  and  N_6 
REMARK    2  A    between atoms: C_5  and  C_7 
REMARK    3  A    between atoms: C_7  and  C_18 
REMARK    4  A    between atoms: N_12  and  C_15 
REMARK    5  A    between atoms: Se_13  and  C_14 
REMARK    6  A    between atoms: C_14  and  C_15 
REMARK    7  A    between atoms: C_15  and  C_16 
REMARK       I    between atoms: C_16  and  N_17 
REMARK    8  A    between atoms: N_17  and  C_19 
REMARK    9  A    between atoms: C_18  and  C_19 
ROOT
HETATM    1  H           1     -21.699  -7.076  -6.936  0.00  0.00     0.163 HD
HETATM    2  O           1     -20.455  -4.331  -6.066  0.00  0.00    -0.271 OA
HETATM    3  C           1     -21.012  -5.130  -6.781  0.00  0.00     0.249 C 
HETATM    4  N           1     -21.233  -6.407  -6.338  0.00  0.00    -0.345 N 
ENDROOT
BRANCH   4   5
HETATM    5  C           1     -20.796  -6.800  -5.012  0.00  0.00     0.186 C 
BRANCH   5   6
HETATM    6  C           1     -20.250  -8.205  -5.059  0.00  0.00     0.196 C 
HETATM    7  O           1     -20.781  -9.105  -4.372  0.00  0.00    -0.646 OA
HETATM    8  O           1     -19.267  -8.470  -5.783  0.00  0.00    -0.646 OA
ENDBRANCH   5   6
BRANCH   5   9
HETATM    9  C           1     -21.978  -6.744  -4.052  0.00  0.00     0.045 C 
BRANCH   9  10
HETATM   10  C           1     -21.537  -6.107  -2.741  0.00  0.00     0.105 C 
BRANCH  10  11
HETATM   11  C           1     -21.842  -7.044  -1.597  0.00  0.00     0.215 C 
HETATM   12  O           1     -22.736  -6.786  -0.826  0.00  0.00    -0.274 OA
HETATM   13  N           1     -21.106  -8.187  -1.435  0.00  0.00    -0.370 N 
HETATM   14  H           1     -20.358  -8.403  -2.082  0.00  0.00     0.159 HD
HETATM   15  H           1     -21.311  -8.816  -0.669  0.00  0.00     0.159 HD
ENDBRANCH  10  11
ENDBRANCH   9  10
ENDBRANCH   5   9
ENDBRANCH   4   5
BRANCH   3  16
HETATM   16  C           1     -21.466  -4.721  -8.160  0.00  0.00     0.274 C 
BRANCH  16  17
HETATM   17  N           1     -22.391  -3.545  -8.054  0.00  0.00    -0.067 N 
HETATM   18  H           1     -22.833  -3.364  -8.983  0.00  0.00     0.275 HD
HETATM   19  H           1     -23.135  -3.751  -7.349  0.00  0.00     0.275 HD
HETATM   20  H           1     -21.850  -2.703  -7.754  0.00  0.00     0.275 HD
ENDBRANCH  16  17
BRANCH  16  21
HETATM   21  C           1     -20.255  -4.340  -9.001  0.00  0.00     0.045 C 
BRANCH  21  22
HETATM   22 Se           1     -20.799  -4.121 -10.860  0.00  0.00     0.000 Se
HETATM   23  H           1     -20.235  -5.409 -11.297  0.00  0.00     0.000 HD
ENDBRANCH  21  22
ENDBRANCH  16  21
ENDBRANCH   3  16
TORSDOF 9
ENDMDL
MODEL 9
REMARK VINA RESULT:      -5.0     11.097     12.424
REMARK  9 active torsions:
REMARK  status: ('A' for Active; 'I' for Inactive)
REMARK    1  A    between atoms: C_1  and  C_19 
REMARK       I    between atoms: C_5  and  N_6 
REMARK    2  A    between atoms: C_5  and  C_7 
REMARK    3  A    between atoms: C_7  and  C_18 
REMARK    4  A    between atoms: N_12  and  C_15 
REMARK    5  A    between atoms: Se_13  and  C_14 
REMARK    6  A    between atoms: C_14  and  C_15 
REMARK    7  A    between atoms: C_15  and  C_16 
REMARK       I    between atoms: C_16  and  N_17 
REMARK    8  A    between atoms: N_17  and  C_19 
REMARK    9  A    between atoms: C_18  and  C_19 
ROOT
HETATM    1  H           1     -37.840  -0.767 -13.091  0.00  0.00     0.163 HD
HETATM    2  O           1     -35.333   0.962 -13.840  0.00  0.00    -0.271 OA
HETATM    3  C           1     -36.406   0.427 -13.985  0.00  0.00     0.249 C 
HETATM    4  N           1     -36.941  -0.319 -12.970  0.00  0.00    -0.345 N 
ENDROOT
BRANCH   4   5
HETATM    5  C           1     -36.220  -0.467 -11.721  0.00  0.00     0.186 C 
BRANCH   5   6
HETATM    6  C           1     -35.198  -1.567 -11.858  0.00  0.00     0.196 C 
HETATM    7  O           1     -35.471  -2.597 -12.511  0.00  0.00    -0.646 OA
HETATM    8  O           1     -34.076  -1.449 -11.319  0.00  0.00    -0.646 OA
ENDBRANCH   5   6
BRANCH   5   9
HETATM    9  C           1     -37.200  -0.819 -10.608  0.00  0.00     0.045 C 
BRANCH   9  10
HETATM   10  C           1     -37.479   0.418  -9.766  0.00  0.00     0.105 C 
BRANCH  10  11
HETATM   11  C           1     -36.945   0.208  -8.370  0.00  0.00     0.215 C 
HETATM   12  O           1     -35.769   0.369  -8.142  0.00  0.00    -0.274 OA
HETATM   13  N           1     -37.793  -0.164  -7.362  0.00  0.00    -0.370 N 
HETATM   14  H           1     -38.778  -0.299  -7.553  0.00  0.00     0.159 HD
HETATM   15  H           1     -37.435  -0.306  -6.426  0.00  0.00     0.159 HD
ENDBRANCH  10  11
ENDBRANCH   9  10
ENDBRANCH   5   9
ENDBRANCH   4   5
BRANCH   3  16
HETATM   16  C           1     -37.156   0.581 -15.285  0.00  0.00     0.274 C 
BRANCH  16  17
HETATM   17  N           1     -36.445   1.572 -16.158  0.00  0.00    -0.067 N 
HETATM   18  H           1     -35.889   1.063 -16.882  0.00  0.00     0.275 HD
HETATM   19  H           1     -37.147   2.188 -16.628  0.00  0.00     0.275 HD
HETATM   20  H           1     -35.806   2.156 -15.572  0.00  0.00     0.275 HD
ENDBRANCH  16  17
BRANCH  16  21
HETATM   21  C           1     -37.224  -0.764 -15.995  0.00  0.00     0.045 C 
BRANCH  21  22
HETATM   22 Se           1     -35.432  -1.304 -16.538  0.00  0.00     0.000 Se
HETATM   23  H           1     -35.769  -1.402 -17.968  0.00  0.00     0.000 HD
ENDBRANCH  21  22
ENDBRANCH  16  21
ENDBRANCH   3  16
TORSDOF 9
ENDMDL
