MODEL 1
REMARK VINA RESULT:      -6.7      0.000      0.000
REMARK  7 active torsions:
REMARK  status: ('A' for Active; 'I' for Inactive)
REMARK    1  A    between atoms: N_4  and  C_14 
REMARK    2  A    between atoms: N_5  and  C_12 
REMARK       I    between atoms: N_5  and  C_6 
REMARK    3  A    between atoms: C_6  and  C_14 
REMARK    4  A    between atoms: C_9  and  C_12 
REMARK    5  A    between atoms: C_9  and  C_16 
REMARK    6  A    between atoms: C_12  and  C_23 
REMARK    7  A    between atoms: C_14  and  C_17 
ROOT
HETATM    1  N           1     -35.553  -1.296 -10.070  0.00  0.00    -0.344 N 
HETATM    2  C           1     -34.461  -1.928 -10.600  0.00  0.00     0.249 C 
HETATM    3  O           1     -33.350  -1.508 -10.373  0.00  0.00    -0.271 OA
HETATM    4  H           1     -35.909  -1.574  -9.165  0.00  0.00     0.163 HD
ENDROOT
BRANCH   1   5
HETATM    5  C           1     -36.201  -0.227 -10.807  0.00  0.00     0.191 C 
BRANCH   5   6
HETATM    6  C           1     -37.205  -0.821 -11.785  0.00  0.00     0.094 C 
BRANCH   6   7
HETATM    7  C           1     -36.996  -0.223 -13.141  0.00  0.00     0.028 A 
HETATM    8  N           1     -37.932  -0.218 -14.143  0.00  0.00    -0.354 N 
HETATM    9  C           1     -37.356   0.395 -15.152  0.00  0.00     0.180 A 
ATOM     10  HN          1     -38.875  -0.607 -14.111  1.00  0.00     0.166 HD
HETATM   11  N           1     -36.085   0.784 -14.841  0.00  0.00    -0.360 N 
HETATM   12  H           1     -35.417   1.291 -15.474  0.00  0.00     0.166 HD
HETATM   13  C           1     -35.839   0.395 -13.553  0.00  0.00     0.114 A 
ENDBRANCH   6   7
ENDBRANCH   5   6
BRANCH   5  14
HETATM   14  C           1     -36.916   0.686  -9.842  0.00  0.00     0.197 C 
HETATM   15  O           1     -36.354   1.041  -8.784  0.00  0.00    -0.646 OA
HETATM   16  O           1     -38.071   1.087 -10.102  0.00  0.00    -0.646 OA
ENDBRANCH   5  14
ENDBRANCH   1   5
BRANCH   2  17
HETATM   17  C           1     -34.642  -3.147 -11.469  0.00  0.00     0.278 C 
BRANCH  17  18
HETATM   18  N           1     -34.322  -2.799 -12.893  0.00  0.00    -0.066 N 
HETATM   19  H           1     -34.753  -3.507 -13.530  0.00  0.00     0.275 HD
HETATM   20  H           1     -34.704  -1.853 -13.114  0.00  0.00     0.275 HD
HETATM   21  H           1     -33.285  -2.797 -13.025  0.00  0.00     0.275 HD
ENDBRANCH  17  18
BRANCH  17  22
HETATM   22  C           1     -33.709  -4.253 -10.995  0.00  0.00     0.017 C 
HETATM   23  C           1     -32.583  -4.434 -12.004  0.00  0.00     0.012 C 
HETATM   24  C           1     -34.488  -5.556 -10.868  0.00  0.00     0.012 C 
ENDBRANCH  17  22
ENDBRANCH   2  17
TORSDOF 7
ENDMDL
MODEL 2
REMARK VINA RESULT:      -6.3      1.729      2.365
REMARK  7 active torsions:
REMARK  status: ('A' for Active; 'I' for Inactive)
REMARK    1  A    between atoms: N_4  and  C_14 
REMARK    2  A    between atoms: N_5  and  C_12 
REMARK       I    between atoms: N_5  and  C_6 
REMARK    3  A    between atoms: C_6  and  C_14 
REMARK    4  A    between atoms: C_9  and  C_12 
REMARK    5  A    between atoms: C_9  and  C_16 
REMARK    6  A    between atoms: C_12  and  C_23 
REMARK    7  A    between atoms: C_14  and  C_17 
ROOT
HETATM    1  N           1     -34.905  -1.290 -13.225  0.00  0.00    -0.344 N 
HETATM    2  C           1     -34.898  -2.308 -12.310  0.00  0.00     0.249 C 
HETATM    3  O           1     -35.938  -2.820 -11.968  0.00  0.00    -0.271 OA
HETATM    4  H           1     -34.832  -1.498 -14.213  0.00  0.00     0.163 HD
ENDROOT
BRANCH   1   5
HETATM    5  C           1     -35.015   0.086 -12.779  0.00  0.00     0.191 C 
BRANCH   5   6
HETATM    6  C           1     -35.199   0.997 -13.985  0.00  0.00     0.094 C 
BRANCH   6   7
HETATM    7  C           1     -36.059   0.314 -15.002  0.00  0.00     0.028 A 
HETATM    8  N           1     -37.425   0.412 -15.059  0.00  0.00    -0.354 N 
HETATM    9  C           1     -37.782  -0.329 -16.083  0.00  0.00     0.180 A 
ATOM     10  HN          1     -38.034   0.948 -14.440  1.00  0.00     0.166 HD
HETATM   11  N           1     -36.701  -0.903 -16.688  0.00  0.00    -0.360 N 
HETATM   12  H           1     -36.720  -1.537 -17.524  0.00  0.00     0.166 HD
HETATM   13  C           1     -35.587  -0.499 -16.005  0.00  0.00     0.114 A 
ENDBRANCH   6   7
ENDBRANCH   5   6
BRANCH   5  14
HETATM   14  C           1     -36.202   0.222 -11.858  0.00  0.00     0.197 C 
HETATM   15  O           1     -36.032   0.545 -10.663  0.00  0.00    -0.646 OA
HETATM   16  O           1     -37.355   0.010 -12.291  0.00  0.00    -0.646 OA
ENDBRANCH   5  14
ENDBRANCH   1   5
BRANCH   2  17
HETATM   17  C           1     -33.593  -2.789 -11.726  0.00  0.00     0.278 C 
BRANCH  17  18
HETATM   18  N           1     -33.517  -2.396 -10.280  0.00  0.00    -0.066 N 
HETATM   19  H           1     -32.661  -1.818 -10.120  0.00  0.00     0.275 HD
HETATM   20  H           1     -34.364  -1.841 -10.026  0.00  0.00     0.275 HD
HETATM   21  H           1     -33.471  -3.256  -9.688  0.00  0.00     0.275 HD
ENDBRANCH  17  18
BRANCH  17  22
HETATM   22  C           1     -33.511  -4.305 -11.844  0.00  0.00     0.017 C 
HETATM   23  C           1     -33.921  -4.940 -10.523  0.00  0.00     0.012 C 
HETATM   24  C           1     -32.082  -4.711 -12.180  0.00  0.00     0.012 C 
ENDBRANCH  17  22
ENDBRANCH   2  17
TORSDOF 7
ENDMDL
MODEL 3
REMARK VINA RESULT:      -6.2      2.019      5.367
REMARK  7 active torsions:
REMARK  status: ('A' for Active; 'I' for Inactive)
REMARK    1  A    between atoms: N_4  and  C_14 
REMARK    2  A    between atoms: N_5  and  C_12 
REMARK       I    between atoms: N_5  and  C_6 
REMARK    3  A    between atoms: C_6  and  C_14 
REMARK    4  A    between atoms: C_9  and  C_12 
REMARK    5  A    between atoms: C_9  and  C_16 
REMARK    6  A    between atoms: C_12  and  C_23 
REMARK    7  A    between atoms: C_14  and  C_17 
ROOT
HETATM    1  N           1     -34.646  -1.484 -12.427  0.00  0.00    -0.344 N 
HETATM    2  C           1     -35.274  -0.380 -12.938  0.00  0.00     0.249 C 
HETATM    3  O           1     -35.092   0.705 -12.438  0.00  0.00    -0.271 OA
HETATM    4  H           1     -33.738  -1.757 -12.778  0.00  0.00     0.163 HD
ENDROOT
BRANCH   1   5
HETATM    5  C           1     -35.284  -2.263 -11.383  0.00  0.00     0.191 C 
BRANCH   5   6
HETATM    6  C           1     -34.227  -2.785 -10.421  0.00  0.00     0.094 C 
BRANCH   6   7
HETATM    7  C           1     -33.936  -4.221 -10.728  0.00  0.00     0.028 A 
HETATM    8  N           1     -34.645  -5.283 -10.230  0.00  0.00    -0.354 N 
HETATM    9  C           1     -34.071  -6.350 -10.738  0.00  0.00     0.180 A 
ATOM     10  HN          1     -35.446  -5.252  -9.599  1.00  0.00     0.166 HD
HETATM   11  N           1     -33.020  -6.018 -11.544  0.00  0.00    -0.360 N 
HETATM   12  H           1     -32.402  -6.687 -12.066  0.00  0.00     0.166 HD
HETATM   13  C           1     -32.921  -4.654 -11.548  0.00  0.00     0.114 A 
ENDBRANCH   6   7
ENDBRANCH   5   6
BRANCH   5  14
HETATM   14  C           1     -36.263  -1.392 -10.634  0.00  0.00     0.197 C 
HETATM   15  O           1     -35.878  -0.721  -9.652  0.00  0.00    -0.646 OA
HETATM   16  O           1     -37.458  -1.342 -10.996  0.00  0.00    -0.646 OA
ENDBRANCH   5  14
ENDBRANCH   1   5
BRANCH   2  17
HETATM   17  C           1     -36.195  -0.518 -14.126  0.00  0.00     0.278 C 
BRANCH  17  18
HETATM   18  N           1     -37.442   0.281 -13.886  0.00  0.00    -0.066 N 
HETATM   19  H           1     -37.295   0.921 -13.073  0.00  0.00     0.275 HD
HETATM   20  H           1     -37.663   0.844 -14.738  0.00  0.00     0.275 HD
HETATM   21  H           1     -38.235  -0.368 -13.679  0.00  0.00     0.275 HD
ENDBRANCH  17  18
BRANCH  17  22
HETATM   22  C           1     -35.494  -0.001 -15.375  0.00  0.00     0.017 C 
HETATM   23  C           1     -36.004   1.396 -15.702  0.00  0.00     0.012 C 
HETATM   24  C           1     -35.786  -0.934 -16.544  0.00  0.00     0.012 C 
ENDBRANCH  17  22
ENDBRANCH   2  17
TORSDOF 7
ENDMDL
MODEL 4
REMARK VINA RESULT:      -6.1      9.689     12.854
REMARK  7 active torsions:
REMARK  status: ('A' for Active; 'I' for Inactive)
REMARK    1  A    between atoms: N_4  and  C_14 
REMARK    2  A    between atoms: N_5  and  C_12 
REMARK       I    between atoms: N_5  and  C_6 
REMARK    3  A    between atoms: C_6  and  C_14 
REMARK    4  A    between atoms: C_9  and  C_12 
REMARK    5  A    between atoms: C_9  and  C_16 
REMARK    6  A    between atoms: C_12  and  C_23 
REMARK    7  A    between atoms: C_14  and  C_17 
ROOT
HETATM    1  N           1     -26.928  -5.942 -16.931  0.00  0.00    -0.344 N 
HETATM    2  C           1     -28.162  -6.355 -16.505  0.00  0.00     0.249 C 
HETATM    3  O           1     -28.367  -6.529 -15.327  0.00  0.00    -0.271 OA
HETATM    4  H           1     -26.724  -4.955 -17.009  0.00  0.00     0.163 HD
ENDROOT
BRANCH   1   5
HETATM    5  C           1     -25.914  -6.922 -17.272  0.00  0.00     0.191 C 
BRANCH   5   6
HETATM    6  C           1     -25.049  -6.384 -18.403  0.00  0.00     0.094 C 
BRANCH   6   7
HETATM    7  C           1     -25.293  -7.185 -19.644  0.00  0.00     0.028 A 
HETATM    8  N           1     -26.531  -7.458 -20.165  0.00  0.00    -0.354 N 
HETATM    9  C           1     -26.304  -8.177 -21.240  0.00  0.00     0.180 A 
ATOM     10  HN          1     -27.436  -7.164 -19.796  1.00  0.00     0.166 HD
HETATM   11  N           1     -24.967  -8.380 -21.433  0.00  0.00    -0.360 N 
HETATM   12  H           1     -24.528  -8.920 -22.219  0.00  0.00     0.166 HD
HETATM   13  C           1     -24.305  -7.749 -20.417  0.00  0.00     0.114 A 
ENDBRANCH   6   7
ENDBRANCH   5   6
BRANCH   5  14
HETATM   14  C           1     -25.053  -7.195 -16.064  0.00  0.00     0.197 C 
HETATM   15  O           1     -24.310  -8.200 -16.038  0.00  0.00    -0.646 OA
HETATM   16  O           1     -25.083  -6.415 -15.087  0.00  0.00    -0.646 OA
ENDBRANCH   5  14
ENDBRANCH   1   5
BRANCH   2  17
HETATM   17  C           1     -29.266  -6.592 -17.506  0.00  0.00     0.278 C 
BRANCH  17  18
HETATM   18  N           1     -29.465  -8.067 -17.689  0.00  0.00    -0.066 N 
HETATM   19  H           1     -30.394  -8.345 -17.298  0.00  0.00     0.275 HD
HETATM   20  H           1     -29.432  -8.300 -18.707  0.00  0.00     0.275 HD
HETATM   21  H           1     -28.709  -8.586 -17.187  0.00  0.00     0.275 HD
ENDBRANCH  17  18
BRANCH  17  22
HETATM   22  C           1     -30.557  -5.965 -16.998  0.00  0.00     0.017 C 
HETATM   23  C           1     -31.748  -6.710 -17.585  0.00  0.00     0.012 C 
HETATM   24  C           1     -30.613  -4.503 -17.424  0.00  0.00     0.012 C 
ENDBRANCH  17  22
ENDBRANCH   2  17
TORSDOF 7
ENDMDL
MODEL 5
REMARK VINA RESULT:      -6.0      9.252     11.778
REMARK  7 active torsions:
REMARK  status: ('A' for Active; 'I' for Inactive)
REMARK    1  A    between atoms: N_4  and  C_14 
REMARK    2  A    between atoms: N_5  and  C_12 
REMARK       I    between atoms: N_5  and  C_6 
REMARK    3  A    between atoms: C_6  and  C_14 
REMARK    4  A    between atoms: C_9  and  C_12 
REMARK    5  A    between atoms: C_9  and  C_16 
REMARK    6  A    between atoms: C_12  and  C_23 
REMARK    7  A    between atoms: C_14  and  C_17 
ROOT
HETATM    1  N           1     -26.523  -6.974 -17.577  0.00  0.00    -0.344 N 
HETATM    2  C           1     -25.161  -6.878 -17.490  0.00  0.00     0.249 C 
HETATM    3  O           1     -24.613  -7.013 -16.421  0.00  0.00    -0.271 OA
HETATM    4  H           1     -26.957  -7.870 -17.755  0.00  0.00     0.163 HD
ENDROOT
BRANCH   1   5
HETATM    5  C           1     -27.345  -5.790 -17.417  0.00  0.00     0.191 C 
BRANCH   5   6
HETATM    6  C           1     -28.497  -5.832 -18.411  0.00  0.00     0.094 C 
BRANCH   6   7
HETATM    7  C           1     -29.644  -5.028 -17.883  0.00  0.00     0.028 A 
HETATM    8  N           1     -30.672  -5.538 -17.133  0.00  0.00    -0.354 N 
HETATM    9  C           1     -31.456  -4.515 -16.880  0.00  0.00     0.180 A 
ATOM     10  HN          1     -30.801  -6.505 -16.835  1.00  0.00     0.166 HD
HETATM   11  N           1     -30.974  -3.365 -17.438  0.00  0.00    -0.360 N 
HETATM   12  H           1     -31.415  -2.414 -17.380  0.00  0.00     0.166 HD
HETATM   13  C           1     -29.811  -3.679 -18.085  0.00  0.00     0.114 A 
ENDBRANCH   6   7
ENDBRANCH   5   6
BRANCH   5  14
HETATM   14  C           1     -27.893  -5.746 -16.012  0.00  0.00     0.197 C 
HETATM   15  O           1     -27.962  -4.658 -15.400  0.00  0.00    -0.646 OA
HETATM   16  O           1     -28.279  -6.799 -15.459  0.00  0.00    -0.646 OA
ENDBRANCH   5  14
ENDBRANCH   1   5
BRANCH   2  17
HETATM   17  C           1     -24.342  -6.603 -18.727  0.00  0.00     0.278 C 
BRANCH  17  18
HETATM   18  N           1     -22.964  -7.169 -18.550  0.00  0.00    -0.066 N 
HETATM   19  H           1     -22.575  -6.858 -17.631  0.00  0.00     0.275 HD
HETATM   20  H           1     -23.011  -8.212 -18.574  0.00  0.00     0.275 HD
HETATM   21  H           1     -22.347  -6.828 -19.322  0.00  0.00     0.275 HD
ENDBRANCH  17  18
BRANCH  17  22
HETATM   22  C           1     -25.007  -7.254 -19.932  0.00  0.00     0.017 C 
HETATM   23  C           1     -23.982  -8.087 -20.689  0.00  0.00     0.012 C 
HETATM   24  C           1     -25.561  -6.173 -20.852  0.00  0.00     0.012 C 
ENDBRANCH  17  22
ENDBRANCH   2  17
TORSDOF 7
ENDMDL
MODEL 6
REMARK VINA RESULT:      -6.0      2.484      5.174
REMARK  7 active torsions:
REMARK  status: ('A' for Active; 'I' for Inactive)
REMARK    1  A    between atoms: N_4  and  C_14 
REMARK    2  A    between atoms: N_5  and  C_12 
REMARK       I    between atoms: N_5  and  C_6 
REMARK    3  A    between atoms: C_6  and  C_14 
REMARK    4  A    between atoms: C_9  and  C_12 
REMARK    5  A    between atoms: C_9  and  C_16 
REMARK    6  A    between atoms: C_12  and  C_23 
REMARK    7  A    between atoms: C_14  and  C_17 
ROOT
HETATM    1  N           1     -36.315  -1.248 -12.164  0.00  0.00    -0.344 N 
HETATM    2  C           1     -35.648  -0.882 -13.302  0.00  0.00     0.249 C 
HETATM    3  O           1     -34.959  -1.686 -13.884  0.00  0.00    -0.271 OA
HETATM    4  H           1     -37.251  -1.626 -12.225  0.00  0.00     0.163 HD
ENDROOT
BRANCH   1   5
HETATM    5  C           1     -35.678  -1.094 -10.870  0.00  0.00     0.191 C 
BRANCH   5   6
HETATM    6  C           1     -36.708  -1.306  -9.769  0.00  0.00     0.094 C 
BRANCH   6   7
HETATM    7  C           1     -37.043   0.009  -9.137  0.00  0.00     0.028 A 
HETATM    8  N           1     -38.000   0.874  -9.599  0.00  0.00    -0.354 N 
HETATM    9  C           1     -37.975   1.893  -8.771  0.00  0.00     0.180 A 
ATOM     10  HN          1     -38.603   0.752 -10.413  1.00  0.00     0.166 HD
HETATM   11  N           1     -37.039   1.719  -7.792  0.00  0.00    -0.360 N 
HETATM   12  H           1     -36.824   2.387  -7.011  0.00  0.00     0.166 HD
HETATM   13  C           1     -36.432   0.514  -8.013  0.00  0.00     0.114 A 
ENDBRANCH   6   7
ENDBRANCH   5   6
BRANCH   5  14
HETATM   14  C           1     -34.572  -2.110 -10.730  0.00  0.00     0.197 C 
HETATM   15  O           1     -34.831  -3.331 -10.804  0.00  0.00    -0.646 OA
HETATM   16  O           1     -33.396  -1.731 -10.539  0.00  0.00    -0.646 OA
ENDBRANCH   5  14
ENDBRANCH   1   5
BRANCH   2  17
HETATM   17  C           1     -35.774   0.526 -13.830  0.00  0.00     0.278 C 
BRANCH  17  18
HETATM   18  N           1     -34.467   1.242 -13.658  0.00  0.00    -0.066 N 
HETATM   19  H           1     -34.644   2.209 -13.302  0.00  0.00     0.275 HD
HETATM   20  H           1     -33.873   0.723 -12.974  0.00  0.00     0.275 HD
HETATM   21  H           1     -33.976   1.296 -14.579  0.00  0.00     0.275 HD
ENDBRANCH  17  18
BRANCH  17  22
HETATM   22  C           1     -36.139   0.484 -15.308  0.00  0.00     0.017 C 
HETATM   23  C           1     -35.892   1.852 -15.930  0.00  0.00     0.012 C 
HETATM   24  C           1     -37.609   0.117 -15.458  0.00  0.00     0.012 C 
ENDBRANCH  17  22
ENDBRANCH   2  17
TORSDOF 7
ENDMDL
MODEL 7
REMARK VINA RESULT:      -5.9     13.747     15.705
REMARK  7 active torsions:
REMARK  status: ('A' for Active; 'I' for Inactive)
REMARK    1  A    between atoms: N_4  and  C_14 
REMARK    2  A    between atoms: N_5  and  C_12 
REMARK       I    between atoms: N_5  and  C_6 
REMARK    3  A    between atoms: C_6  and  C_14 
REMARK    4  A    between atoms: C_9  and  C_12 
REMARK    5  A    between atoms: C_9  and  C_16 
REMARK    6  A    between atoms: C_12  and  C_23 
REMARK    7  A    between atoms: C_14  and  C_17 
ROOT
HETATM    1  N           1     -22.029  -4.774  -6.297  0.00  0.00    -0.344 N 
HETATM    2  C           1     -21.312  -5.439  -5.340  0.00  0.00     0.249 C 
HETATM    3  O           1     -20.307  -4.945  -4.885  0.00  0.00    -0.271 OA
HETATM    4  H           1     -22.768  -4.139  -6.026  0.00  0.00     0.163 HD
ENDROOT
BRANCH   1   5
HETATM    5  C           1     -21.728  -4.980  -7.701  0.00  0.00     0.191 C 
BRANCH   5   6
HETATM    6  C           1     -22.247  -3.798  -8.510  0.00  0.00     0.094 C 
BRANCH   6   7
HETATM    7  C           1     -22.534  -4.239  -9.911  0.00  0.00     0.028 A 
HETATM    8  N           1     -23.693  -4.851 -10.314  0.00  0.00    -0.354 N 
HETATM    9  C           1     -23.540  -5.068 -11.600  0.00  0.00     0.180 A 
ATOM     10  HN          1     -24.500  -5.088  -9.737  1.00  0.00     0.166 HD
HETATM   11  N           1     -22.328  -4.620 -12.043  0.00  0.00    -0.360 N 
HETATM   12  H           1     -21.968  -4.675 -13.028  0.00  0.00     0.166 HD
HETATM   13  C           1     -21.671  -4.085 -10.970  0.00  0.00     0.114 A 
ENDBRANCH   6   7
ENDBRANCH   5   6
BRANCH   5  14
HETATM   14  C           1     -20.235  -5.099  -7.883  0.00  0.00     0.197 C 
HETATM   15  O           1     -19.540  -4.072  -8.037  0.00  0.00    -0.646 OA
HETATM   16  O           1     -19.694  -6.226  -7.880  0.00  0.00    -0.646 OA
ENDBRANCH   5  14
ENDBRANCH   1   5
BRANCH   2  17
HETATM   17  C           1     -21.775  -6.790  -4.853  0.00  0.00     0.278 C 
BRANCH  17  18
HETATM   18  N           1     -21.258  -7.857  -5.771  0.00  0.00    -0.066 N 
HETATM   19  H           1     -21.838  -7.881  -6.640  0.00  0.00     0.275 HD
HETATM   20  H           1     -20.265  -7.650  -6.021  0.00  0.00     0.275 HD
HETATM   21  H           1     -21.312  -8.784  -5.292  0.00  0.00     0.275 HD
ENDBRANCH  17  18
BRANCH  17  22
HETATM   22  C           1     -21.247  -7.032  -3.445  0.00  0.00     0.017 C 
HETATM   23  C           1     -21.236  -8.527  -3.158  0.00  0.00     0.012 C 
HETATM   24  C           1     -22.146  -6.329  -2.437  0.00  0.00     0.012 C 
ENDBRANCH  17  22
ENDBRANCH   2  17
TORSDOF 7
ENDMDL
MODEL 8
REMARK VINA RESULT:      -5.9     13.718     16.436
REMARK  7 active torsions:
REMARK  status: ('A' for Active; 'I' for Inactive)
REMARK    1  A    between atoms: N_4  and  C_14 
REMARK    2  A    between atoms: N_5  and  C_12 
REMARK       I    between atoms: N_5  and  C_6 
REMARK    3  A    between atoms: C_6  and  C_14 
REMARK    4  A    between atoms: C_9  and  C_12 
REMARK    5  A    between atoms: C_9  and  C_16 
REMARK    6  A    between atoms: C_12  and  C_23 
REMARK    7  A    between atoms: C_14  and  C_17 
ROOT
HETATM    1  N           1     -21.676  -3.763  -7.322  0.00  0.00    -0.344 N 
HETATM    2  C           1     -22.623  -4.177  -8.220  0.00  0.00     0.249 C 
HETATM    3  O           1     -23.795  -4.122  -7.930  0.00  0.00    -0.271 OA
HETATM    4  H           1     -21.369  -2.799  -7.319  0.00  0.00     0.163 HD
ENDROOT
BRANCH   1   5
HETATM    5  C           1     -21.112  -4.707  -6.377  0.00  0.00     0.191 C 
BRANCH   5   6
HETATM    6  C           1     -22.112  -5.827  -6.120  0.00  0.00     0.094 C 
BRANCH   6   7
HETATM    7  C           1     -21.796  -6.490  -4.816  0.00  0.00     0.028 A 
HETATM    8  N           1     -21.570  -5.824  -3.638  0.00  0.00    -0.354 N 
HETATM    9  C           1     -21.332  -6.763  -2.751  0.00  0.00     0.180 A 
ATOM     10  HN          1     -21.584  -4.816  -3.484  1.00  0.00     0.166 HD
HETATM   11  N           1     -21.396  -8.008  -3.310  0.00  0.00    -0.360 N 
HETATM   12  H           1     -21.245  -8.920  -2.813  0.00  0.00     0.166 HD
HETATM   13  C           1     -21.693  -7.848  -4.635  0.00  0.00     0.114 A 
ENDBRANCH   6   7
ENDBRANCH   5   6
BRANCH   5  14
HETATM   14  C           1     -19.840  -5.287  -6.944  0.00  0.00     0.197 C 
HETATM   15  O           1     -18.821  -4.572  -7.056  0.00  0.00    -0.646 OA
HETATM   16  O           1     -19.806  -6.484  -7.304  0.00  0.00    -0.646 OA
ENDBRANCH   5  14
ENDBRANCH   1   5
BRANCH   2  17
HETATM   17  C           1     -22.204  -4.701  -9.571  0.00  0.00     0.278 C 
BRANCH  17  18
HETATM   18  N           1     -23.368  -4.638 -10.515  0.00  0.00    -0.066 N 
HETATM   19  H           1     -23.532  -3.646 -10.801  0.00  0.00     0.275 HD
HETATM   20  H           1     -23.163  -5.215 -11.361  0.00  0.00     0.275 HD
HETATM   21  H           1     -24.222  -5.007 -10.039  0.00  0.00     0.275 HD
ENDBRANCH  17  18
BRANCH  17  22
HETATM   22  C           1     -21.064  -3.852 -10.115  0.00  0.00     0.017 C 
HETATM   23  C           1     -21.545  -3.076 -11.334  0.00  0.00     0.012 C 
HETATM   24  C           1     -19.904  -4.755 -10.515  0.00  0.00     0.012 C 
ENDBRANCH  17  22
ENDBRANCH   2  17
TORSDOF 7
ENDMDL
MODEL 9
REMARK VINA RESULT:      -5.7     13.394     16.084
REMARK  7 active torsions:
REMARK  status: ('A' for Active; 'I' for Inactive)
REMARK    1  A    between atoms: N_4  and  C_14 
REMARK    2  A    between atoms: N_5  and  C_12 
REMARK       I    between atoms: N_5  and  C_6 
REMARK    3  A    between atoms: C_6  and  C_14 
REMARK    4  A    between atoms: C_9  and  C_12 
REMARK    5  A    between atoms: C_9  and  C_16 
REMARK    6  A    between atoms: C_12  and  C_23 
REMARK    7  A    between atoms: C_14  and  C_17 
ROOT
HETATM    1  N           1     -21.801  -6.939  -6.348  0.00  0.00    -0.344 N 
HETATM    2  C           1     -22.201  -6.574  -5.090  0.00  0.00     0.249 C 
HETATM    3  O           1     -23.333  -6.193  -4.904  0.00  0.00    -0.271 OA
HETATM    4  H           1     -21.904  -7.898  -6.653  0.00  0.00     0.163 HD
ENDROOT
BRANCH   1   5
HETATM    5  C           1     -21.228  -5.950  -7.241  0.00  0.00     0.191 C 
BRANCH   5   6
HETATM    6  C           1     -21.869  -4.595  -6.976  0.00  0.00     0.094 C 
BRANCH   6   7
HETATM    7  C           1     -22.623  -4.152  -8.191  0.00  0.00     0.028 A 
HETATM    8  N           1     -23.978  -3.947  -8.236  0.00  0.00    -0.354 N 
HETATM    9  C           1     -24.231  -3.571  -9.468  0.00  0.00     0.180 A 
ATOM     10  HN          1     -24.647  -4.063  -7.474  1.00  0.00     0.166 HD
HETATM   11  N           1     -23.092  -3.525 -10.221  0.00  0.00    -0.360 N 
HETATM   12  H           1     -23.027  -3.255 -11.234  0.00  0.00     0.166 HD
HETATM   13  C           1     -22.052  -3.895  -9.415  0.00  0.00     0.114 A 
ENDBRANCH   6   7
ENDBRANCH   5   6
BRANCH   5  14
HETATM   14  C           1     -19.741  -5.860  -7.004  0.00  0.00     0.197 C 
HETATM   15  O           1     -19.063  -6.903  -6.879  0.00  0.00    -0.646 OA
HETATM   16  O           1     -19.187  -4.742  -6.932  0.00  0.00    -0.646 OA
ENDBRANCH   5  14
ENDBRANCH   1   5
BRANCH   2  17
HETATM   17  C           1     -21.230  -6.647  -3.938  0.00  0.00     0.278 C 
BRANCH  17  18
HETATM   18  N           1     -21.737  -5.806  -2.804  0.00  0.00    -0.066 N 
HETATM   19  H           1     -22.774  -5.702  -2.883  0.00  0.00     0.275 HD
HETATM   20  H           1     -21.501  -6.266  -1.897  0.00  0.00     0.275 HD
HETATM   21  H           1     -21.289  -4.862  -2.844  0.00  0.00     0.275 HD
ENDBRANCH  17  18
BRANCH  17  22
HETATM   22  C           1     -21.095  -8.092  -3.477  0.00  0.00     0.017 C 
HETATM   23  C           1     -21.179  -8.149  -1.958  0.00  0.00     0.012 C 
HETATM   24  C           1     -19.751  -8.646  -3.932  0.00  0.00     0.012 C 
ENDBRANCH  17  22
ENDBRANCH   2  17
TORSDOF 7
ENDMDL
