MODEL 1
REMARK VINA RESULT:      -5.2      0.000      0.000
REMARK  6 active torsions:
REMARK  status: ('A' for Active; 'I' for Inactive)
REMARK    1  A    between atoms: Se_2  and  C_3 
REMARK    2  A    between atoms: C_3  and  C_5 
REMARK    3  A    between atoms: C_5  and  C_6 
REMARK    4  A    between atoms: C_5  and  N_9 
REMARK       I    between atoms: N_9  and  C_14 
REMARK    5  A    between atoms: N_11  and  C_15 
REMARK    6  A    between atoms: C_14  and  C_15 
ROOT
HETATM    1  H           1     -27.383  -6.923 -18.632  0.00  0.00     0.163 HD
HETATM    2  N           1     -26.496  -6.628 -18.245  0.00  0.00    -0.345 N 
HETATM    3  O           1     -24.280  -6.481 -18.487  0.00  0.00    -0.271 OA
HETATM    4  C           1     -25.340  -6.832 -18.950  0.00  0.00     0.248 C 
ENDROOT
BRANCH   2   5
HETATM    5  C           1     -26.448  -5.990 -16.944  0.00  0.00     0.185 C 
BRANCH   5   6
HETATM    6  C           1     -27.668  -5.093 -16.774  0.00  0.00     0.039 C 
BRANCH   6   7
HETATM    7 Se           1     -28.817  -5.253 -18.340  0.00  0.00     0.000 Se
HETATM    8  H           1     -28.925  -3.801 -18.552  0.00  0.00     0.000 HD
ENDBRANCH   6   7
ENDBRANCH   5   6
BRANCH   5   9
HETATM    9  C           1     -26.447  -7.047 -15.866  0.00  0.00     0.196 C 
HETATM   10  O           1     -27.527  -7.443 -15.378  0.00  0.00    -0.646 OA
HETATM   11  O           1     -25.365  -7.526 -15.463  0.00  0.00    -0.646 OA
ENDBRANCH   5   9
ENDBRANCH   2   5
BRANCH   4  12
HETATM   12  C           1     -25.388  -7.496 -20.304  0.00  0.00     0.270 C 
HETATM   13  C           1     -24.908  -6.517 -21.367  0.00  0.00     0.050 C 
BRANCH  12  14
HETATM   14  N           1     -26.798  -7.910 -20.607  0.00  0.00    -0.067 N 
HETATM   15  H           1     -26.797  -8.608 -21.384  0.00  0.00     0.275 HD
HETATM   16  H           1     -27.353  -7.072 -20.892  0.00  0.00     0.275 HD
HETATM   17  H           1     -27.226  -8.337 -19.754  0.00  0.00     0.275 HD
ENDBRANCH  12  14
ENDBRANCH   4  12
TORSDOF 6
ENDMDL
MODEL 2
REMARK VINA RESULT:      -5.0      2.601      2.969
REMARK  6 active torsions:
REMARK  status: ('A' for Active; 'I' for Inactive)
REMARK    1  A    between atoms: Se_2  and  C_3 
REMARK    2  A    between atoms: C_3  and  C_5 
REMARK    3  A    between atoms: C_5  and  C_6 
REMARK    4  A    between atoms: C_5  and  N_9 
REMARK       I    between atoms: N_9  and  C_14 
REMARK    5  A    between atoms: N_11  and  C_15 
REMARK    6  A    between atoms: C_14  and  C_15 
ROOT
HETATM    1  H           1     -27.951  -7.098 -20.122  0.00  0.00     0.163 HD
HETATM    2  N           1     -27.714  -6.766 -19.196  0.00  0.00    -0.345 N 
HETATM    3  O           1     -26.120  -6.197 -17.739  0.00  0.00    -0.271 OA
HETATM    4  C           1     -26.402  -6.592 -18.845  0.00  0.00     0.248 C 
ENDROOT
BRANCH   2   5
HETATM    5  C           1     -28.764  -6.475 -18.239  0.00  0.00     0.185 C 
BRANCH   5   6
HETATM    6  C           1     -29.306  -5.074 -18.491  0.00  0.00     0.039 C 
BRANCH   6   7
HETATM    7 Se           1     -28.688  -3.874 -17.086  0.00  0.00     0.000 Se
HETATM    8  H           1     -29.955  -3.909 -16.339  0.00  0.00     0.000 HD
ENDBRANCH   6   7
ENDBRANCH   5   6
BRANCH   5   9
HETATM    9  C           1     -29.878  -7.482 -18.395  0.00  0.00     0.196 C 
HETATM   10  O           1     -30.948  -7.332 -17.767  0.00  0.00    -0.646 OA
HETATM   11  O           1     -29.730  -8.464 -19.153  0.00  0.00    -0.646 OA
ENDBRANCH   5   9
ENDBRANCH   2   5
BRANCH   4  12
HETATM   12  C           1     -25.308  -6.894 -19.840  0.00  0.00     0.270 C 
HETATM   13  C           1     -25.855  -7.797 -20.937  0.00  0.00     0.050 C 
BRANCH  12  14
HETATM   14  N           1     -24.176  -7.586 -19.141  0.00  0.00    -0.067 N 
HETATM   15  H           1     -24.557  -8.316 -18.498  0.00  0.00     0.275 HD
HETATM   16  H           1     -23.628  -6.888 -18.590  0.00  0.00     0.275 HD
HETATM   17  H           1     -23.552  -8.036 -19.849  0.00  0.00     0.275 HD
ENDBRANCH  12  14
ENDBRANCH   4  12
TORSDOF 6
ENDMDL
MODEL 3
REMARK VINA RESULT:      -5.0      2.225      3.285
REMARK  6 active torsions:
REMARK  status: ('A' for Active; 'I' for Inactive)
REMARK    1  A    between atoms: Se_2  and  C_3 
REMARK    2  A    between atoms: C_3  and  C_5 
REMARK    3  A    between atoms: C_5  and  C_6 
REMARK    4  A    between atoms: C_5  and  N_9 
REMARK       I    between atoms: N_9  and  C_14 
REMARK    5  A    between atoms: N_11  and  C_15 
REMARK    6  A    between atoms: C_14  and  C_15 
ROOT
HETATM    1  H           1     -26.895  -6.078 -17.984  0.00  0.00     0.163 HD
HETATM    2  N           1     -26.968  -6.482 -17.059  0.00  0.00    -0.345 N 
HETATM    3  O           1     -25.938  -7.446 -15.328  0.00  0.00    -0.271 OA
HETATM    4  C           1     -25.850  -6.963 -16.432  0.00  0.00     0.248 C 
ENDROOT
BRANCH   2   5
HETATM    5  C           1     -28.257  -6.552 -16.398  0.00  0.00     0.185 C 
BRANCH   5   6
HETATM    6  C           1     -28.558  -5.215 -15.733  0.00  0.00     0.039 C 
BRANCH   6   7
HETATM    7 Se           1     -28.600  -3.810 -17.083  0.00  0.00     0.000 Se
HETATM    8  H           1     -28.522  -4.741 -18.220  0.00  0.00     0.000 HD
ENDBRANCH   6   7
ENDBRANCH   5   6
BRANCH   5   9
HETATM    9  C           1     -29.327  -6.860 -17.416  0.00  0.00     0.196 C 
HETATM   10  O           1     -29.013  -7.092 -18.603  0.00  0.00    -0.646 OA
HETATM   11  O           1     -30.529  -6.885 -17.071  0.00  0.00    -0.646 OA
ENDBRANCH   5   9
ENDBRANCH   2   5
BRANCH   4  12
HETATM   12  C           1     -24.509  -6.891 -17.119  0.00  0.00     0.270 C 
HETATM   13  C           1     -24.701  -7.023 -18.624  0.00  0.00     0.050 C 
BRANCH  12  14
HETATM   14  N           1     -23.636  -8.007 -16.627  0.00  0.00    -0.067 N 
HETATM   15  H           1     -24.209  -8.675 -16.064  0.00  0.00     0.275 HD
HETATM   16  H           1     -22.872  -7.615 -16.032  0.00  0.00     0.275 HD
HETATM   17  H           1     -23.217  -8.508 -17.443  0.00  0.00     0.275 HD
ENDBRANCH  12  14
ENDBRANCH   4  12
TORSDOF 6
ENDMDL
MODEL 4
REMARK VINA RESULT:      -5.0      9.761     11.358
REMARK  6 active torsions:
REMARK  status: ('A' for Active; 'I' for Inactive)
REMARK    1  A    between atoms: Se_2  and  C_3 
REMARK    2  A    between atoms: C_3  and  C_5 
REMARK    3  A    between atoms: C_5  and  C_6 
REMARK    4  A    between atoms: C_5  and  N_9 
REMARK       I    between atoms: N_9  and  C_14 
REMARK    5  A    between atoms: N_11  and  C_15 
REMARK    6  A    between atoms: C_14  and  C_15 
ROOT
HETATM    1  H           1     -22.276  -5.611  -9.026  0.00  0.00     0.163 HD
HETATM    2  N           1     -22.213  -4.652  -8.708  0.00  0.00    -0.345 N 
HETATM    3  O           1     -21.536  -3.222  -7.131  0.00  0.00    -0.271 OA
HETATM    4  C           1     -21.611  -4.367  -7.512  0.00  0.00     0.248 C 
ENDROOT
BRANCH   2   5
HETATM    5  C           1     -22.759  -3.581  -9.518  0.00  0.00     0.185 C 
BRANCH   5   6
HETATM    6  C           1     -22.117  -3.613 -10.900  0.00  0.00     0.039 C 
BRANCH   6   7
HETATM    7 Se           1     -20.315  -4.344 -10.764  0.00  0.00     0.000 Se
HETATM    8  H           1     -20.615  -5.540 -11.567  0.00  0.00     0.000 HD
ENDBRANCH   6   7
ENDBRANCH   5   6
BRANCH   5   9
HETATM    9  C           1     -24.251  -3.764  -9.652  0.00  0.00     0.196 C 
HETATM   10  O           1     -24.720  -4.886  -9.943  0.00  0.00    -0.646 OA
HETATM   11  O           1     -25.017  -2.793  -9.471  0.00  0.00    -0.646 OA
ENDBRANCH   5   9
ENDBRANCH   2   5
BRANCH   4  12
HETATM   12  C           1     -21.042  -5.480  -6.667  0.00  0.00     0.270 C 
HETATM   13  C           1     -20.384  -4.892  -5.427  0.00  0.00     0.050 C 
BRANCH  12  14
HETATM   14  N           1     -20.020  -6.237  -7.463  0.00  0.00    -0.067 N 
HETATM   15  H           1     -19.295  -5.575  -7.819  0.00  0.00     0.275 HD
HETATM   16  H           1     -20.487  -6.709  -8.270  0.00  0.00     0.275 HD
HETATM   17  H           1     -19.568  -6.957  -6.855  0.00  0.00     0.275 HD
ENDBRANCH  12  14
ENDBRANCH   4  12
TORSDOF 6
ENDMDL
MODEL 5
REMARK VINA RESULT:      -4.1     11.029     12.422
REMARK  6 active torsions:
REMARK  status: ('A' for Active; 'I' for Inactive)
REMARK    1  A    between atoms: Se_2  and  C_3 
REMARK    2  A    between atoms: C_3  and  C_5 
REMARK    3  A    between atoms: C_5  and  C_6 
REMARK    4  A    between atoms: C_5  and  N_9 
REMARK       I    between atoms: N_9  and  C_14 
REMARK    5  A    between atoms: N_11  and  C_15 
REMARK    6  A    between atoms: C_14  and  C_15 
ROOT
HETATM    1  H           1     -22.698  -6.274  -7.608  0.00  0.00     0.163 HD
HETATM    2  N           1     -22.248  -5.444  -7.246  0.00  0.00    -0.345 N 
HETATM    3  O           1     -21.835  -3.261  -7.477  0.00  0.00    -0.271 OA
HETATM    4  C           1     -22.374  -4.252  -7.909  0.00  0.00     0.248 C 
ENDROOT
BRANCH   2   5
HETATM    5  C           1     -21.469  -5.515  -6.025  0.00  0.00     0.185 C 
BRANCH   5   6
HETATM    6  C           1     -22.081  -6.553  -5.093  0.00  0.00     0.039 C 
BRANCH   6   7
HETATM    7 Se           1     -21.441  -6.256  -3.276  0.00  0.00     0.000 Se
HETATM    8  H           1     -21.448  -4.789  -3.391  0.00  0.00     0.000 HD
ENDBRANCH   6   7
ENDBRANCH   5   6
BRANCH   5   9
HETATM    9  C           1     -20.051  -5.909  -6.356  0.00  0.00     0.196 C 
HETATM   10  O           1     -19.188  -5.028  -6.559  0.00  0.00    -0.646 OA
HETATM   11  O           1     -19.739  -7.118  -6.426  0.00  0.00    -0.646 OA
ENDBRANCH   5   9
ENDBRANCH   2   5
BRANCH   4  12
HETATM   12  C           1     -23.184  -4.177  -9.180  0.00  0.00     0.270 C 
HETATM   13  C           1     -22.343  -3.548 -10.282  0.00  0.00     0.050 C 
BRANCH  12  14
HETATM   14  N           1     -24.405  -3.339  -8.943  0.00  0.00    -0.067 N 
HETATM   15  H           1     -24.396  -2.977  -7.963  0.00  0.00     0.275 HD
HETATM   16  H           1     -25.261  -3.920  -9.092  0.00  0.00     0.275 HD
HETATM   17  H           1     -24.411  -2.536  -9.612  0.00  0.00     0.275 HD
ENDBRANCH  12  14
ENDBRANCH   4  12
TORSDOF 6
ENDMDL
MODEL 6
REMARK VINA RESULT:      -4.1     12.939     14.394
REMARK  6 active torsions:
REMARK  status: ('A' for Active; 'I' for Inactive)
REMARK    1  A    between atoms: Se_2  and  C_3 
REMARK    2  A    between atoms: C_3  and  C_5 
REMARK    3  A    between atoms: C_5  and  C_6 
REMARK    4  A    between atoms: C_5  and  N_9 
REMARK       I    between atoms: N_9  and  C_14 
REMARK    5  A    between atoms: N_11  and  C_15 
REMARK    6  A    between atoms: C_14  and  C_15 
ROOT
HETATM    1  H           1     -20.643  -4.623  -4.449  0.00  0.00     0.163 HD
HETATM    2  N           1     -21.026  -5.418  -4.944  0.00  0.00    -0.345 N 
HETATM    3  O           1     -21.879  -7.480  -4.843  0.00  0.00    -0.271 OA
HETATM    4  C           1     -21.422  -6.530  -4.251  0.00  0.00     0.248 C 
ENDROOT
BRANCH   2   5
HETATM    5  C           1     -21.156  -5.379  -6.388  0.00  0.00     0.185 C 
BRANCH   5   6
HETATM    6  C           1     -21.626  -3.995  -6.818  0.00  0.00     0.039 C 
BRANCH   6   7
HETATM    7 Se           1     -22.594  -4.131  -8.504  0.00  0.00     0.000 Se
HETATM    8  H           1     -21.681  -5.130  -9.081  0.00  0.00     0.000 HD
ENDBRANCH   6   7
ENDBRANCH   5   6
BRANCH   5   9
HETATM    9  C           1     -19.818  -5.675  -7.020  0.00  0.00     0.196 C 
HETATM   10  O           1     -19.405  -6.853  -7.085  0.00  0.00    -0.646 OA
HETATM   11  O           1     -19.124  -4.743  -7.480  0.00  0.00    -0.646 OA
ENDBRANCH   5   9
ENDBRANCH   2   5
BRANCH   4  12
HETATM   12  C           1     -21.288  -6.571  -2.749  0.00  0.00     0.270 C 
HETATM   13  C           1     -21.281  -8.019  -2.279  0.00  0.00     0.050 C 
BRANCH  12  14
HETATM   14  N           1     -22.445  -5.849  -2.125  0.00  0.00    -0.067 N 
HETATM   15  H           1     -23.200  -5.722  -2.836  0.00  0.00     0.275 HD
HETATM   16  H           1     -22.128  -4.915  -1.781  0.00  0.00     0.275 HD
HETATM   17  H           1     -22.813  -6.408  -1.322  0.00  0.00     0.275 HD
ENDBRANCH  12  14
ENDBRANCH   4  12
TORSDOF 6
ENDMDL
MODEL 7
REMARK VINA RESULT:      -4.1     10.903     12.648
REMARK  6 active torsions:
REMARK  status: ('A' for Active; 'I' for Inactive)
REMARK    1  A    between atoms: Se_2  and  C_3 
REMARK    2  A    between atoms: C_3  and  C_5 
REMARK    3  A    between atoms: C_5  and  C_6 
REMARK    4  A    between atoms: C_5  and  N_9 
REMARK       I    between atoms: N_9  and  C_14 
REMARK    5  A    between atoms: N_11  and  C_15 
REMARK    6  A    between atoms: C_14  and  C_15 
ROOT
HETATM    1  H           1     -21.688  -4.135  -6.272  0.00  0.00     0.163 HD
HETATM    2  N           1     -21.554  -4.970  -6.826  0.00  0.00    -0.345 N 
HETATM    3  O           1     -21.108  -7.159  -6.874  0.00  0.00    -0.271 OA
HETATM    4  C           1     -21.269  -6.161  -6.212  0.00  0.00     0.248 C 
ENDROOT
BRANCH   2   5
HETATM    5  C           1     -21.662  -4.908  -8.271  0.00  0.00     0.185 C 
BRANCH   5   6
HETATM    6  C           1     -22.794  -3.962  -8.653  0.00  0.00     0.039 C 
BRANCH   6   7
HETATM    7 Se           1     -23.750  -4.681 -10.192  0.00  0.00     0.000 Se
HETATM    8  H           1     -22.616  -5.491 -10.665  0.00  0.00     0.000 HD
ENDBRANCH   6   7
ENDBRANCH   5   6
BRANCH   5   9
HETATM    9  C           1     -20.365  -4.400  -8.850  0.00  0.00     0.196 C 
HETATM   10  O           1     -20.070  -4.654 -10.038  0.00  0.00    -0.646 OA
HETATM   11  O           1     -19.586  -3.726  -8.143  0.00  0.00    -0.646 OA
ENDBRANCH   5   9
ENDBRANCH   2   5
BRANCH   4  12
HETATM   12  C           1     -21.156  -6.227  -4.709  0.00  0.00     0.270 C 
HETATM   13  C           1     -20.493  -7.538  -4.307  0.00  0.00     0.050 C 
BRANCH  12  14
HETATM   14  N           1     -22.525  -6.153  -4.102  0.00  0.00    -0.067 N 
HETATM   15  H           1     -22.571  -5.344  -3.442  0.00  0.00     0.275 HD
HETATM   16  H           1     -22.725  -7.038  -3.583  0.00  0.00     0.275 HD
HETATM   17  H           1     -23.235  -6.027  -4.858  0.00  0.00     0.275 HD
ENDBRANCH  12  14
ENDBRANCH   4  12
TORSDOF 6
ENDMDL
MODEL 8
REMARK VINA RESULT:      -4.1     13.084     14.544
REMARK  6 active torsions:
REMARK  status: ('A' for Active; 'I' for Inactive)
REMARK    1  A    between atoms: Se_2  and  C_3 
REMARK    2  A    between atoms: C_3  and  C_5 
REMARK    3  A    between atoms: C_5  and  C_6 
REMARK    4  A    between atoms: C_5  and  N_9 
REMARK       I    between atoms: N_9  and  C_14 
REMARK    5  A    between atoms: N_11  and  C_15 
REMARK    6  A    between atoms: C_14  and  C_15 
ROOT
HETATM    1  H           1     -19.830  -6.784  -4.837  0.00  0.00     0.163 HD
HETATM    2  N           1     -20.832  -6.643  -4.862  0.00  0.00    -0.345 N 
HETATM    3  O           1     -22.569  -5.553  -5.748  0.00  0.00    -0.271 OA
HETATM    4  C           1     -21.373  -5.722  -5.719  0.00  0.00     0.248 C 
ENDROOT
BRANCH   2   5
HETATM    5  C           1     -21.696  -7.415  -3.990  0.00  0.00     0.185 C 
BRANCH   5   6
HETATM    6  C           1     -21.250  -8.872  -3.997  0.00  0.00     0.039 C 
BRANCH   6   7
HETATM    7 Se           1     -19.472  -9.006  -4.784  0.00  0.00     0.000 Se
HETATM    8  H           1     -19.441 -10.477  -4.749  0.00  0.00     0.000 HD
ENDBRANCH   6   7
ENDBRANCH   5   6
BRANCH   5   9
HETATM    9  C           1     -21.609  -6.869  -2.586  0.00  0.00     0.196 C 
HETATM   10  O           1     -20.835  -7.395  -1.757  0.00  0.00    -0.646 OA
HETATM   11  O           1     -22.312  -5.891  -2.252  0.00  0.00    -0.646 OA
ENDBRANCH   5   9
ENDBRANCH   2   5
BRANCH   4  12
HETATM   12  C           1     -20.475  -4.918  -6.627  0.00  0.00     0.270 C 
HETATM   13  C           1     -21.249  -3.731  -7.185  0.00  0.00     0.050 C 
BRANCH  12  14
HETATM   14  N           1     -20.006  -5.783  -7.758  0.00  0.00    -0.067 N 
HETATM   15  H           1     -20.288  -6.773  -7.580  0.00  0.00     0.275 HD
HETATM   16  H           1     -18.965  -5.726  -7.832  0.00  0.00     0.275 HD
HETATM   17  H           1     -20.435  -5.453  -8.652  0.00  0.00     0.275 HD
ENDBRANCH  12  14
ENDBRANCH   4  12
TORSDOF 6
ENDMDL
MODEL 9
REMARK VINA RESULT:      -3.9     13.840     15.277
REMARK  6 active torsions:
REMARK  status: ('A' for Active; 'I' for Inactive)
REMARK    1  A    between atoms: Se_2  and  C_3 
REMARK    2  A    between atoms: C_3  and  C_5 
REMARK    3  A    between atoms: C_5  and  C_6 
REMARK    4  A    between atoms: C_5  and  N_9 
REMARK       I    between atoms: N_9  and  C_14 
REMARK    5  A    between atoms: N_11  and  C_15 
REMARK    6  A    between atoms: C_14  and  C_15 
ROOT
HETATM    1  H           1     -20.416  -5.890  -3.665  0.00  0.00     0.163 HD
HETATM    2  N           1     -20.773  -6.781  -3.988  0.00  0.00    -0.345 N 
HETATM    3  O           1     -21.159  -8.155  -5.705  0.00  0.00    -0.271 OA
HETATM    4  C           1     -20.732  -7.092  -5.320  0.00  0.00     0.248 C 
ENDROOT
BRANCH   2   5
HETATM    5  C           1     -21.327  -7.726  -3.039  0.00  0.00     0.185 C 
BRANCH   5   6
HETATM    6  C           1     -20.206  -8.583  -2.463  0.00  0.00     0.039 C 
BRANCH   6   7
HETATM    7 Se           1     -20.645 -10.468  -2.691  0.00  0.00     0.000 Se
HETATM    8  H           1     -22.070 -10.295  -2.366  0.00  0.00     0.000 HD
ENDBRANCH   6   7
ENDBRANCH   5   6
BRANCH   5   9
HETATM    9  C           1     -22.010  -6.976  -1.922  0.00  0.00     0.196 C 
HETATM   10  O           1     -22.583  -5.890  -2.158  0.00  0.00    -0.646 OA
HETATM   11  O           1     -22.004  -7.440  -0.762  0.00  0.00    -0.646 OA
ENDBRANCH   5   9
ENDBRANCH   2   5
BRANCH   4  12
HETATM   12  C           1     -20.155  -6.109  -6.309  0.00  0.00     0.270 C 
HETATM   13  C           1     -20.145  -4.716  -5.693  0.00  0.00     0.050 C 
BRANCH  12  14
HETATM   14  N           1     -20.996  -6.099  -7.551  0.00  0.00    -0.067 N 
HETATM   15  H           1     -21.166  -7.081  -7.864  0.00  0.00     0.275 HD
HETATM   16  H           1     -20.497  -5.575  -8.305  0.00  0.00     0.275 HD
HETATM   17  H           1     -21.910  -5.633  -7.350  0.00  0.00     0.275 HD
ENDBRANCH  12  14
ENDBRANCH   4  12
TORSDOF 6
ENDMDL
