MODEL 1
REMARK VINA RESULT:      -6.4      0.000      0.000
REMARK  11 active torsions:
REMARK  status: ('A' for Active; 'I' for Inactive)
REMARK    1  A    between atoms: C_2  and  C_4 
REMARK    2  A    between atoms: C_2  and  C_25 
REMARK    3  A    between atoms: N_3  and  C_11 
REMARK    4  A    between atoms: C_4  and  C_5 
REMARK    5  A    between atoms: C_5  and  C_11 
REMARK    6  A    between atoms: N_6  and  C_25 
REMARK       I    between atoms: N_6  and  C_9 
REMARK    7  A    between atoms: C_9  and  C_16 
REMARK    8  A    between atoms: O_13  and  C_23 
REMARK    9  A    between atoms: C_16  and  C_23 
REMARK   10  A    between atoms: C_16  and  N_18 
REMARK   11  A    between atoms: C_17  and  C_25 
ROOT
HETATM    1  N           1     -34.845  -1.463 -13.216  0.00  0.00    -0.345 N 
HETATM    2  H           1     -33.961  -1.298 -13.682  0.00  0.00     0.163 HD
HETATM    3  C           1     -35.954  -0.751 -13.583  0.00  0.00     0.251 C 
HETATM    4  O           1     -37.009  -0.947 -13.027  0.00  0.00    -0.271 OA
ENDROOT
BRANCH   1   5
HETATM    5  C           1     -34.935  -2.453 -12.161  0.00  0.00     0.185 C 
BRANCH   5   6
HETATM    6  C           1     -34.051  -3.644 -12.507  0.00  0.00     0.036 C 
BRANCH   6   7
HETATM    7  C           1     -34.719  -4.928 -12.034  0.00  0.00     0.004 C 
BRANCH   7   8
HETATM    8  C           1     -33.801  -5.649 -11.055  0.00  0.00     0.027 C 
BRANCH   8   9
HETATM    9  C           1     -34.623  -6.589 -10.185  0.00  0.00     0.229 C 
BRANCH   9  10
HETATM   10  N           1     -34.766  -7.913 -10.875  0.00  0.00    -0.079 N 
HETATM   11  H           1     -35.779  -8.159 -10.950  0.00  0.00     0.274 HD
HETATM   12  H           1     -34.270  -8.649 -10.324  0.00  0.00     0.274 HD
HETATM   13  H           1     -34.349  -7.855 -11.831  0.00  0.00     0.274 HD
ENDBRANCH   9  10
ENDBRANCH   8   9
ENDBRANCH   7   8
ENDBRANCH   6   7
ENDBRANCH   5   6
BRANCH   5  14
HETATM   14  C           1     -34.474  -1.845 -10.860  0.00  0.00     0.196 C 
HETATM   15  O           1     -35.303  -1.313 -10.090  0.00  0.00    -0.646 OA
HETATM   16  O           1     -33.263  -1.875 -10.550  0.00  0.00    -0.646 OA
ENDBRANCH   5  14
ENDBRANCH   1   5
BRANCH   3  17
HETATM   17  C           1     -35.860   0.280 -14.681  0.00  0.00     0.302 C 
BRANCH  17  18
HETATM   18  C           1     -36.479  -0.277 -15.957  0.00  0.00     0.153 C 
HETATM   19  C           1     -35.520  -1.278 -16.589  0.00  0.00     0.042 C 
BRANCH  18  20
HETATM   20  O           1     -37.687  -0.919 -15.648  0.00  0.00    -0.393 OA
HETATM   21  H           1     -37.903  -0.686 -14.762  0.00  0.00     0.210 HD
ENDBRANCH  18  20
ENDBRANCH  17  18
BRANCH  17  22
HETATM   22  N           1     -34.420   0.615 -14.929  0.00  0.00    -0.064 N 
HETATM   23  H           1     -34.359   1.488 -15.501  0.00  0.00     0.275 HD
HETATM   24  H           1     -33.934   0.764 -14.015  0.00  0.00     0.275 HD
HETATM   25  H           1     -33.963  -0.172 -15.442  0.00  0.00     0.275 HD
ENDBRANCH  17  22
ENDBRANCH   3  17
TORSDOF 11
ENDMDL
MODEL 2
REMARK VINA RESULT:      -5.8      1.886      2.305
REMARK  11 active torsions:
REMARK  status: ('A' for Active; 'I' for Inactive)
REMARK    1  A    between atoms: C_2  and  C_4 
REMARK    2  A    between atoms: C_2  and  C_25 
REMARK    3  A    between atoms: N_3  and  C_11 
REMARK    4  A    between atoms: C_4  and  C_5 
REMARK    5  A    between atoms: C_5  and  C_11 
REMARK    6  A    between atoms: N_6  and  C_25 
REMARK       I    between atoms: N_6  and  C_9 
REMARK    7  A    between atoms: C_9  and  C_16 
REMARK    8  A    between atoms: O_13  and  C_23 
REMARK    9  A    between atoms: C_16  and  C_23 
REMARK   10  A    between atoms: C_16  and  N_18 
REMARK   11  A    between atoms: C_17  and  C_25 
ROOT
HETATM    1  N           1     -36.066  -0.080 -12.981  0.00  0.00    -0.345 N 
HETATM    2  H           1     -35.239   0.498 -13.073  0.00  0.00     0.163 HD
HETATM    3  C           1     -36.982  -0.130 -13.996  0.00  0.00     0.251 C 
HETATM    4  O           1     -37.969  -0.820 -13.886  0.00  0.00    -0.271 OA
ENDROOT
BRANCH   1   5
HETATM    5  C           1     -36.279  -0.853 -11.773  0.00  0.00     0.185 C 
BRANCH   5   6
HETATM    6  C           1     -34.949  -1.420 -11.293  0.00  0.00     0.036 C 
BRANCH   6   7
HETATM    7  C           1     -35.048  -2.937 -11.196  0.00  0.00     0.004 C 
BRANCH   7   8
HETATM    8  C           1     -33.754  -3.495 -10.620  0.00  0.00     0.027 C 
BRANCH   8   9
HETATM    9  C           1     -33.480  -4.867 -11.221  0.00  0.00     0.229 C 
BRANCH   9  10
HETATM   10  N           1     -32.343  -4.769 -12.193  0.00  0.00    -0.079 N 
HETATM   11  H           1     -31.683  -4.019 -11.883  0.00  0.00     0.274 HD
HETATM   12  H           1     -32.713  -4.535 -13.142  0.00  0.00     0.274 HD
HETATM   13  H           1     -31.839  -5.683 -12.232  0.00  0.00     0.274 HD
ENDBRANCH   9  10
ENDBRANCH   8   9
ENDBRANCH   7   8
ENDBRANCH   6   7
ENDBRANCH   5   6
BRANCH   5  14
HETATM   14  C           1     -36.861   0.037 -10.703  0.00  0.00     0.196 C 
HETATM   15  O           1     -38.056   0.400 -10.773  0.00  0.00    -0.646 OA
HETATM   16  O           1     -36.150   0.410  -9.744  0.00  0.00    -0.646 OA
ENDBRANCH   5  14
ENDBRANCH   1   5
BRANCH   3  17
HETATM   17  C           1     -36.761   0.674 -15.253  0.00  0.00     0.302 C 
BRANCH  17  18
HETATM   18  C           1     -36.535  -0.269 -16.428  0.00  0.00     0.153 C 
HETATM   19  C           1     -35.361  -1.189 -16.121  0.00  0.00     0.042 C 
BRANCH  18  20
HETATM   20  O           1     -37.689  -1.039 -16.637  0.00  0.00    -0.393 OA
HETATM   21  H           1     -37.512  -1.605 -17.369  0.00  0.00     0.210 HD
ENDBRANCH  18  20
ENDBRANCH  17  18
BRANCH  17  22
HETATM   22  N           1     -35.558   1.551 -15.079  0.00  0.00    -0.064 N 
HETATM   23  H           1     -35.235   1.891 -16.013  0.00  0.00     0.275 HD
HETATM   24  H           1     -35.807   2.370 -14.479  0.00  0.00     0.275 HD
HETATM   25  H           1     -34.793   1.006 -14.622  0.00  0.00     0.275 HD
ENDBRANCH  17  22
ENDBRANCH   3  17
TORSDOF 11
ENDMDL
MODEL 3
REMARK VINA RESULT:      -5.5     14.714     17.775
REMARK  11 active torsions:
REMARK  status: ('A' for Active; 'I' for Inactive)
REMARK    1  A    between atoms: C_2  and  C_4 
REMARK    2  A    between atoms: C_2  and  C_25 
REMARK    3  A    between atoms: N_3  and  C_11 
REMARK    4  A    between atoms: C_4  and  C_5 
REMARK    5  A    between atoms: C_5  and  C_11 
REMARK    6  A    between atoms: N_6  and  C_25 
REMARK       I    between atoms: N_6  and  C_9 
REMARK    7  A    between atoms: C_9  and  C_16 
REMARK    8  A    between atoms: O_13  and  C_23 
REMARK    9  A    between atoms: C_16  and  C_23 
REMARK   10  A    between atoms: C_16  and  N_18 
REMARK   11  A    between atoms: C_17  and  C_25 
ROOT
HETATM    1  N           1     -20.729  -8.131  -5.736  0.00  0.00    -0.345 N 
HETATM    2  H           1     -21.321  -8.482  -6.478  0.00  0.00     0.163 HD
HETATM    3  C           1     -19.986  -8.999  -4.984  0.00  0.00     0.251 C 
HETATM    4  O           1     -19.279  -8.580  -4.097  0.00  0.00    -0.271 OA
ENDROOT
BRANCH   1   5
HETATM    5  C           1     -20.669  -6.707  -5.469  0.00  0.00     0.185 C 
BRANCH   5   6
HETATM    6  C           1     -20.668  -5.944  -6.787  0.00  0.00     0.036 C 
BRANCH   6   7
HETATM    7  C           1     -20.268  -4.496  -6.536  0.00  0.00     0.004 C 
BRANCH   7   8
HETATM    8  C           1     -21.298  -3.567  -7.167  0.00  0.00     0.027 C 
BRANCH   8   9
HETATM    9  C           1     -22.243  -4.377  -8.044  0.00  0.00     0.229 C 
BRANCH   9  10
HETATM   10  N           1     -23.648  -4.219  -7.544  0.00  0.00    -0.079 N 
HETATM   11  H           1     -24.259  -3.887  -8.324  0.00  0.00     0.274 HD
HETATM   12  H           1     -23.666  -3.520  -6.767  0.00  0.00     0.274 HD
HETATM   13  H           1     -23.998  -5.138  -7.193  0.00  0.00     0.274 HD
ENDBRANCH   9  10
ENDBRANCH   8   9
ENDBRANCH   7   8
ENDBRANCH   6   7
ENDBRANCH   5   6
BRANCH   5  14
HETATM   14  C           1     -21.870  -6.297  -4.652  0.00  0.00     0.196 C 
HETATM   15  O           1     -22.999  -6.236  -5.186  0.00  0.00    -0.646 OA
HETATM   16  O           1     -21.736  -6.020  -3.440  0.00  0.00    -0.646 OA
ENDBRANCH   5  14
ENDBRANCH   1   5
BRANCH   3  17
HETATM   17  C           1     -20.048 -10.481  -5.261  0.00  0.00     0.302 C 
BRANCH  17  18
HETATM   18  C           1     -18.731 -10.940  -5.876  0.00  0.00     0.153 C 
HETATM   19  C           1     -19.008 -11.988  -6.945  0.00  0.00     0.042 C 
BRANCH  18  20
HETATM   20  O           1     -18.079  -9.842  -6.456  0.00  0.00    -0.393 OA
HETATM   21  H           1     -17.684 -10.148  -7.254  0.00  0.00     0.210 HD
ENDBRANCH  18  20
ENDBRANCH  17  18
BRANCH  17  22
HETATM   22  N           1     -21.169 -10.764  -6.216  0.00  0.00    -0.064 N 
HETATM   23  H           1     -21.733 -11.570  -5.862  0.00  0.00     0.275 HD
HETATM   24  H           1     -21.781  -9.920  -6.294  0.00  0.00     0.275 HD
HETATM   25  H           1     -20.776 -10.997  -7.155  0.00  0.00     0.275 HD
ENDBRANCH  17  22
ENDBRANCH   3  17
TORSDOF 11
ENDMDL
MODEL 4
REMARK VINA RESULT:      -5.4     13.232     15.101
REMARK  11 active torsions:
REMARK  status: ('A' for Active; 'I' for Inactive)
REMARK    1  A    between atoms: C_2  and  C_4 
REMARK    2  A    between atoms: C_2  and  C_25 
REMARK    3  A    between atoms: N_3  and  C_11 
REMARK    4  A    between atoms: C_4  and  C_5 
REMARK    5  A    between atoms: C_5  and  C_11 
REMARK    6  A    between atoms: N_6  and  C_25 
REMARK       I    between atoms: N_6  and  C_9 
REMARK    7  A    between atoms: C_9  and  C_16 
REMARK    8  A    between atoms: O_13  and  C_23 
REMARK    9  A    between atoms: C_16  and  C_23 
REMARK   10  A    between atoms: C_16  and  N_18 
REMARK   11  A    between atoms: C_17  and  C_25 
ROOT
HETATM    1  N           1     -22.237  -5.427  -7.335  0.00  0.00    -0.345 N 
HETATM    2  H           1     -22.698  -6.305  -7.539  0.00  0.00     0.163 HD
HETATM    3  C           1     -22.507  -4.320  -8.093  0.00  0.00     0.251 C 
HETATM    4  O           1     -21.957  -3.271  -7.849  0.00  0.00    -0.271 OA
ENDROOT
BRANCH   1   5
HETATM    5  C           1     -21.290  -5.342  -6.240  0.00  0.00     0.185 C 
BRANCH   5   6
HETATM    6  C           1     -21.697  -6.316  -5.142  0.00  0.00     0.036 C 
BRANCH   6   7
HETATM    7  C           1     -21.060  -5.893  -3.825  0.00  0.00     0.004 C 
BRANCH   7   8
HETATM    8  C           1     -21.381  -6.923  -2.750  0.00  0.00     0.027 C 
BRANCH   8   9
HETATM    9  C           1     -22.288  -6.296  -1.701  0.00  0.00     0.229 C 
BRANCH   9  10
HETATM   10  N           1     -22.400  -7.217  -0.522  0.00  0.00    -0.079 N 
HETATM   11  H           1     -22.857  -8.109  -0.819  0.00  0.00     0.274 HD
HETATM   12  H           1     -22.975  -6.762   0.223  0.00  0.00     0.274 HD
HETATM   13  H           1     -21.446  -7.421  -0.148  0.00  0.00     0.274 HD
ENDBRANCH   9  10
ENDBRANCH   8   9
ENDBRANCH   7   8
ENDBRANCH   6   7
ENDBRANCH   5   6
BRANCH   5  14
HETATM   14  C           1     -19.911  -5.696  -6.739  0.00  0.00     0.196 C 
HETATM   15  O           1     -19.574  -6.895  -6.850  0.00  0.00    -0.646 OA
HETATM   16  O           1     -19.105  -4.789  -7.043  0.00  0.00    -0.646 OA
ENDBRANCH   5  14
ENDBRANCH   1   5
BRANCH   3  17
HETATM   17  C           1     -23.492  -4.408  -9.232  0.00  0.00     0.302 C 
BRANCH  17  18
HETATM   18  C           1     -22.748  -4.304 -10.558  0.00  0.00     0.153 C 
HETATM   19  C           1     -23.557  -4.993 -11.649  0.00  0.00     0.042 C 
BRANCH  18  20
HETATM   20  O           1     -22.571  -2.953 -10.890  0.00  0.00    -0.393 OA
HETATM   21  H           1     -22.463  -2.912 -11.825  0.00  0.00     0.210 HD
ENDBRANCH  18  20
ENDBRANCH  17  18
BRANCH  17  22
HETATM   22  N           1     -24.480  -3.285  -9.125  0.00  0.00    -0.064 N 
HETATM   23  H           1     -23.991  -2.420  -8.802  0.00  0.00     0.275 HD
HETATM   24  H           1     -24.912  -3.110 -10.061  0.00  0.00     0.275 HD
HETATM   25  H           1     -25.226  -3.542  -8.441  0.00  0.00     0.275 HD
ENDBRANCH  17  22
ENDBRANCH   3  17
TORSDOF 11
ENDMDL
MODEL 5
REMARK VINA RESULT:      -5.3     15.133     16.663
REMARK  11 active torsions:
REMARK  status: ('A' for Active; 'I' for Inactive)
REMARK    1  A    between atoms: C_2  and  C_4 
REMARK    2  A    between atoms: C_2  and  C_25 
REMARK    3  A    between atoms: N_3  and  C_11 
REMARK    4  A    between atoms: C_4  and  C_5 
REMARK    5  A    between atoms: C_5  and  C_11 
REMARK    6  A    between atoms: N_6  and  C_25 
REMARK       I    between atoms: N_6  and  C_9 
REMARK    7  A    between atoms: C_9  and  C_16 
REMARK    8  A    between atoms: O_13  and  C_23 
REMARK    9  A    between atoms: C_16  and  C_23 
REMARK   10  A    between atoms: C_16  and  N_18 
REMARK   11  A    between atoms: C_17  and  C_25 
ROOT
HETATM    1  N           1     -21.218  -6.502  -6.227  0.00  0.00    -0.345 N 
HETATM    2  H           1     -21.611  -7.207  -6.838  0.00  0.00     0.163 HD
HETATM    3  C           1     -21.105  -5.208  -6.659  0.00  0.00     0.251 C 
HETATM    4  O           1     -20.636  -4.366  -5.929  0.00  0.00    -0.271 OA
ENDROOT
BRANCH   1   5
HETATM    5  C           1     -20.776  -6.862  -4.894  0.00  0.00     0.185 C 
BRANCH   5   6
HETATM    6  C           1     -21.956  -6.799  -3.934  0.00  0.00     0.036 C 
BRANCH   6   7
HETATM    7  C           1     -21.538  -6.078  -2.660  0.00  0.00     0.004 C 
BRANCH   7   8
HETATM    8  C           1     -22.240  -6.708  -1.464  0.00  0.00     0.027 C 
BRANCH   8   9
HETATM    9  C           1     -21.391  -7.846  -0.917  0.00  0.00     0.229 C 
BRANCH   9  10
HETATM   10  N           1     -22.004  -9.159  -1.305  0.00  0.00    -0.079 N 
HETATM   11  H           1     -21.601  -9.477  -2.215  0.00  0.00     0.274 HD
HETATM   12  H           1     -23.038  -9.045  -1.404  0.00  0.00     0.274 HD
HETATM   13  H           1     -21.802  -9.869  -0.566  0.00  0.00     0.274 HD
ENDBRANCH   9  10
ENDBRANCH   8   9
ENDBRANCH   7   8
ENDBRANCH   6   7
ENDBRANCH   5   6
BRANCH   5  14
HETATM   14  C           1     -20.217  -8.264  -4.912  0.00  0.00     0.196 C 
HETATM   15  O           1     -19.299  -8.561  -5.708  0.00  0.00    -0.646 OA
HETATM   16  O           1     -20.670  -9.127  -4.130  0.00  0.00    -0.646 OA
ENDBRANCH   5  14
ENDBRANCH   1   5
BRANCH   3  17
HETATM   17  C           1     -21.565  -4.833  -8.046  0.00  0.00     0.302 C 
BRANCH  17  18
HETATM   18  C           1     -20.353  -4.633  -8.948  0.00  0.00     0.153 C 
HETATM   19  C           1     -20.808  -4.087 -10.295  0.00  0.00     0.042 C 
BRANCH  18  20
HETATM   20  O           1     -19.470  -3.723  -8.349  0.00  0.00    -0.393 OA
HETATM   21  H           1     -18.993  -4.197  -7.690  0.00  0.00     0.210 HD
ENDBRANCH  18  20
ENDBRANCH  17  18
BRANCH  17  22
HETATM   22  N           1     -22.355  -3.560  -7.982  0.00  0.00    -0.064 N 
HETATM   23  H           1     -23.350  -3.755  -8.238  0.00  0.00     0.275 HD
HETATM   24  H           1     -22.315  -3.173  -7.013  0.00  0.00     0.275 HD
HETATM   25  H           1     -21.952  -2.866  -8.651  0.00  0.00     0.275 HD
ENDBRANCH  17  22
ENDBRANCH   3  17
TORSDOF 11
ENDMDL
MODEL 6
REMARK VINA RESULT:      -5.2     13.272     15.928
REMARK  11 active torsions:
REMARK  status: ('A' for Active; 'I' for Inactive)
REMARK    1  A    between atoms: C_2  and  C_4 
REMARK    2  A    between atoms: C_2  and  C_25 
REMARK    3  A    between atoms: N_3  and  C_11 
REMARK    4  A    between atoms: C_4  and  C_5 
REMARK    5  A    between atoms: C_5  and  C_11 
REMARK    6  A    between atoms: N_6  and  C_25 
REMARK       I    between atoms: N_6  and  C_9 
REMARK    7  A    between atoms: C_9  and  C_16 
REMARK    8  A    between atoms: O_13  and  C_23 
REMARK    9  A    between atoms: C_16  and  C_23 
REMARK   10  A    between atoms: C_16  and  N_18 
REMARK   11  A    between atoms: C_17  and  C_25 
ROOT
HETATM    1  N           1     -21.164  -4.926  -6.743  0.00  0.00    -0.345 N 
HETATM    2  H           1     -21.083  -4.097  -6.169  0.00  0.00     0.163 HD
HETATM    3  C           1     -21.021  -6.165  -6.181  0.00  0.00     0.251 C 
HETATM    4  O           1     -21.118  -7.156  -6.867  0.00  0.00    -0.271 OA
ENDROOT
BRANCH   1   5
HETATM    5  C           1     -21.432  -4.801  -8.163  0.00  0.00     0.185 C 
BRANCH   5   6
HETATM    6  C           1     -22.408  -3.656  -8.395  0.00  0.00     0.036 C 
BRANCH   6   7
HETATM    7  C           1     -23.703  -4.203  -8.982  0.00  0.00     0.004 C 
BRANCH   7   8
HETATM    8  C           1     -23.846  -3.733 -10.424  0.00  0.00     0.027 C 
BRANCH   8   9
HETATM    9  C           1     -23.524  -4.883 -11.368  0.00  0.00     0.229 C 
BRANCH   9  10
HETATM   10  N           1     -22.228  -4.605 -12.071  0.00  0.00    -0.079 N 
HETATM   11  H           1     -22.376  -3.866 -12.795  0.00  0.00     0.274 HD
HETATM   12  H           1     -21.886  -5.478 -12.531  0.00  0.00     0.274 HD
HETATM   13  H           1     -21.519  -4.277 -11.377  0.00  0.00     0.274 HD
ENDBRANCH   9  10
ENDBRANCH   8   9
ENDBRANCH   7   8
ENDBRANCH   6   7
ENDBRANCH   5   6
BRANCH   5  14
HETATM   14  C           1     -20.143  -4.519  -8.895  0.00  0.00     0.196 C 
HETATM   15  O           1     -19.141  -4.116  -8.265  0.00  0.00    -0.646 OA
HETATM   16  O           1     -20.076  -4.691 -10.132  0.00  0.00    -0.646 OA
ENDBRANCH   5  14
ENDBRANCH   1   5
BRANCH   3  17
HETATM   17  C           1     -20.742  -6.296  -4.704  0.00  0.00     0.302 C 
BRANCH  17  18
HETATM   18  C           1     -22.011  -6.733  -3.983  0.00  0.00     0.153 C 
HETATM   19  C           1     -21.997  -6.193  -2.559  0.00  0.00     0.042 C 
BRANCH  18  20
HETATM   20  O           1     -23.131  -6.230  -4.662  0.00  0.00    -0.393 OA
HETATM   21  H           1     -23.335  -6.845  -5.346  0.00  0.00     0.210 HD
ENDBRANCH  18  20
ENDBRANCH  17  18
BRANCH  17  22
HETATM   22  N           1     -20.291  -4.973  -4.162  0.00  0.00    -0.064 N 
HETATM   23  H           1     -20.346  -4.251  -4.916  0.00  0.00     0.275 HD
HETATM   24  H           1     -20.909  -4.692  -3.368  0.00  0.00     0.275 HD
HETATM   25  H           1     -19.306  -5.052  -3.825  0.00  0.00     0.275 HD
ENDBRANCH  17  22
ENDBRANCH   3  17
TORSDOF 11
ENDMDL
MODEL 7
REMARK VINA RESULT:      -5.2     14.360     16.227
REMARK  11 active torsions:
REMARK  status: ('A' for Active; 'I' for Inactive)
REMARK    1  A    between atoms: C_2  and  C_4 
REMARK    2  A    between atoms: C_2  and  C_25 
REMARK    3  A    between atoms: N_3  and  C_11 
REMARK    4  A    between atoms: C_4  and  C_5 
REMARK    5  A    between atoms: C_5  and  C_11 
REMARK    6  A    between atoms: N_6  and  C_25 
REMARK       I    between atoms: N_6  and  C_9 
REMARK    7  A    between atoms: C_9  and  C_16 
REMARK    8  A    between atoms: O_13  and  C_23 
REMARK    9  A    between atoms: C_16  and  C_23 
REMARK   10  A    between atoms: C_16  and  N_18 
REMARK   11  A    between atoms: C_17  and  C_25 
ROOT
HETATM    1  N           1     -20.913  -5.081  -5.365  0.00  0.00    -0.345 N 
HETATM    2  H           1     -21.047  -4.153  -4.982  0.00  0.00     0.163 HD
HETATM    3  C           1     -20.651  -5.240  -6.698  0.00  0.00     0.251 C 
HETATM    4  O           1     -20.492  -6.348  -7.155  0.00  0.00    -0.271 OA
ENDROOT
BRANCH   1   5
HETATM    5  C           1     -21.000  -6.241  -4.499  0.00  0.00     0.185 C 
BRANCH   5   6
HETATM    6  C           1     -21.078  -5.786  -3.048  0.00  0.00     0.036 C 
BRANCH   6   7
HETATM    7  C           1     -21.142  -7.004  -2.136  0.00  0.00     0.004 C 
BRANCH   7   8
HETATM    8  C           1     -22.280  -6.835  -1.139  0.00  0.00     0.027 C 
BRANCH   8   9
HETATM    9  C           1     -22.430  -8.107  -0.317  0.00  0.00     0.229 C 
BRANCH   9  10
HETATM   10  N           1     -23.562  -7.946   0.654  0.00  0.00    -0.079 N 
HETATM   11  H           1     -24.164  -8.800   0.633  0.00  0.00     0.274 HD
HETATM   12  H           1     -24.134  -7.112   0.388  0.00  0.00     0.274 HD
HETATM   13  H           1     -23.179  -7.811   1.616  0.00  0.00     0.274 HD
ENDBRANCH   9  10
ENDBRANCH   8   9
ENDBRANCH   7   8
ENDBRANCH   6   7
ENDBRANCH   5   6
BRANCH   5  14
HETATM   14  C           1     -22.235  -7.035  -4.845  0.00  0.00     0.196 C 
HETATM   15  O           1     -22.162  -8.276  -4.988  0.00  0.00    -0.646 OA
HETATM   16  O           1     -23.333  -6.454  -4.987  0.00  0.00    -0.646 OA
ENDBRANCH   5  14
ENDBRANCH   1   5
BRANCH   3  17
HETATM   17  C           1     -20.561  -4.033  -7.599  0.00  0.00     0.302 C 
BRANCH  17  18
HETATM   18  C           1     -21.956  -3.648  -8.075  0.00  0.00     0.153 C 
HETATM   19  C           1     -22.147  -4.113  -9.513  0.00  0.00     0.042 C 
BRANCH  18  20
HETATM   20  O           1     -22.915  -4.260  -7.255  0.00  0.00    -0.393 OA
HETATM   21  H           1     -22.460  -4.890  -6.723  0.00  0.00     0.210 HD
ENDBRANCH  18  20
ENDBRANCH  17  18
BRANCH  17  22
HETATM   22  N           1     -19.701  -4.357  -8.783  0.00  0.00    -0.064 N 
HETATM   23  H           1     -19.308  -5.319  -8.675  0.00  0.00     0.275 HD
HETATM   24  H           1     -20.276  -4.312  -9.655  0.00  0.00     0.275 HD
HETATM   25  H           1     -18.920  -3.665  -8.845  0.00  0.00     0.275 HD
ENDBRANCH  17  22
ENDBRANCH   3  17
TORSDOF 11
ENDMDL
MODEL 8
REMARK VINA RESULT:      -5.1     14.357     16.555
REMARK  11 active torsions:
REMARK  status: ('A' for Active; 'I' for Inactive)
REMARK    1  A    between atoms: C_2  and  C_4 
REMARK    2  A    between atoms: C_2  and  C_25 
REMARK    3  A    between atoms: N_3  and  C_11 
REMARK    4  A    between atoms: C_4  and  C_5 
REMARK    5  A    between atoms: C_5  and  C_11 
REMARK    6  A    between atoms: N_6  and  C_25 
REMARK       I    between atoms: N_6  and  C_9 
REMARK    7  A    between atoms: C_9  and  C_16 
REMARK    8  A    between atoms: O_13  and  C_23 
REMARK    9  A    between atoms: C_16  and  C_23 
REMARK   10  A    between atoms: C_16  and  N_18 
REMARK   11  A    between atoms: C_17  and  C_25 
ROOT
HETATM    1  N           1     -21.873  -5.587  -6.113  0.00  0.00    -0.345 N 
HETATM    2  H           1     -22.367  -4.949  -5.503  0.00  0.00     0.163 HD
HETATM    3  C           1     -21.605  -6.863  -5.698  0.00  0.00     0.251 C 
HETATM    4  O           1     -21.015  -7.625  -6.427  0.00  0.00    -0.271 OA
ENDROOT
BRANCH   1   5
HETATM    5  C           1     -21.449  -5.149  -7.429  0.00  0.00     0.185 C 
BRANCH   5   6
HETATM    6  C           1     -22.457  -4.150  -7.980  0.00  0.00     0.036 C 
BRANCH   6   7
HETATM    7  C           1     -22.970  -4.635  -9.330  0.00  0.00     0.004 C 
BRANCH   7   8
HETATM    8  C           1     -22.593  -3.629 -10.409  0.00  0.00     0.027 C 
BRANCH   8   9
HETATM    9  C           1     -21.483  -4.206 -11.276  0.00  0.00     0.229 C 
BRANCH   9  10
HETATM   10  N           1     -20.355  -3.221 -11.368  0.00  0.00    -0.079 N 
HETATM   11  H           1     -20.631  -2.434 -11.998  0.00  0.00     0.274 HD
HETATM   12  H           1     -19.508  -3.695 -11.755  0.00  0.00     0.274 HD
HETATM   13  H           1     -20.141  -2.848 -10.417  0.00  0.00     0.274 HD
ENDBRANCH   9  10
ENDBRANCH   8   9
ENDBRANCH   7   8
ENDBRANCH   6   7
ENDBRANCH   5   6
BRANCH   5  14
HETATM   14  C           1     -20.094  -4.494  -7.329  0.00  0.00     0.196 C 
HETATM   15  O           1     -19.467  -4.516  -6.247  0.00  0.00    -0.646 OA
HETATM   16  O           1     -19.597  -3.929  -8.328  0.00  0.00    -0.646 OA
ENDBRANCH   5  14
ENDBRANCH   1   5
BRANCH   3  17
HETATM   17  C           1     -22.046  -7.319  -4.329  0.00  0.00     0.302 C 
BRANCH  17  18
HETATM   18  C           1     -21.929  -6.161  -3.345  0.00  0.00     0.153 C 
HETATM   19  C           1     -21.965  -6.701  -1.921  0.00  0.00     0.042 C 
BRANCH  18  20
HETATM   20  O           1     -20.717  -5.487  -3.558  0.00  0.00    -0.393 OA
HETATM   21  H           1     -20.713  -4.742  -2.982  0.00  0.00     0.210 HD
ENDBRANCH  18  20
ENDBRANCH  17  18
BRANCH  17  22
HETATM   22  N           1     -21.174  -8.451  -3.875  0.00  0.00    -0.064 N 
HETATM   23  H           1     -20.418  -8.612  -4.578  0.00  0.00     0.275 HD
HETATM   24  H           1     -20.745  -8.212  -2.952  0.00  0.00     0.275 HD
HETATM   25  H           1     -21.751  -9.316  -3.776  0.00  0.00     0.275 HD
ENDBRANCH  17  22
ENDBRANCH   3  17
TORSDOF 11
ENDMDL
MODEL 9
REMARK VINA RESULT:      -5.0     16.808     19.753
REMARK  11 active torsions:
REMARK  status: ('A' for Active; 'I' for Inactive)
REMARK    1  A    between atoms: C_2  and  C_4 
REMARK    2  A    between atoms: C_2  and  C_25 
REMARK    3  A    between atoms: N_3  and  C_11 
REMARK    4  A    between atoms: C_4  and  C_5 
REMARK    5  A    between atoms: C_5  and  C_11 
REMARK    6  A    between atoms: N_6  and  C_25 
REMARK       I    between atoms: N_6  and  C_9 
REMARK    7  A    between atoms: C_9  and  C_16 
REMARK    8  A    between atoms: O_13  and  C_23 
REMARK    9  A    between atoms: C_16  and  C_23 
REMARK   10  A    between atoms: C_16  and  N_18 
REMARK   11  A    between atoms: C_17  and  C_25 
ROOT
HETATM    1  N           1     -21.614  -9.571  -1.053  0.00  0.00    -0.345 N 
HETATM    2  H           1     -22.007  -9.802  -1.957  0.00  0.00     0.163 HD
HETATM    3  C           1     -21.457 -10.546  -0.106  0.00  0.00     0.251 C 
HETATM    4  O           1     -20.988 -10.271   0.974  0.00  0.00    -0.271 OA
ENDROOT
BRANCH   1   5
HETATM    5  C           1     -21.218  -8.207  -0.761  0.00  0.00     0.185 C 
BRANCH   5   6
HETATM    6  C           1     -20.316  -7.693  -1.875  0.00  0.00     0.036 C 
BRANCH   6   7
HETATM    7  C           1     -20.415  -8.619  -3.080  0.00  0.00     0.004 C 
BRANCH   7   8
HETATM    8  C           1     -20.474  -7.790  -4.356  0.00  0.00     0.027 C 
BRANCH   8   9
HETATM    9  C           1     -21.924  -7.622  -4.786  0.00  0.00     0.229 C 
BRANCH   9  10
HETATM   10  N           1     -22.384  -6.231  -4.463  0.00  0.00    -0.079 N 
HETATM   11  H           1     -21.568  -5.660  -4.145  0.00  0.00     0.274 HD
HETATM   12  H           1     -23.100  -6.268  -3.703  0.00  0.00     0.274 HD
HETATM   13  H           1     -22.804  -5.797  -5.315  0.00  0.00     0.274 HD
ENDBRANCH   9  10
ENDBRANCH   8   9
ENDBRANCH   7   8
ENDBRANCH   6   7
ENDBRANCH   5   6
BRANCH   5  14
HETATM   14  C           1     -22.447  -7.336  -0.666  0.00  0.00     0.196 C 
HETATM   15  O           1     -22.542  -6.310  -1.374  0.00  0.00    -0.646 OA
HETATM   16  O           1     -23.370  -7.641   0.120  0.00  0.00    -0.646 OA
ENDBRANCH   5  14
ENDBRANCH   1   5
BRANCH   3  17
HETATM   17  C           1     -21.870 -11.966  -0.409  0.00  0.00     0.302 C 
BRANCH  17  18
HETATM   18  C           1     -23.350 -12.144  -0.094  0.00  0.00     0.153 C 
HETATM   19  C           1     -23.503 -13.008   1.151  0.00  0.00     0.042 C 
BRANCH  18  20
HETATM   20  O           1     -23.934 -10.889   0.132  0.00  0.00    -0.393 OA
HETATM   21  H           1     -23.690 -10.339  -0.592  0.00  0.00     0.210 HD
ENDBRANCH  18  20
ENDBRANCH  17  18
BRANCH  17  22
HETATM   22  N           1     -21.063 -12.910   0.432  0.00  0.00    -0.064 N 
HETATM   23  H           1     -20.073 -12.579   0.475  0.00  0.00     0.275 HD
HETATM   24  H           1     -21.461 -12.943   1.398  0.00  0.00     0.275 HD
HETATM   25  H           1     -21.094 -13.865   0.009  0.00  0.00     0.275 HD
ENDBRANCH  17  22
ENDBRANCH   3  17
TORSDOF 11
ENDMDL
