MODEL 1
REMARK VINA RESULT:      -6.4      0.000      0.000
REMARK  8 active torsions:
REMARK  status: ('A' for Active; 'I' for Inactive)
REMARK    1  A    between atoms: C_1  and  C_9 
REMARK    2  A    between atoms: C_1  and  C_18 
REMARK       I    between atoms: C_2  and  N_3 
REMARK    3  A    between atoms: C_2  and  C_9 
REMARK    4  A    between atoms: N_3  and  C_12 
REMARK    5  A    between atoms: C_7  and  C_12 
REMARK    6  A    between atoms: C_9  and  N_16 
REMARK    7  A    between atoms: C_10  and  C_20 
REMARK    8  A    between atoms: C_12  and  C_20 
ROOT
HETATM    1  C           1     -22.206  -4.190  -7.670  0.00  0.00     0.249 C 
HETATM    2  N           1     -22.967  -4.595  -8.733  0.00  0.00    -0.345 N 
HETATM    3  H           1     -23.501  -5.453  -8.675  0.00  0.00     0.163 HD
HETATM    4  O           1     -21.568  -3.167  -7.739  0.00  0.00    -0.271 OA
ENDROOT
BRANCH   1   5
HETATM    5  C           1     -22.164  -5.022  -6.411  0.00  0.00     0.278 C 
BRANCH   5   6
HETATM    6  C           1     -21.354  -6.286  -6.665  0.00  0.00     0.021 C 
HETATM    7  C           1     -19.885  -5.922  -6.838  0.00  0.00     0.012 C 
BRANCH   6   8
HETATM    8  C           1     -21.505  -7.232  -5.481  0.00  0.00     0.002 C 
HETATM    9  C           1     -20.138  -7.773  -5.084  0.00  0.00     0.005 C 
ENDBRANCH   6   8
ENDBRANCH   5   6
BRANCH   5  10
HETATM   10  N           1     -23.560  -5.395  -6.011  0.00  0.00    -0.066 N 
HETATM   11  H           1     -24.214  -5.197  -6.803  0.00  0.00     0.275 HD
HETATM   12  H           1     -23.845  -4.835  -5.177  0.00  0.00     0.275 HD
HETATM   13  H           1     -23.595  -6.413  -5.776  0.00  0.00     0.275 HD
ENDBRANCH   5  10
ENDBRANCH   1   5
BRANCH   2  14
HETATM   14  C           1     -23.007  -3.796  -9.942  0.00  0.00     0.185 C 
BRANCH  14  15
HETATM   15  C           1     -24.432  -3.391 -10.230  0.00  0.00     0.196 C 
HETATM   16  O           1     -24.942  -3.645 -11.342  0.00  0.00    -0.646 OA
HETATM   17  O           1     -25.103  -2.802  -9.355  0.00  0.00    -0.646 OA
ENDBRANCH  14  15
BRANCH  14  18
HETATM   18  C           1     -22.467  -4.615 -11.109  0.00  0.00     0.040 C 
BRANCH  18  19
HETATM   19  C           1     -21.076  -4.115 -11.479  0.00  0.00    -0.020 C 
HETATM   20  C           1     -21.021  -2.602 -11.317  0.00  0.00     0.009 C 
HETATM   21  C           1     -20.045  -4.763 -10.563  0.00  0.00     0.009 C 
ENDBRANCH  18  19
ENDBRANCH  14  18
ENDBRANCH   2  14
TORSDOF 8
ENDMDL
MODEL 2
REMARK VINA RESULT:      -6.3     10.916     12.528
REMARK  8 active torsions:
REMARK  status: ('A' for Active; 'I' for Inactive)
REMARK    1  A    between atoms: C_1  and  C_9 
REMARK    2  A    between atoms: C_1  and  C_18 
REMARK       I    between atoms: C_2  and  N_3 
REMARK    3  A    between atoms: C_2  and  C_9 
REMARK    4  A    between atoms: N_3  and  C_12 
REMARK    5  A    between atoms: C_7  and  C_12 
REMARK    6  A    between atoms: C_9  and  N_16 
REMARK    7  A    between atoms: C_10  and  C_20 
REMARK    8  A    between atoms: C_12  and  C_20 
ROOT
HETATM    1  C           1     -26.374  -6.411 -18.305  0.00  0.00     0.249 C 
HETATM    2  N           1     -27.571  -6.754 -18.873  0.00  0.00    -0.345 N 
HETATM    3  H           1     -27.592  -7.167 -19.798  0.00  0.00     0.163 HD
HETATM    4  O           1     -26.348  -5.918 -17.203  0.00  0.00    -0.271 OA
ENDROOT
BRANCH   1   5
HETATM    5  C           1     -25.086  -6.647 -19.057  0.00  0.00     0.278 C 
BRANCH   5   6
HETATM    6  C           1     -25.400  -7.151 -20.459  0.00  0.00     0.021 C 
HETATM    7  C           1     -25.461  -5.972 -21.421  0.00  0.00     0.012 C 
BRANCH   6   8
HETATM    8  C           1     -24.311  -8.116 -20.907  0.00  0.00     0.002 C 
HETATM    9  C           1     -23.975  -7.859 -22.370  0.00  0.00     0.005 C 
ENDBRANCH   6   8
ENDBRANCH   5   6
BRANCH   5  10
HETATM   10  N           1     -24.263  -7.668 -18.331  0.00  0.00    -0.066 N 
HETATM   11  H           1     -24.491  -7.638 -17.311  0.00  0.00     0.275 HD
HETATM   12  H           1     -23.249  -7.461 -18.468  0.00  0.00     0.275 HD
HETATM   13  H           1     -24.478  -8.620 -18.707  0.00  0.00     0.275 HD
ENDBRANCH   5  10
ENDBRANCH   1   5
BRANCH   2  14
HETATM   14  C           1     -28.807  -6.527 -18.152  0.00  0.00     0.185 C 
BRANCH  14  15
HETATM   15  C           1     -29.803  -7.603 -18.511  0.00  0.00     0.196 C 
HETATM   16  O           1     -30.978  -7.533 -18.090  0.00  0.00    -0.646 OA
HETATM   17  O           1     -29.454  -8.564 -19.229  0.00  0.00    -0.646 OA
ENDBRANCH  14  15
BRANCH  14  18
HETATM   18  C           1     -29.373  -5.165 -18.533  0.00  0.00     0.040 C 
BRANCH  18  19
HETATM   19  C           1     -29.672  -4.368 -17.269  0.00  0.00    -0.020 C 
HETATM   20  C           1     -28.738  -3.167 -17.194  0.00  0.00     0.009 C 
HETATM   21  C           1     -31.118  -3.887 -17.304  0.00  0.00     0.009 C 
ENDBRANCH  18  19
ENDBRANCH  14  18
ENDBRANCH   2  14
TORSDOF 8
ENDMDL
MODEL 3
REMARK VINA RESULT:      -6.2     12.144     13.905
REMARK  8 active torsions:
REMARK  status: ('A' for Active; 'I' for Inactive)
REMARK    1  A    between atoms: C_1  and  C_9 
REMARK    2  A    between atoms: C_1  and  C_18 
REMARK       I    between atoms: C_2  and  N_3 
REMARK    3  A    between atoms: C_2  and  C_9 
REMARK    4  A    between atoms: N_3  and  C_12 
REMARK    5  A    between atoms: C_7  and  C_12 
REMARK    6  A    between atoms: C_9  and  N_16 
REMARK    7  A    between atoms: C_10  and  C_20 
REMARK    8  A    between atoms: C_12  and  C_20 
ROOT
HETATM    1  C           1     -34.299  -2.419 -11.676  0.00  0.00     0.249 C 
HETATM    2  N           1     -35.377  -1.938 -12.368  0.00  0.00    -0.345 N 
HETATM    3  H           1     -35.890  -2.548 -12.993  0.00  0.00     0.163 HD
HETATM    4  O           1     -33.686  -1.692 -10.932  0.00  0.00    -0.271 OA
ENDROOT
BRANCH   1   5
HETATM    5  C           1     -33.875  -3.858 -11.845  0.00  0.00     0.278 C 
BRANCH   5   6
HETATM    6  C           1     -34.352  -4.673 -10.650  0.00  0.00     0.021 C 
HETATM    7  C           1     -35.872  -4.611 -10.568  0.00  0.00     0.012 C 
BRANCH   6   8
HETATM    8  C           1     -33.913  -6.121 -10.815  0.00  0.00     0.002 C 
HETATM    9  C           1     -34.782  -7.019  -9.944  0.00  0.00     0.005 C 
ENDBRANCH   6   8
ENDBRANCH   5   6
BRANCH   5  10
HETATM   10  N           1     -32.379  -3.931 -11.934  0.00  0.00    -0.066 N 
HETATM   11  H           1     -31.957  -3.344 -11.179  0.00  0.00     0.275 HD
HETATM   12  H           1     -32.068  -3.578 -12.866  0.00  0.00     0.275 HD
HETATM   13  H           1     -32.072  -4.923 -11.817  0.00  0.00     0.275 HD
ENDBRANCH   5  10
ENDBRANCH   1   5
BRANCH   2  14
HETATM   14  C           1     -35.784  -0.556 -12.207  0.00  0.00     0.185 C 
BRANCH  14  15
HETATM   15  C           1     -36.735  -0.446 -11.040  0.00  0.00     0.196 C 
HETATM   16  O           1     -37.795  -1.107 -11.033  0.00  0.00    -0.646 OA
HETATM   17  O           1     -36.461   0.306 -10.080  0.00  0.00    -0.646 OA
ENDBRANCH  14  15
BRANCH  14  18
HETATM   18  C           1     -36.481  -0.082 -13.476  0.00  0.00     0.040 C 
BRANCH  18  19
HETATM   19  C           1     -35.437   0.355 -14.496  0.00  0.00    -0.020 C 
HETATM   20  C           1     -36.126   1.063 -15.655  0.00  0.00     0.009 C 
HETATM   21  C           1     -34.448   1.306 -13.834  0.00  0.00     0.009 C 
ENDBRANCH  18  19
ENDBRANCH  14  18
ENDBRANCH   2  14
TORSDOF 8
ENDMDL
MODEL 4
REMARK VINA RESULT:      -5.9     11.965     14.193
REMARK  8 active torsions:
REMARK  status: ('A' for Active; 'I' for Inactive)
REMARK    1  A    between atoms: C_1  and  C_9 
REMARK    2  A    between atoms: C_1  and  C_18 
REMARK       I    between atoms: C_2  and  N_3 
REMARK    3  A    between atoms: C_2  and  C_9 
REMARK    4  A    between atoms: N_3  and  C_12 
REMARK    5  A    between atoms: C_7  and  C_12 
REMARK    6  A    between atoms: C_9  and  N_16 
REMARK    7  A    between atoms: C_10  and  C_20 
REMARK    8  A    between atoms: C_12  and  C_20 
ROOT
HETATM    1  C           1     -35.109  -1.907 -12.723  0.00  0.00     0.249 C 
HETATM    2  N           1     -34.936  -1.589 -14.043  0.00  0.00    -0.345 N 
HETATM    3  H           1     -34.016  -1.648 -14.461  0.00  0.00     0.163 HD
HETATM    4  O           1     -36.206  -1.836 -12.223  0.00  0.00    -0.271 OA
ENDROOT
BRANCH   1   5
HETATM    5  C           1     -33.928  -2.346 -11.891  0.00  0.00     0.278 C 
BRANCH   5   6
HETATM    6  C           1     -33.846  -3.866 -11.885  0.00  0.00     0.021 C 
HETATM    7  C           1     -32.397  -4.297 -12.079  0.00  0.00     0.012 C 
BRANCH   6   8
HETATM    8  C           1     -34.359  -4.398 -10.554  0.00  0.00     0.002 C 
HETATM    9  C           1     -34.229  -5.915 -10.528  0.00  0.00     0.005 C 
ENDBRANCH   6   8
ENDBRANCH   5   6
BRANCH   5  10
HETATM   10  N           1     -34.095  -1.849 -10.486  0.00  0.00    -0.066 N 
HETATM   11  H           1     -35.017  -1.366 -10.394  0.00  0.00     0.275 HD
HETATM   12  H           1     -33.326  -1.179 -10.259  0.00  0.00     0.275 HD
HETATM   13  H           1     -34.058  -2.658  -9.824  0.00  0.00     0.275 HD
ENDBRANCH   5  10
ENDBRANCH   1   5
BRANCH   2  14
HETATM   14  C           1     -36.070  -1.167 -14.841  0.00  0.00     0.185 C 
BRANCH  14  15
HETATM   15  C           1     -35.730  -1.301 -16.306  0.00  0.00     0.196 C 
HETATM   16  O           1     -36.536  -0.902 -17.174  0.00  0.00    -0.646 OA
HETATM   17  O           1     -34.642  -1.811 -16.651  0.00  0.00    -0.646 OA
ENDBRANCH  14  15
BRANCH  14  18
HETATM   18  C           1     -36.398   0.287 -14.527  0.00  0.00     0.040 C 
BRANCH  18  19
HETATM   19  C           1     -35.228   1.172 -14.939  0.00  0.00    -0.020 C 
HETATM   20  C           1     -35.739   2.321 -15.797  0.00  0.00     0.009 C 
HETATM   21  C           1     -34.551   1.729 -13.692  0.00  0.00     0.009 C 
ENDBRANCH  18  19
ENDBRANCH  14  18
ENDBRANCH   2  14
TORSDOF 8
ENDMDL
MODEL 5
REMARK VINA RESULT:      -5.7      2.976      6.700
REMARK  8 active torsions:
REMARK  status: ('A' for Active; 'I' for Inactive)
REMARK    1  A    between atoms: C_1  and  C_9 
REMARK    2  A    between atoms: C_1  and  C_18 
REMARK       I    between atoms: C_2  and  N_3 
REMARK    3  A    between atoms: C_2  and  C_9 
REMARK    4  A    between atoms: N_3  and  C_12 
REMARK    5  A    between atoms: C_7  and  C_12 
REMARK    6  A    between atoms: C_9  and  N_16 
REMARK    7  A    between atoms: C_10  and  C_20 
REMARK    8  A    between atoms: C_12  and  C_20 
ROOT
HETATM    1  C           1     -21.134  -5.221  -6.326  0.00  0.00     0.249 C 
HETATM    2  N           1     -21.680  -6.327  -5.732  0.00  0.00    -0.345 N 
HETATM    3  H           1     -22.622  -6.613  -5.966  0.00  0.00     0.163 HD
HETATM    4  O           1     -20.010  -4.879  -6.046  0.00  0.00    -0.271 OA
ENDROOT
BRANCH   1   5
HETATM    5  C           1     -21.936  -4.429  -7.329  0.00  0.00     0.278 C 
BRANCH   5   6
HETATM    6  C           1     -21.635  -4.935  -8.734  0.00  0.00     0.021 C 
HETATM    7  C           1     -22.838  -4.681  -9.634  0.00  0.00     0.012 C 
BRANCH   6   8
HETATM    8  C           1     -20.424  -4.199  -9.289  0.00  0.00     0.002 C 
HETATM    9  C           1     -20.565  -4.054 -10.799  0.00  0.00     0.005 C 
ENDBRANCH   6   8
ENDBRANCH   5   6
BRANCH   5  10
HETATM   10  N           1     -21.569  -2.979  -7.231  0.00  0.00    -0.066 N 
HETATM   11  H           1     -20.530  -2.879  -7.284  0.00  0.00     0.275 HD
HETATM   12  H           1     -21.910  -2.594  -6.322  0.00  0.00     0.275 HD
HETATM   13  H           1     -22.010  -2.454  -8.020  0.00  0.00     0.275 HD
ENDBRANCH   5  10
ENDBRANCH   1   5
BRANCH   2  14
HETATM   14  C           1     -20.910  -7.087  -4.767  0.00  0.00     0.185 C 
BRANCH  14  15
HETATM   15  C           1     -20.371  -8.334  -5.425  0.00  0.00     0.196 C 
HETATM   16  O           1     -21.159  -9.209  -5.845  0.00  0.00    -0.646 OA
HETATM   17  O           1     -19.138  -8.492  -5.552  0.00  0.00    -0.646 OA
ENDBRANCH  14  15
BRANCH  14  18
HETATM   18  C           1     -21.804  -7.476  -3.597  0.00  0.00     0.040 C 
BRANCH  18  19
HETATM   19  C           1     -21.181  -6.986  -2.296  0.00  0.00    -0.020 C 
HETATM   20  C           1     -22.283  -6.575  -1.329  0.00  0.00     0.009 C 
HETATM   21  C           1     -20.354  -8.107  -1.678  0.00  0.00     0.009 C 
ENDBRANCH  18  19
ENDBRANCH  14  18
ENDBRANCH   2  14
TORSDOF 8
ENDMDL
MODEL 6
REMARK VINA RESULT:      -5.6      9.865     12.178
REMARK  8 active torsions:
REMARK  status: ('A' for Active; 'I' for Inactive)
REMARK    1  A    between atoms: C_1  and  C_9 
REMARK    2  A    between atoms: C_1  and  C_18 
REMARK       I    between atoms: C_2  and  N_3 
REMARK    3  A    between atoms: C_2  and  C_9 
REMARK    4  A    between atoms: N_3  and  C_12 
REMARK    5  A    between atoms: C_7  and  C_12 
REMARK    6  A    between atoms: C_9  and  N_16 
REMARK    7  A    between atoms: C_10  and  C_20 
REMARK    8  A    between atoms: C_12  and  C_20 
ROOT
HETATM    1  C           1     -26.226  -6.309 -18.859  0.00  0.00     0.249 C 
HETATM    2  N           1     -27.296  -5.919 -18.100  0.00  0.00    -0.345 N 
HETATM    3  H           1     -28.199  -5.776 -18.535  0.00  0.00     0.163 HD
HETATM    4  O           1     -25.148  -6.480 -18.342  0.00  0.00    -0.271 OA
ENDROOT
BRANCH   1   5
HETATM    5  C           1     -26.392  -6.525 -20.344  0.00  0.00     0.278 C 
BRANCH   5   6
HETATM    6  C           1     -25.989  -7.950 -20.699  0.00  0.00     0.021 C 
HETATM    7  C           1     -27.182  -8.681 -21.303  0.00  0.00     0.012 C 
BRANCH   6   8
HETATM    8  C           1     -24.851  -7.918 -21.710  0.00  0.00     0.002 C 
HETATM    9  C           1     -23.549  -8.310 -21.023  0.00  0.00     0.005 C 
ENDBRANCH   6   8
ENDBRANCH   5   6
BRANCH   5  10
HETATM   10  N           1     -25.523  -5.558 -21.091  0.00  0.00    -0.066 N 
HETATM   11  H           1     -26.121  -4.837 -21.554  0.00  0.00     0.275 HD
HETATM   12  H           1     -24.972  -6.072 -21.815  0.00  0.00     0.275 HD
HETATM   13  H           1     -24.868  -5.091 -20.422  0.00  0.00     0.275 HD
ENDBRANCH   5  10
ENDBRANCH   1   5
BRANCH   2  14
HETATM   14  C           1     -27.136  -5.711 -16.675  0.00  0.00     0.185 C 
BRANCH  14  15
HETATM   15  C           1     -27.267  -7.032 -15.956  0.00  0.00     0.196 C 
HETATM   16  O           1     -26.283  -7.520 -15.360  0.00  0.00    -0.646 OA
HETATM   17  O           1     -28.361  -7.637 -15.956  0.00  0.00    -0.646 OA
ENDBRANCH  14  15
BRANCH  14  18
HETATM   18  C           1     -28.212  -4.753 -16.178  0.00  0.00     0.040 C 
BRANCH  18  19
HETATM   19  C           1     -29.124  -4.369 -17.336  0.00  0.00    -0.020 C 
HETATM   20  C           1     -30.501  -4.984 -17.122  0.00  0.00     0.009 C 
HETATM   21  C           1     -29.248  -2.852 -17.403  0.00  0.00     0.009 C 
ENDBRANCH  18  19
ENDBRANCH  14  18
ENDBRANCH   2  14
TORSDOF 8
ENDMDL
MODEL 7
REMARK VINA RESULT:      -5.4     12.151     14.167
REMARK  8 active torsions:
REMARK  status: ('A' for Active; 'I' for Inactive)
REMARK    1  A    between atoms: C_1  and  C_9 
REMARK    2  A    between atoms: C_1  and  C_18 
REMARK       I    between atoms: C_2  and  N_3 
REMARK    3  A    between atoms: C_2  and  C_9 
REMARK    4  A    between atoms: N_3  and  C_12 
REMARK    5  A    between atoms: C_7  and  C_12 
REMARK    6  A    between atoms: C_9  and  N_16 
REMARK    7  A    between atoms: C_10  and  C_20 
REMARK    8  A    between atoms: C_12  and  C_20 
ROOT
HETATM    1  C           1     -34.527  -2.326 -12.326  0.00  0.00     0.249 C 
HETATM    2  N           1     -35.202  -1.210 -11.910  0.00  0.00    -0.345 N 
HETATM    3  H           1     -34.966  -0.777 -11.026  0.00  0.00     0.163 HD
HETATM    4  O           1     -34.808  -2.844 -13.380  0.00  0.00    -0.271 OA
ENDROOT
BRANCH   1   5
HETATM    5  C           1     -33.432  -2.910 -11.467  0.00  0.00     0.278 C 
BRANCH   5   6
HETATM    6  C           1     -33.974  -4.105 -10.694  0.00  0.00     0.021 C 
HETATM    7  C           1     -35.494  -4.134 -10.805  0.00  0.00     0.012 C 
BRANCH   6   8
HETATM    8  C           1     -33.399  -5.389 -11.276  0.00  0.00     0.002 C 
HETATM    9  C           1     -34.159  -6.585 -10.718  0.00  0.00     0.005 C 
ENDBRANCH   6   8
ENDBRANCH   5   6
BRANCH   5  10
HETATM   10  N           1     -32.945  -1.870 -10.502  0.00  0.00    -0.066 N 
HETATM   11  H           1     -32.181  -1.312 -10.948  0.00  0.00     0.275 HD
HETATM   12  H           1     -32.579  -2.337  -9.642  0.00  0.00     0.275 HD
HETATM   13  H           1     -33.735  -1.236 -10.246  0.00  0.00     0.275 HD
ENDBRANCH   5  10
ENDBRANCH   1   5
BRANCH   2  14
HETATM   14  C           1     -36.254  -0.650 -12.735  0.00  0.00     0.185 C 
BRANCH  14  15
HETATM   15  C           1     -35.666   0.383 -13.666  0.00  0.00     0.196 C 
HETATM   16  O           1     -36.149   0.541 -14.808  0.00  0.00    -0.646 OA
HETATM   17  O           1     -34.697   1.080 -13.295  0.00  0.00    -0.646 OA
ENDBRANCH  14  15
BRANCH  14  18
HETATM   18  C           1     -37.301   0.007 -11.844  0.00  0.00     0.040 C 
BRANCH  18  19
HETATM   19  C           1     -36.826  -0.021 -10.397  0.00  0.00    -0.020 C 
HETATM   20  C           1     -37.282   1.248  -9.689  0.00  0.00     0.009 C 
HETATM   21  C           1     -37.417  -1.236  -9.693  0.00  0.00     0.009 C 
ENDBRANCH  18  19
ENDBRANCH  14  18
ENDBRANCH   2  14
TORSDOF 8
ENDMDL
MODEL 8
REMARK VINA RESULT:      -5.2      4.256      8.106
REMARK  8 active torsions:
REMARK  status: ('A' for Active; 'I' for Inactive)
REMARK    1  A    between atoms: C_1  and  C_9 
REMARK    2  A    between atoms: C_1  and  C_18 
REMARK       I    between atoms: C_2  and  N_3 
REMARK    3  A    between atoms: C_2  and  C_9 
REMARK    4  A    between atoms: N_3  and  C_12 
REMARK    5  A    between atoms: C_7  and  C_12 
REMARK    6  A    between atoms: C_9  and  N_16 
REMARK    7  A    between atoms: C_10  and  C_20 
REMARK    8  A    between atoms: C_12  and  C_20 
ROOT
HETATM    1  C           1     -21.406  -6.665  -4.274  0.00  0.00     0.249 C 
HETATM    2  N           1     -20.898  -7.922  -4.087  0.00  0.00    -0.345 N 
HETATM    3  H           1     -20.934  -8.599  -4.839  0.00  0.00     0.163 HD
HETATM    4  O           1     -21.364  -5.857  -3.377  0.00  0.00    -0.271 OA
ENDROOT
BRANCH   1   5
HETATM    5  C           1     -22.021  -6.288  -5.600  0.00  0.00     0.278 C 
BRANCH   5   6
HETATM    6  C           1     -21.257  -5.114  -6.200  0.00  0.00     0.021 C 
HETATM    7  C           1     -19.975  -5.620  -6.848  0.00  0.00     0.012 C 
BRANCH   6   8
HETATM    8  C           1     -22.121  -4.431  -7.251  0.00  0.00     0.002 C 
HETATM    9  C           1     -21.512  -4.648  -8.629  0.00  0.00     0.005 C 
ENDBRANCH   6   8
ENDBRANCH   5   6
BRANCH   5  10
HETATM   10  N           1     -23.454  -5.900  -5.395  0.00  0.00    -0.066 N 
HETATM   11  H           1     -23.521  -5.223  -4.601  0.00  0.00     0.275 HD
HETATM   12  H           1     -24.018  -6.751  -5.176  0.00  0.00     0.275 HD
HETATM   13  H           1     -23.822  -5.453  -6.266  0.00  0.00     0.275 HD
ENDBRANCH   5  10
ENDBRANCH   1   5
BRANCH   2  14
HETATM   14  C           1     -20.309  -8.283  -2.813  0.00  0.00     0.185 C 
BRANCH  14  15
HETATM   15  C           1     -19.256  -9.343  -3.029  0.00  0.00     0.196 C 
HETATM   16  O           1     -18.088  -9.155  -2.625  0.00  0.00    -0.646 OA
HETATM   17  O           1     -19.552 -10.409  -3.611  0.00  0.00    -0.646 OA
ENDBRANCH  14  15
BRANCH  14  18
HETATM   18  C           1     -21.393  -8.825  -1.889  0.00  0.00     0.040 C 
BRANCH  18  19
HETATM   19  C           1     -21.319  -8.110  -0.546  0.00  0.00    -0.020 C 
HETATM   20  C           1     -22.560  -7.245  -0.364  0.00  0.00     0.009 C 
HETATM   21  C           1     -21.249  -9.141   0.574  0.00  0.00     0.009 C 
ENDBRANCH  18  19
ENDBRANCH  14  18
ENDBRANCH   2  14
TORSDOF 8
ENDMDL
MODEL 9
REMARK VINA RESULT:      -5.1      5.790      8.127
REMARK  8 active torsions:
REMARK  status: ('A' for Active; 'I' for Inactive)
REMARK    1  A    between atoms: C_1  and  C_9 
REMARK    2  A    between atoms: C_1  and  C_18 
REMARK       I    between atoms: C_2  and  N_3 
REMARK    3  A    between atoms: C_2  and  C_9 
REMARK    4  A    between atoms: N_3  and  C_12 
REMARK    5  A    between atoms: C_7  and  C_12 
REMARK    6  A    between atoms: C_9  and  N_16 
REMARK    7  A    between atoms: C_10  and  C_20 
REMARK    8  A    between atoms: C_12  and  C_20 
ROOT
HETATM    1  C           1     -21.932 -10.571  -2.936  0.00  0.00     0.249 C 
HETATM    2  N           1     -21.036  -9.587  -3.252  0.00  0.00    -0.345 N 
HETATM    3  H           1     -20.464  -9.171  -2.528  0.00  0.00     0.163 HD
HETATM    4  O           1     -22.616 -11.067  -3.799  0.00  0.00    -0.271 OA
ENDROOT
BRANCH   1   5
HETATM    5  C           1     -22.068 -11.037  -1.506  0.00  0.00     0.278 C 
BRANCH   5   6
HETATM    6  C           1     -23.055 -10.141  -0.770  0.00  0.00     0.021 C 
HETATM    7  C           1     -24.046 -11.003   0.002  0.00  0.00     0.012 C 
BRANCH   6   8
HETATM    8  C           1     -22.300  -9.244   0.201  0.00  0.00     0.002 C 
HETATM    9  C           1     -23.133  -8.006   0.503  0.00  0.00     0.005 C 
ENDBRANCH   6   8
ENDBRANCH   5   6
BRANCH   5  10
HETATM   10  N           1     -20.732 -10.971  -0.829  0.00  0.00    -0.066 N 
HETATM   11  H           1     -19.974 -11.046  -1.546  0.00  0.00     0.275 HD
HETATM   12  H           1     -20.646 -11.758  -0.148  0.00  0.00     0.275 HD
HETATM   13  H           1     -20.643 -10.060  -0.323  0.00  0.00     0.275 HD
ENDBRANCH   5  10
ENDBRANCH   1   5
BRANCH   2  14
HETATM   14  C           1     -20.907  -9.138  -4.625  0.00  0.00     0.185 C 
BRANCH  14  15
HETATM   15  C           1     -19.451  -8.889  -4.936  0.00  0.00     0.196 C 
HETATM   16  O           1     -18.583  -9.072  -4.055  0.00  0.00    -0.646 OA
HETATM   17  O           1     -19.112  -8.501  -6.075  0.00  0.00    -0.646 OA
ENDBRANCH  14  15
BRANCH  14  18
HETATM   18  C           1     -21.694  -7.848  -4.813  0.00  0.00     0.040 C 
BRANCH  18  19
HETATM   19  C           1     -21.049  -6.735  -3.995  0.00  0.00    -0.020 C 
HETATM   20  C           1     -20.852  -5.509  -4.876  0.00  0.00     0.009 C 
HETATM   21  C           1     -21.954  -6.380  -2.822  0.00  0.00     0.009 C 
ENDBRANCH  18  19
ENDBRANCH  14  18
ENDBRANCH   2  14
TORSDOF 8
ENDMDL
