MODEL 1
REMARK VINA RESULT:      -7.5      0.000      0.000
REMARK  9 active torsions:
REMARK  status: ('A' for Active; 'I' for Inactive)
REMARK    1  A    between atoms: O_2  and  C_12 
REMARK    2  A    between atoms: O_2  and  P_3 
REMARK    3  A    between atoms: P_3  and  O_8 
REMARK    4  A    between atoms: C_4  and  C_6 
REMARK    5  A    between atoms: C_6  and  C_16 
REMARK    6  A    between atoms: C_6  and  N_19 
REMARK    7  A    between atoms: N_10  and  C_17 
REMARK    8  A    between atoms: C_15  and  C_16 
REMARK    9  A    between atoms: C_17  and  C_18 
REMARK       I    between atoms: C_18  and  N_19 
ROOT
HETATM    1  C           1     -32.491  -4.336 -16.235  0.00  0.00     0.189 C 
ENDROOT
BRANCH   1   2
HETATM    2  C           1     -32.584  -3.292 -17.320  0.00  0.00     0.197 C 
HETATM    3  O           1     -33.675  -2.729 -17.554  0.00  0.00    -0.646 OA
HETATM    4  O           1     -31.569  -2.990 -17.985  0.00  0.00    -0.646 OA
ENDBRANCH   1   2
BRANCH   1   5
HETATM    5  C           1     -31.971  -5.640 -16.827  0.00  0.00     0.074 C 
BRANCH   5   6
HETATM    6  C           1     -30.473  -5.628 -16.822  0.00  0.00    -0.056 A 
HETATM    7  C           1     -29.768  -6.049 -17.951  0.00  0.00     0.010 A 
HETATM    8  C           1     -28.374  -6.039 -17.946  0.00  0.00     0.038 A 
HETATM    9  C           1     -27.684  -5.605 -16.814  0.00  0.00     0.081 A 
HETATM   10  C           1     -28.388  -5.185 -15.686  0.00  0.00     0.038 A 
HETATM   11  C           1     -29.783  -5.195 -15.690  0.00  0.00     0.010 A 
BRANCH   9  12
HETATM   12  O           1     -26.328  -5.594 -16.809  0.00  0.00    -0.247 OA
BRANCH  12  13
HETATM   13  P           1     -25.564  -6.700 -15.915  0.00  0.00     0.411 P 
HETATM   14  O           1     -24.578  -7.418 -16.753  0.00  0.00    -0.624 OA
HETATM   15  O           1     -26.549  -7.664 -15.377  0.00  0.00    -0.624 OA
BRANCH  13  16
HETATM   16  O           1     -24.801  -5.970 -14.693  0.00  0.00    -0.300 OA
HETATM   17  H           1     -23.896  -6.208 -14.793  0.00  0.00     0.223 HD
ENDBRANCH  13  16
ENDBRANCH  12  13
ENDBRANCH   9  12
ENDBRANCH   5   6
ENDBRANCH   1   5
BRANCH   1  18
HETATM   18  N           1     -33.806  -4.557 -15.665  0.00  0.00    -0.344 N 
HETATM   19  C           1     -34.135  -3.991 -14.462  0.00  0.00     0.248 C 
HETATM   20  O           1     -34.637  -2.893 -14.428  0.00  0.00    -0.271 OA
HETATM   21  H           1     -34.481  -5.128 -16.157  0.00  0.00     0.163 HD
BRANCH  19  22
HETATM   22  C           1     -33.870  -4.740 -13.179  0.00  0.00     0.270 C 
HETATM   23  C           1     -34.877  -4.308 -12.121  0.00  0.00     0.050 C 
BRANCH  22  24
HETATM   24  N           1     -32.482  -4.435 -12.700  0.00  0.00    -0.067 N 
HETATM   25  H           1     -32.377  -4.751 -11.710  0.00  0.00     0.275 HD
HETATM   26  H           1     -31.788  -4.937 -13.301  0.00  0.00     0.275 HD
HETATM   27  H           1     -32.311  -3.405 -12.758  0.00  0.00     0.275 HD
ENDBRANCH  22  24
ENDBRANCH  19  22
ENDBRANCH   1  18
TORSDOF 9
ENDMDL
MODEL 2
REMARK VINA RESULT:      -7.0     11.559     14.203
REMARK  9 active torsions:
REMARK  status: ('A' for Active; 'I' for Inactive)
REMARK    1  A    between atoms: O_2  and  C_12 
REMARK    2  A    between atoms: O_2  and  P_3 
REMARK    3  A    between atoms: P_3  and  O_8 
REMARK    4  A    between atoms: C_4  and  C_6 
REMARK    5  A    between atoms: C_6  and  C_16 
REMARK    6  A    between atoms: C_6  and  N_19 
REMARK    7  A    between atoms: N_10  and  C_17 
REMARK    8  A    between atoms: C_15  and  C_16 
REMARK    9  A    between atoms: C_17  and  C_18 
REMARK       I    between atoms: C_18  and  N_19 
ROOT
HETATM    1  C           1     -21.220  -7.711  -5.353  0.00  0.00     0.189 C 
ENDROOT
BRANCH   1   2
HETATM    2  C           1     -20.312  -8.848  -4.954  0.00  0.00     0.197 C 
HETATM    3  O           1     -19.144  -8.612  -4.578  0.00  0.00    -0.646 OA
HETATM    4  O           1     -20.729 -10.026  -4.998  0.00  0.00    -0.646 OA
ENDBRANCH   1   2
BRANCH   1   5
HETATM    5  C           1     -20.396  -6.441  -5.528  0.00  0.00     0.074 C 
BRANCH   5   6
HETATM    6  C           1     -20.927  -5.658  -6.689  0.00  0.00    -0.056 A 
HETATM    7  C           1     -22.155  -5.004  -6.586  0.00  0.00     0.010 A 
HETATM    8  C           1     -22.650  -4.275  -7.667  0.00  0.00     0.038 A 
HETATM    9  C           1     -21.915  -4.199  -8.851  0.00  0.00     0.081 A 
HETATM   10  C           1     -20.688  -4.853  -8.954  0.00  0.00     0.038 A 
HETATM   11  C           1     -20.193  -5.582  -7.872  0.00  0.00     0.010 A 
BRANCH   9  12
HETATM   12  O           1     -22.395  -3.490  -9.902  0.00  0.00    -0.247 OA
BRANCH  12  13
HETATM   13  P           1     -23.555  -4.162 -10.804  0.00  0.00     0.411 P 
HETATM   14  O           1     -24.728  -3.261 -10.849  0.00  0.00    -0.624 OA
HETATM   15  O           1     -23.951  -5.458 -10.211  0.00  0.00    -0.624 OA
BRANCH  13  16
HETATM   16  O           1     -23.001  -4.401 -12.302  0.00  0.00    -0.300 OA
HETATM   17  H           1     -23.085  -5.327 -12.449  0.00  0.00     0.223 HD
ENDBRANCH  13  16
ENDBRANCH  12  13
ENDBRANCH   9  12
ENDBRANCH   5   6
ENDBRANCH   1   5
BRANCH   1  18
HETATM   18  N           1     -22.214  -7.502  -4.318  0.00  0.00    -0.344 N 
HETATM   19  C           1     -21.836  -7.024  -3.091  0.00  0.00     0.248 C 
HETATM   20  O           1     -21.813  -5.833  -2.888  0.00  0.00    -0.271 OA
HETATM   21  H           1     -23.187  -7.709  -4.502  0.00  0.00     0.163 HD
BRANCH  19  22
HETATM   22  C           1     -21.446  -7.984  -1.994  0.00  0.00     0.270 C 
HETATM   23  C           1     -22.188  -7.621  -0.714  0.00  0.00     0.050 C 
BRANCH  22  24
HETATM   24  N           1     -19.968  -7.898  -1.757  0.00  0.00    -0.067 N 
HETATM   25  H           1     -19.504  -7.480  -2.595  0.00  0.00     0.275 HD
HETATM   26  H           1     -19.784  -7.296  -0.921  0.00  0.00     0.275 HD
HETATM   27  H           1     -19.586  -8.856  -1.588  0.00  0.00     0.275 HD
ENDBRANCH  22  24
ENDBRANCH  19  22
ENDBRANCH   1  18
TORSDOF 9
ENDMDL
MODEL 3
REMARK VINA RESULT:      -6.9     11.780     14.415
REMARK  9 active torsions:
REMARK  status: ('A' for Active; 'I' for Inactive)
REMARK    1  A    between atoms: O_2  and  C_12 
REMARK    2  A    between atoms: O_2  and  P_3 
REMARK    3  A    between atoms: P_3  and  O_8 
REMARK    4  A    between atoms: C_4  and  C_6 
REMARK    5  A    between atoms: C_6  and  C_16 
REMARK    6  A    between atoms: C_6  and  N_19 
REMARK    7  A    between atoms: N_10  and  C_17 
REMARK    8  A    between atoms: C_15  and  C_16 
REMARK    9  A    between atoms: C_17  and  C_18 
REMARK       I    between atoms: C_18  and  N_19 
ROOT
HETATM    1  C           1     -20.757  -7.992  -4.854  0.00  0.00     0.189 C 
ENDROOT
BRANCH   1   2
HETATM    2  C           1     -20.838  -9.389  -5.418  0.00  0.00     0.197 C 
HETATM    3  O           1     -21.612  -9.635  -6.368  0.00  0.00    -0.646 OA
HETATM    4  O           1     -20.131 -10.300  -4.936  0.00  0.00    -0.646 OA
ENDBRANCH   1   2
BRANCH   1   5
HETATM    5  C           1     -19.782  -7.166  -5.683  0.00  0.00     0.074 C 
BRANCH   5   6
HETATM    6  C           1     -20.541  -6.158  -6.490  0.00  0.00    -0.056 A 
HETATM    7  C           1     -21.831  -5.788  -6.108  0.00  0.00     0.010 A 
HETATM    8  C           1     -22.539  -4.851  -6.859  0.00  0.00     0.038 A 
HETATM    9  C           1     -21.956  -4.282  -7.991  0.00  0.00     0.081 A 
HETATM   10  C           1     -20.667  -4.651  -8.374  0.00  0.00     0.038 A 
HETATM   11  C           1     -19.958  -5.589  -7.622  0.00  0.00     0.010 A 
BRANCH   9  12
HETATM   12  O           1     -22.644  -3.369  -8.722  0.00  0.00    -0.247 OA
BRANCH  12  13
HETATM   13  P           1     -23.221  -3.828 -10.159  0.00  0.00     0.411 P 
HETATM   14  O           1     -23.494  -5.282 -10.140  0.00  0.00    -0.624 OA
HETATM   15  O           1     -22.223  -3.526 -11.209  0.00  0.00    -0.624 OA
BRANCH  13  16
HETATM   16  O           1     -24.589  -3.027 -10.469  0.00  0.00    -0.300 OA
HETATM   17  H           1     -25.159  -3.229  -9.747  0.00  0.00     0.223 HD
ENDBRANCH  13  16
ENDBRANCH  12  13
ENDBRANCH   9  12
ENDBRANCH   5   6
ENDBRANCH   1   5
BRANCH   1  18
HETATM   18  N           1     -20.292  -8.053  -3.482  0.00  0.00    -0.344 N 
HETATM   19  C           1     -21.195  -8.072  -2.452  0.00  0.00     0.248 C 
HETATM   20  O           1     -21.617  -9.125  -2.038  0.00  0.00    -0.271 OA
HETATM   21  H           1     -19.299  -8.082  -3.285  0.00  0.00     0.163 HD
BRANCH  19  22
HETATM   22  C           1     -21.665  -6.777  -1.837  0.00  0.00     0.270 C 
HETATM   23  C           1     -22.417  -7.070  -0.546  0.00  0.00     0.050 C 
BRANCH  22  24
HETATM   24  N           1     -22.575  -6.069  -2.796  0.00  0.00    -0.067 N 
HETATM   25  H           1     -22.834  -5.134  -2.406  0.00  0.00     0.275 HD
HETATM   26  H           1     -22.085  -5.940  -3.711  0.00  0.00     0.275 HD
HETATM   27  H           1     -23.439  -6.639  -2.940  0.00  0.00     0.275 HD
ENDBRANCH  22  24
ENDBRANCH  19  22
ENDBRANCH   1  18
TORSDOF 9
ENDMDL
MODEL 4
REMARK VINA RESULT:      -6.6     12.912     15.398
REMARK  9 active torsions:
REMARK  status: ('A' for Active; 'I' for Inactive)
REMARK    1  A    between atoms: O_2  and  C_12 
REMARK    2  A    between atoms: O_2  and  P_3 
REMARK    3  A    between atoms: P_3  and  O_8 
REMARK    4  A    between atoms: C_4  and  C_6 
REMARK    5  A    between atoms: C_6  and  C_16 
REMARK    6  A    between atoms: C_6  and  N_19 
REMARK    7  A    between atoms: N_10  and  C_17 
REMARK    8  A    between atoms: C_15  and  C_16 
REMARK    9  A    between atoms: C_17  and  C_18 
REMARK       I    between atoms: C_18  and  N_19 
ROOT
HETATM    1  C           1     -20.755  -5.076  -6.188  0.00  0.00     0.189 C 
ENDROOT
BRANCH   1   2
HETATM    2  C           1     -19.629  -5.364  -7.151  0.00  0.00     0.197 C 
HETATM    3  O           1     -18.902  -4.433  -7.559  0.00  0.00    -0.646 OA
HETATM    4  O           1     -19.424  -6.534  -7.540  0.00  0.00    -0.646 OA
ENDBRANCH   1   2
BRANCH   1   5
HETATM    5  C           1     -21.565  -6.345  -5.960  0.00  0.00     0.074 C 
BRANCH   5   6
HETATM    6  C           1     -21.347  -6.833  -4.561  0.00  0.00    -0.056 A 
HETATM    7  C           1     -21.984  -6.198  -3.493  0.00  0.00     0.010 A 
HETATM    8  C           1     -21.779  -6.651  -2.191  0.00  0.00     0.038 A 
HETATM    9  C           1     -20.940  -7.740  -1.955  0.00  0.00     0.081 A 
HETATM   10  C           1     -20.303  -8.374  -3.021  0.00  0.00     0.038 A 
HETATM   11  C           1     -20.507  -7.921  -4.325  0.00  0.00     0.010 A 
BRANCH   9  12
HETATM   12  O           1     -20.742  -8.181  -0.688  0.00  0.00    -0.247 OA
BRANCH  12  13
HETATM   13  P           1     -21.901  -9.076  -0.007  0.00  0.00     0.411 P 
HETATM   14  O           1     -21.289 -10.046   0.929  0.00  0.00    -0.624 OA
HETATM   15  O           1     -22.642  -9.806  -1.059  0.00  0.00    -0.624 OA
BRANCH  13  16
HETATM   16  O           1     -22.917  -8.116   0.802  0.00  0.00    -0.300 OA
HETATM   17  H           1     -23.489  -7.758   0.145  0.00  0.00     0.223 HD
ENDBRANCH  13  16
ENDBRANCH  12  13
ENDBRANCH   9  12
ENDBRANCH   5   6
ENDBRANCH   1   5
BRANCH   1  18
HETATM   18  N           1     -21.614  -4.049  -6.745  0.00  0.00    -0.344 N 
HETATM   19  C           1     -22.795  -4.395  -7.345  0.00  0.00     0.248 C 
HETATM   20  O           1     -23.808  -4.462  -6.689  0.00  0.00    -0.271 OA
HETATM   21  H           1     -21.341  -3.076  -6.689  0.00  0.00     0.163 HD
BRANCH  19  22
HETATM   22  C           1     -22.832  -4.694  -8.823  0.00  0.00     0.270 C 
HETATM   23  C           1     -21.831  -3.804  -9.547  0.00  0.00     0.050 C 
BRANCH  22  24
HETATM   24  N           1     -24.210  -4.429  -9.352  0.00  0.00    -0.067 N 
HETATM   25  H           1     -24.596  -5.304  -9.773  0.00  0.00     0.275 HD
HETATM   26  H           1     -24.829  -4.117  -8.570  0.00  0.00     0.275 HD
HETATM   27  H           1     -24.165  -3.681 -10.081  0.00  0.00     0.275 HD
ENDBRANCH  22  24
ENDBRANCH  19  22
ENDBRANCH   1  18
TORSDOF 9
ENDMDL
MODEL 5
REMARK VINA RESULT:      -6.5     14.353     16.217
REMARK  9 active torsions:
REMARK  status: ('A' for Active; 'I' for Inactive)
REMARK    1  A    between atoms: O_2  and  C_12 
REMARK    2  A    between atoms: O_2  and  P_3 
REMARK    3  A    between atoms: P_3  and  O_8 
REMARK    4  A    between atoms: C_4  and  C_6 
REMARK    5  A    between atoms: C_6  and  C_16 
REMARK    6  A    between atoms: C_6  and  N_19 
REMARK    7  A    between atoms: N_10  and  C_17 
REMARK    8  A    between atoms: C_15  and  C_16 
REMARK    9  A    between atoms: C_17  and  C_18 
REMARK       I    between atoms: C_18  and  N_19 
ROOT
HETATM    1  C           1     -21.840 -10.123  -2.736  0.00  0.00     0.189 C 
ENDROOT
BRANCH   1   2
HETATM    2  C           1     -22.236 -11.387  -3.459  0.00  0.00     0.197 C 
HETATM    3  O           1     -22.032 -11.494  -4.688  0.00  0.00    -0.646 OA
HETATM    4  O           1     -22.768 -12.327  -2.830  0.00  0.00    -0.646 OA
ENDBRANCH   1   2
BRANCH   1   5
HETATM    5  C           1     -20.452  -9.692  -3.190  0.00  0.00     0.074 C 
BRANCH   5   6
HETATM    6  C           1     -20.542  -8.369  -3.887  0.00  0.00    -0.056 A 
HETATM    7  C           1     -21.215  -7.307  -3.283  0.00  0.00     0.010 A 
HETATM    8  C           1     -21.301  -6.076  -3.932  0.00  0.00     0.038 A 
HETATM    9  C           1     -20.712  -5.906  -5.185  0.00  0.00     0.081 A 
HETATM   10  C           1     -20.039  -6.968  -5.789  0.00  0.00     0.038 A 
HETATM   11  C           1     -19.953  -8.200  -5.140  0.00  0.00     0.010 A 
BRANCH   9  12
HETATM   12  O           1     -20.794  -4.709  -5.816  0.00  0.00    -0.247 OA
BRANCH  12  13
HETATM   13  P           1     -21.892  -4.544  -6.988  0.00  0.00     0.411 P 
HETATM   14  O           1     -23.222  -4.944  -6.478  0.00  0.00    -0.624 OA
HETATM   15  O           1     -21.524  -5.405  -8.134  0.00  0.00    -0.624 OA
BRANCH  13  16
HETATM   16  O           1     -21.940  -3.002  -7.466  0.00  0.00    -0.300 OA
HETATM   17  H           1     -22.856  -2.783  -7.493  0.00  0.00     0.223 HD
ENDBRANCH  13  16
ENDBRANCH  12  13
ENDBRANCH   9  12
ENDBRANCH   5   6
ENDBRANCH   1   5
BRANCH   1  18
HETATM   18  N           1     -21.825 -10.370  -1.308  0.00  0.00    -0.344 N 
HETATM   19  C           1     -22.732  -9.743  -0.494  0.00  0.00     0.248 C 
HETATM   20  O           1     -23.799 -10.261  -0.267  0.00  0.00    -0.271 OA
HETATM   21  H           1     -21.146 -11.007  -0.911  0.00  0.00     0.163 HD
BRANCH  19  22
HETATM   22  C           1     -22.397  -8.404   0.117  0.00  0.00     0.270 C 
HETATM   23  C           1     -21.270  -8.574   1.127  0.00  0.00     0.050 C 
BRANCH  22  24
HETATM   24  N           1     -23.608  -7.854   0.808  0.00  0.00    -0.067 N 
HETATM   25  H           1     -23.360  -6.958   1.286  0.00  0.00     0.275 HD
HETATM   26  H           1     -24.360  -7.676   0.104  0.00  0.00     0.275 HD
HETATM   27  H           1     -23.949  -8.544   1.515  0.00  0.00     0.275 HD
ENDBRANCH  22  24
ENDBRANCH  19  22
ENDBRANCH   1  18
TORSDOF 9
ENDMDL
MODEL 6
REMARK VINA RESULT:      -6.2     14.570     17.028
REMARK  9 active torsions:
REMARK  status: ('A' for Active; 'I' for Inactive)
REMARK    1  A    between atoms: O_2  and  C_12 
REMARK    2  A    between atoms: O_2  and  P_3 
REMARK    3  A    between atoms: P_3  and  O_8 
REMARK    4  A    between atoms: C_4  and  C_6 
REMARK    5  A    between atoms: C_6  and  C_16 
REMARK    6  A    between atoms: C_6  and  N_19 
REMARK    7  A    between atoms: N_10  and  C_17 
REMARK    8  A    between atoms: C_15  and  C_16 
REMARK    9  A    between atoms: C_17  and  C_18 
REMARK       I    between atoms: C_18  and  N_19 
ROOT
HETATM    1  C           1     -20.430 -10.439  -1.978  0.00  0.00     0.189 C 
ENDROOT
BRANCH   1   2
HETATM    2  C           1     -19.631 -11.670  -2.331  0.00  0.00     0.197 C 
HETATM    3  O           1     -18.956 -11.697  -3.382  0.00  0.00    -0.646 OA
HETATM    4  O           1     -19.643 -12.662  -1.570  0.00  0.00    -0.646 OA
ENDBRANCH   1   2
BRANCH   1   5
HETATM    5  C           1     -19.585  -9.196  -2.228  0.00  0.00     0.074 C 
BRANCH   5   6
HETATM    6  C           1     -20.318  -8.271  -3.149  0.00  0.00    -0.056 A 
HETATM    7  C           1     -20.389  -8.556  -4.513  0.00  0.00     0.010 A 
HETATM    8  C           1     -21.071  -7.693  -5.371  0.00  0.00     0.038 A 
HETATM    9  C           1     -21.684  -6.547  -4.865  0.00  0.00     0.081 A 
HETATM   10  C           1     -21.613  -6.262  -3.502  0.00  0.00     0.038 A 
HETATM   11  C           1     -20.932  -7.125  -2.643  0.00  0.00     0.010 A 
BRANCH   9  12
HETATM   12  O           1     -22.348  -5.709  -5.699  0.00  0.00    -0.247 OA
BRANCH  12  13
HETATM   13  P           1     -21.485  -4.871  -6.777  0.00  0.00     0.411 P 
HETATM   14  O           1     -21.042  -5.773  -7.863  0.00  0.00    -0.624 OA
HETATM   15  O           1     -20.302  -4.283  -6.110  0.00  0.00    -0.624 OA
BRANCH  13  16
HETATM   16  O           1     -22.398  -3.691  -7.395  0.00  0.00    -0.300 OA
HETATM   17  H           1     -23.121  -4.132  -7.807  0.00  0.00     0.223 HD
ENDBRANCH  13  16
ENDBRANCH  12  13
ENDBRANCH   9  12
ENDBRANCH   5   6
ENDBRANCH   1   5
BRANCH   1  18
HETATM   18  N           1     -20.806 -10.494  -0.579  0.00  0.00    -0.344 N 
HETATM   19  C           1     -22.058 -10.096  -0.191  0.00  0.00     0.248 C 
HETATM   20  O           1     -22.961 -10.898  -0.153  0.00  0.00    -0.271 OA
HETATM   21  H           1     -20.144 -10.825   0.111  0.00  0.00     0.163 HD
BRANCH  19  22
HETATM   22  C           1     -22.310  -8.658   0.188  0.00  0.00     0.270 C 
HETATM   23  C           1     -21.441  -8.287   1.383  0.00  0.00     0.050 C 
BRANCH  22  24
HETATM   24  N           1     -23.755  -8.482   0.548  0.00  0.00    -0.067 N 
HETATM   25  H           1     -24.352  -8.972  -0.156  0.00  0.00     0.275 HD
HETATM   26  H           1     -23.931  -8.888   1.495  0.00  0.00     0.275 HD
HETATM   27  H           1     -23.990  -7.463   0.556  0.00  0.00     0.275 HD
ENDBRANCH  22  24
ENDBRANCH  19  22
ENDBRANCH   1  18
TORSDOF 9
ENDMDL
MODEL 7
REMARK VINA RESULT:      -6.0     14.873     17.387
REMARK  9 active torsions:
REMARK  status: ('A' for Active; 'I' for Inactive)
REMARK    1  A    between atoms: O_2  and  C_12 
REMARK    2  A    between atoms: O_2  and  P_3 
REMARK    3  A    between atoms: P_3  and  O_8 
REMARK    4  A    between atoms: C_4  and  C_6 
REMARK    5  A    between atoms: C_6  and  C_16 
REMARK    6  A    between atoms: C_6  and  N_19 
REMARK    7  A    between atoms: N_10  and  C_17 
REMARK    8  A    between atoms: C_15  and  C_16 
REMARK    9  A    between atoms: C_17  and  C_18 
REMARK       I    between atoms: C_18  and  N_19 
ROOT
HETATM    1  C           1     -20.484 -10.639  -1.438  0.00  0.00     0.189 C 
ENDROOT
BRANCH   1   2
HETATM    2  C           1     -19.006 -10.945  -1.435  0.00  0.00     0.197 C 
HETATM    3  O           1     -18.270 -10.480  -2.332  0.00  0.00    -0.646 OA
HETATM    4  O           1     -18.519 -11.663  -0.535  0.00  0.00    -0.646 OA
ENDBRANCH   1   2
BRANCH   1   5
HETATM    5  C           1     -20.710  -9.220  -0.930  0.00  0.00     0.074 C 
BRANCH   5   6
HETATM    6  C           1     -21.166  -8.352  -2.062  0.00  0.00    -0.056 A 
HETATM    7  C           1     -21.244  -8.873  -3.354  0.00  0.00     0.010 A 
HETATM    8  C           1     -21.668  -8.064  -4.407  0.00  0.00     0.038 A 
HETATM    9  C           1     -22.016  -6.734  -4.169  0.00  0.00     0.081 A 
HETATM   10  C           1     -21.938  -6.213  -2.878  0.00  0.00     0.038 A 
HETATM   11  C           1     -21.514  -7.022  -1.823  0.00  0.00     0.010 A 
BRANCH   9  12
HETATM   12  O           1     -22.429  -5.948  -5.193  0.00  0.00    -0.247 OA
BRANCH  12  13
HETATM   13  P           1     -21.310  -5.370  -6.205  0.00  0.00     0.411 P 
HETATM   14  O           1     -20.179  -4.818  -5.426  0.00  0.00    -0.624 OA
HETATM   15  O           1     -21.905  -4.301  -7.037  0.00  0.00    -0.624 OA
BRANCH  13  16
HETATM   16  O           1     -20.779  -6.561  -7.156  0.00  0.00    -0.300 OA
HETATM   17  H           1     -21.017  -6.301  -8.029  0.00  0.00     0.223 HD
ENDBRANCH  13  16
ENDBRANCH  12  13
ENDBRANCH   9  12
ENDBRANCH   5   6
ENDBRANCH   1   5
BRANCH   1  18
HETATM   18  N           1     -21.172 -11.576  -0.571  0.00  0.00    -0.344 N 
HETATM   19  C           1     -22.005 -12.521  -1.109  0.00  0.00     0.248 C 
HETATM   20  O           1     -21.568 -13.602  -1.426  0.00  0.00    -0.271 OA
HETATM   21  H           1     -21.036 -11.532   0.431  0.00  0.00     0.163 HD
BRANCH  19  22
HETATM   22  C           1     -23.469 -12.212  -1.305  0.00  0.00     0.270 C 
HETATM   23  C           1     -23.900 -11.142  -0.311  0.00  0.00     0.050 C 
BRANCH  22  24
HETATM   24  N           1     -24.276 -13.456  -1.081  0.00  0.00    -0.067 N 
HETATM   25  H           1     -24.382 -13.971  -1.984  0.00  0.00     0.275 HD
HETATM   26  H           1     -23.788 -14.068  -0.387  0.00  0.00     0.275 HD
HETATM   27  H           1     -25.220 -13.197  -0.714  0.00  0.00     0.275 HD
ENDBRANCH  22  24
ENDBRANCH  19  22
ENDBRANCH   1  18
TORSDOF 9
ENDMDL
MODEL 8
REMARK VINA RESULT:      -5.9     14.968     17.125
REMARK  9 active torsions:
REMARK  status: ('A' for Active; 'I' for Inactive)
REMARK    1  A    between atoms: O_2  and  C_12 
REMARK    2  A    between atoms: O_2  and  P_3 
REMARK    3  A    between atoms: P_3  and  O_8 
REMARK    4  A    between atoms: C_4  and  C_6 
REMARK    5  A    between atoms: C_6  and  C_16 
REMARK    6  A    between atoms: C_6  and  N_19 
REMARK    7  A    between atoms: N_10  and  C_17 
REMARK    8  A    between atoms: C_15  and  C_16 
REMARK    9  A    between atoms: C_17  and  C_18 
REMARK       I    between atoms: C_18  and  N_19 
ROOT
HETATM    1  C           1     -20.523  -7.352  -4.535  0.00  0.00     0.189 C 
ENDROOT
BRANCH   1   2
HETATM    2  C           1     -20.602  -6.311  -5.624  0.00  0.00     0.197 C 
HETATM    3  O           1     -20.531  -5.097  -5.335  0.00  0.00    -0.646 OA
HETATM    4  O           1     -20.737  -6.663  -6.816  0.00  0.00    -0.646 OA
ENDBRANCH   1   2
BRANCH   1   5
HETATM    5  C           1     -20.326  -8.727  -5.159  0.00  0.00     0.074 C 
BRANCH   5   6
HETATM    6  C           1     -18.945  -9.221  -4.853  0.00  0.00    -0.056 A 
HETATM    7  C           1     -18.529  -9.352  -3.528  0.00  0.00     0.010 A 
HETATM    8  C           1     -17.244  -9.811  -3.243  0.00  0.00     0.038 A 
HETATM    9  C           1     -16.375 -10.141  -4.283  0.00  0.00     0.081 A 
HETATM   10  C           1     -16.790 -10.010  -5.608  0.00  0.00     0.038 A 
HETATM   11  C           1     -18.076  -9.551  -5.893  0.00  0.00     0.010 A 
BRANCH   9  12
HETATM   12  O           1     -15.125 -10.588  -4.006  0.00  0.00    -0.247 OA
BRANCH  12  13
HETATM   13  P           1     -14.772 -12.123  -4.363  0.00  0.00     0.411 P 
HETATM   14  O           1     -15.997 -12.947  -4.263  0.00  0.00    -0.624 OA
HETATM   15  O           1     -13.758 -12.629  -3.412  0.00  0.00    -0.624 OA
BRANCH  13  16
HETATM   16  O           1     -14.190 -12.205  -5.867  0.00  0.00    -0.300 OA
HETATM   17  H           1     -14.941 -12.368  -6.411  0.00  0.00     0.223 HD
ENDBRANCH  13  16
ENDBRANCH  12  13
ENDBRANCH   9  12
ENDBRANCH   5   6
ENDBRANCH   1   5
BRANCH   1  18
HETATM   18  N           1     -21.755  -7.342  -3.770  0.00  0.00    -0.344 N 
HETATM   19  C           1     -21.759  -6.867  -2.485  0.00  0.00     0.248 C 
HETATM   20  O           1     -21.974  -5.696  -2.275  0.00  0.00    -0.271 OA
HETATM   21  H           1     -22.611  -7.686  -4.185  0.00  0.00     0.163 HD
BRANCH  19  22
HETATM   22  C           1     -21.495  -7.804  -1.333  0.00  0.00     0.270 C 
HETATM   23  C           1     -21.846  -9.228  -1.744  0.00  0.00     0.050 C 
BRANCH  22  24
HETATM   24  N           1     -22.336  -7.401  -0.158  0.00  0.00    -0.067 N 
HETATM   25  H           1     -23.347  -7.534  -0.391  0.00  0.00     0.275 HD
HETATM   26  H           1     -22.089  -7.994   0.667  0.00  0.00     0.275 HD
HETATM   27  H           1     -22.160  -6.396   0.069  0.00  0.00     0.275 HD
ENDBRANCH  22  24
ENDBRANCH  19  22
ENDBRANCH   1  18
TORSDOF 9
ENDMDL
MODEL 9
REMARK VINA RESULT:      -5.9     16.684     18.682
REMARK  9 active torsions:
REMARK  status: ('A' for Active; 'I' for Inactive)
REMARK    1  A    between atoms: O_2  and  C_12 
REMARK    2  A    between atoms: O_2  and  P_3 
REMARK    3  A    between atoms: P_3  and  O_8 
REMARK    4  A    between atoms: C_4  and  C_6 
REMARK    5  A    between atoms: C_6  and  C_16 
REMARK    6  A    between atoms: C_6  and  N_19 
REMARK    7  A    between atoms: N_10  and  C_17 
REMARK    8  A    between atoms: C_15  and  C_16 
REMARK    9  A    between atoms: C_17  and  C_18 
REMARK       I    between atoms: C_18  and  N_19 
ROOT
HETATM    1  C           1     -21.423  -8.156  -1.752  0.00  0.00     0.189 C 
ENDROOT
BRANCH   1   2
HETATM    2  C           1     -21.988  -6.765  -1.899  0.00  0.00     0.197 C 
HETATM    3  O           1     -21.806  -6.125  -2.957  0.00  0.00    -0.646 OA
HETATM    4  O           1     -22.639  -6.253  -0.962  0.00  0.00    -0.646 OA
ENDBRANCH   1   2
BRANCH   1   5
HETATM    5  C           1     -21.296  -8.500  -0.273  0.00  0.00     0.074 C 
BRANCH   5   6
HETATM    6  C           1     -21.895  -9.849  -0.021  0.00  0.00    -0.056 A 
HETATM    7  C           1     -21.128 -10.854   0.570  0.00  0.00     0.010 A 
HETATM    8  C           1     -21.685 -12.110   0.803  0.00  0.00     0.038 A 
HETATM    9  C           1     -23.011 -12.362   0.449  0.00  0.00     0.081 A 
HETATM   10  C           1     -23.778 -11.358  -0.142  0.00  0.00     0.038 A 
HETATM   11  C           1     -23.221 -10.100  -0.376  0.00  0.00     0.010 A 
BRANCH   9  12
HETATM   12  O           1     -23.553 -13.583   0.677  0.00  0.00    -0.247 OA
BRANCH  12  13
HETATM   13  P           1     -23.592 -14.636  -0.547  0.00  0.00     0.411 P 
HETATM   14  O           1     -24.941 -14.636  -1.156  0.00  0.00    -0.624 OA
HETATM   15  O           1     -23.280 -15.991  -0.040  0.00  0.00    -0.624 OA
BRANCH  13  16
HETATM   16  O           1     -22.500 -14.211  -1.657  0.00  0.00    -0.300 OA
HETATM   17  H           1     -22.825 -14.564  -2.467  0.00  0.00     0.223 HD
ENDBRANCH  13  16
ENDBRANCH  12  13
ENDBRANCH   9  12
ENDBRANCH   5   6
ENDBRANCH   1   5
BRANCH   1  18
HETATM   18  N           1     -20.114  -8.212  -2.374  0.00  0.00    -0.344 N 
HETATM   19  C           1     -19.909  -9.008  -3.469  0.00  0.00     0.248 C 
HETATM   20  O           1     -20.084  -8.565  -4.579  0.00  0.00    -0.271 OA
HETATM   21  H           1     -19.351  -7.662  -1.998  0.00  0.00     0.163 HD
BRANCH  19  22
HETATM   22  C           1     -19.467 -10.440  -3.289  0.00  0.00     0.270 C 
HETATM   23  C           1     -20.690 -11.339  -3.173  0.00  0.00     0.050 C 
BRANCH  22  24
HETATM   24  N           1     -18.642 -10.554  -2.042  0.00  0.00    -0.067 N 
HETATM   25  H           1     -18.206 -11.503  -1.998  0.00  0.00     0.275 HD
HETATM   26  H           1     -17.890  -9.827  -2.054  0.00  0.00     0.275 HD
HETATM   27  H           1     -19.252 -10.412  -1.206  0.00  0.00     0.275 HD
ENDBRANCH  22  24
ENDBRANCH  19  22
ENDBRANCH   1  18
TORSDOF 9
ENDMDL
