MODEL 1
REMARK VINA RESULT:      -6.6      0.000      0.000
REMARK  17 active torsions:
REMARK  status: ('A' for Active; 'I' for Inactive)
REMARK       I    between atoms: C_2  and  N_3 
REMARK       I    between atoms: C_2  and  N_4 
REMARK    1  A    between atoms: N_5  and  C_33 
REMARK    2  A    between atoms: O_6  and  P_37 
REMARK    3  A    between atoms: N_8  and  C_16 
REMARK    4  A    between atoms: N_8  and  C_9 
REMARK    5  A    between atoms: C_9  and  C_10 
REMARK    6  A    between atoms: C_10  and  C_19 
REMARK    7  A    between atoms: C_11  and  C_16 
REMARK    8  A    between atoms: C_12  and  C_33 
REMARK    9  A    between atoms: C_12  and  C_13 
REMARK   10  A    between atoms: C_13  and  C_14 
REMARK   11  A    between atoms: C_14  and  N_15 
REMARK   12  A    between atoms: C_16  and  C_18 
REMARK   13  A    between atoms: C_18  and  O_36 
REMARK   14  A    between atoms: C_19  and  C_20 
REMARK   15  A    between atoms: C_19  and  N_35 
REMARK   16  A    between atoms: C_33  and  C_34 
REMARK       I    between atoms: C_34  and  N_35 
REMARK   17  A    between atoms: O_36  and  P_37 
ROOT
HETATM    1  O           1     -21.838  -9.108  -2.644  0.00  0.00    -0.271 OA
HETATM    2  H           1     -20.612  -6.419  -3.696  0.00  0.00     0.163 HD
HETATM    3  C           1     -21.485  -7.953  -2.615  0.00  0.00     0.249 C 
HETATM    4  N           1     -20.908  -7.387  -3.719  0.00  0.00    -0.345 N 
ENDROOT
BRANCH   4   5
HETATM    5  C           1     -20.720  -8.173  -4.924  0.00  0.00     0.187 C 
BRANCH   5   6
HETATM    6  C           1     -20.987  -7.302  -6.144  0.00  0.00     0.066 C 
BRANCH   6   7
HETATM    7  C           1     -21.778  -6.069  -5.726  0.00  0.00     0.273 C 
BRANCH   7   8
HETATM    8  N           1     -21.235  -4.908  -6.377  0.00  0.00     0.100 N 
HETATM    9  H           1     -20.224  -4.887  -6.248  0.00  0.00     0.317 HD
BRANCH   8  10
HETATM   10  C           1     -21.537  -5.010  -7.779  0.00  0.00     0.344 C 
BRANCH  10  11
HETATM   11  C           1     -20.357  -4.524  -8.584  0.00  0.00     0.209 C 
HETATM   12  O           1     -19.691  -3.544  -8.187  0.00  0.00    -0.646 OA
HETATM   13  O           1     -20.046  -5.103  -9.648  0.00  0.00    -0.646 OA
ENDBRANCH  10  11
BRANCH  10  14
HETATM   14  C           1     -22.757  -4.156  -8.098  0.00  0.00     0.228 C 
BRANCH  14  15
HETATM   15  O           1     -22.701  -3.742  -9.436  0.00  0.00    -0.287 OA
BRANCH  15  16
HETATM   16  P           1     -24.001  -4.075 -10.336  0.00  0.00     0.406 P 
HETATM   17  O           1     -24.671  -2.811 -10.719  0.00  0.00    -0.624 OA
HETATM   18  O           1     -23.584  -4.801 -11.555  0.00  0.00    -0.624 OA
BRANCH  16  19
HETATM   19  O           1     -25.023  -4.991  -9.486  0.00  0.00    -0.300 OA
HETATM   20  H           1     -25.606  -4.382  -9.067  0.00  0.00     0.223 HD
ENDBRANCH  16  19
ENDBRANCH  15  16
ENDBRANCH  14  15
ENDBRANCH  10  14
ENDBRANCH   8  10
ENDBRANCH   7   8
ENDBRANCH   6   7
ENDBRANCH   5   6
BRANCH   5  21
HETATM   21  C           1     -19.303  -8.688  -4.972  0.00  0.00     0.196 C 
HETATM   22  O           1     -18.750  -8.895  -6.074  0.00  0.00    -0.646 OA
HETATM   23  O           1     -18.681  -8.906  -3.909  0.00  0.00    -0.646 OA
ENDBRANCH   5  21
ENDBRANCH   4   5
BRANCH   3  24
HETATM   24  C           1     -21.679  -7.135  -1.362  0.00  0.00     0.274 C 
BRANCH  24  25
HETATM   25  N           1     -22.281  -5.808  -1.721  0.00  0.00    -0.067 N 
HETATM   26  H           1     -22.501  -5.790  -2.743  0.00  0.00     0.275 HD
HETATM   27  H           1     -23.160  -5.667  -1.173  0.00  0.00     0.275 HD
HETATM   28  H           1     -21.603  -5.046  -1.497  0.00  0.00     0.257 HD
ENDBRANCH  24  25
BRANCH  24  29
HETATM   29  C           1     -22.612  -7.874  -0.412  0.00  0.00     0.044 C 
BRANCH  29  30
HETATM   30  C           1     -21.943  -8.019   0.949  0.00  0.00     0.023 C 
BRANCH  30  31
HETATM   31  C           1     -21.036  -9.243   0.940  0.00  0.00     0.156 C 
BRANCH  31  32
HETATM   32  N           1     -21.732 -10.366   0.296  0.00  0.00    -0.227 N 
HETATM   33  C           1     -21.121 -11.093  -0.541  0.00  0.00     0.665 C 
HETATM   34  N           1     -21.721 -12.061  -1.096  0.00  0.00    -0.235 N 
HETATM   35  N           1     -19.878 -10.849  -0.830  0.00  0.00    -0.235 N 
HETATM   36  H           1     -21.214 -12.664  -1.790  0.00  0.00     0.174 HD
HETATM   37  H           1     -22.725 -12.259  -0.863  0.00  0.00     0.174 HD
HETATM   38  H           1     -19.373 -11.449  -1.521  0.00  0.00     0.174 HD
HETATM   39  H           1     -19.383 -10.050  -0.372  0.00  0.00     0.174 HD
HETATM   40  H           1     -22.737 -10.565   0.529  0.00  0.00     0.177 HD
ENDBRANCH  31  32
ENDBRANCH  30  31
ENDBRANCH  29  30
ENDBRANCH  24  29
ENDBRANCH   3  24
TORSDOF 17
ENDMDL
MODEL 2
REMARK VINA RESULT:      -6.5      3.914      7.855
REMARK  17 active torsions:
REMARK  status: ('A' for Active; 'I' for Inactive)
REMARK       I    between atoms: C_2  and  N_3 
REMARK       I    between atoms: C_2  and  N_4 
REMARK    1  A    between atoms: N_5  and  C_33 
REMARK    2  A    between atoms: O_6  and  P_37 
REMARK    3  A    between atoms: N_8  and  C_16 
REMARK    4  A    between atoms: N_8  and  C_9 
REMARK    5  A    between atoms: C_9  and  C_10 
REMARK    6  A    between atoms: C_10  and  C_19 
REMARK    7  A    between atoms: C_11  and  C_16 
REMARK    8  A    between atoms: C_12  and  C_33 
REMARK    9  A    between atoms: C_12  and  C_13 
REMARK   10  A    between atoms: C_13  and  C_14 
REMARK   11  A    between atoms: C_14  and  N_15 
REMARK   12  A    between atoms: C_16  and  C_18 
REMARK   13  A    between atoms: C_18  and  O_36 
REMARK   14  A    between atoms: C_19  and  C_20 
REMARK   15  A    between atoms: C_19  and  N_35 
REMARK   16  A    between atoms: C_33  and  C_34 
REMARK       I    between atoms: C_34  and  N_35 
REMARK   17  A    between atoms: O_36  and  P_37 
ROOT
HETATM    1  O           1     -22.145  -8.017  -4.659  0.00  0.00    -0.271 OA
HETATM    2  H           1     -19.813  -7.343  -2.672  0.00  0.00     0.163 HD
HETATM    3  C           1     -21.057  -7.633  -4.300  0.00  0.00     0.249 C 
HETATM    4  N           1     -20.724  -7.665  -2.973  0.00  0.00    -0.345 N 
ENDROOT
BRANCH   4   5
HETATM    5  C           1     -21.676  -8.160  -1.998  0.00  0.00     0.187 C 
BRANCH   5   6
HETATM    6  C           1     -20.963  -9.078  -1.014  0.00  0.00     0.066 C 
BRANCH   6   7
HETATM    7  C           1     -20.800 -10.459  -1.635  0.00  0.00     0.273 C 
BRANCH   7   8
HETATM    8  N           1     -19.412 -10.833  -1.615  0.00  0.00     0.100 N 
HETATM    9  H           1     -19.274 -11.592  -0.948  0.00  0.00     0.317 HD
BRANCH   8  10
HETATM   10  C           1     -19.060 -11.282  -2.934  0.00  0.00     0.344 C 
BRANCH  10  11
HETATM   11  C           1     -18.031 -10.350  -3.525  0.00  0.00     0.209 C 
HETATM   12  O           1     -17.198 -10.781  -4.350  0.00  0.00    -0.646 OA
HETATM   13  O           1     -18.012  -9.147  -3.188  0.00  0.00    -0.646 OA
ENDBRANCH  10  11
BRANCH  10  14
HETATM   14  C           1     -20.303 -11.292  -3.814  0.00  0.00     0.228 C 
BRANCH  14  15
HETATM   15  O           1     -20.179 -12.293  -4.788  0.00  0.00    -0.287 OA
BRANCH  15  16
HETATM   16  P           1     -20.295 -11.805  -6.324  0.00  0.00     0.406 P 
HETATM   17  O           1     -20.745 -12.936  -7.167  0.00  0.00    -0.624 OA
HETATM   18  O           1     -21.274 -10.700  -6.418  0.00  0.00    -0.624 OA
BRANCH  16  19
HETATM   19  O           1     -18.852 -11.292  -6.836  0.00  0.00    -0.300 OA
HETATM   20  H           1     -18.410 -10.995  -6.059  0.00  0.00     0.223 HD
ENDBRANCH  16  19
ENDBRANCH  15  16
ENDBRANCH  14  15
ENDBRANCH  10  14
ENDBRANCH   8  10
ENDBRANCH   7   8
ENDBRANCH   6   7
ENDBRANCH   5   6
BRANCH   5  21
HETATM   21  C           1     -22.283  -6.996  -1.253  0.00  0.00     0.196 C 
HETATM   22  O           1     -22.117  -5.830  -1.673  0.00  0.00    -0.646 OA
HETATM   23  O           1     -22.951  -7.199  -0.216  0.00  0.00    -0.646 OA
ENDBRANCH   5  21
ENDBRANCH   4   5
BRANCH   3  24
HETATM   24  C           1     -20.066  -7.117  -5.314  0.00  0.00     0.274 C 
BRANCH  24  25
HETATM   25  N           1     -19.350  -8.274  -5.946  0.00  0.00    -0.067 N 
HETATM   26  H           1     -18.547  -8.559  -5.340  0.00  0.00     0.275 HD
HETATM   27  H           1     -20.011  -9.076  -6.049  0.00  0.00     0.275 HD
HETATM   28  H           1     -18.993  -7.991  -6.887  0.00  0.00     0.257 HD
ENDBRANCH  24  25
BRANCH  24  29
HETATM   29  C           1     -20.803  -6.330  -6.390  0.00  0.00     0.044 C 
BRANCH  29  30
HETATM   30  C           1     -20.695  -4.839  -6.094  0.00  0.00     0.023 C 
BRANCH  30  31
HETATM   31  C           1     -20.886  -4.050  -7.383  0.00  0.00     0.156 C 
BRANCH  31  32
HETATM   32  N           1     -22.298  -3.665  -7.518  0.00  0.00    -0.227 N 
HETATM   33  C           1     -22.954  -4.013  -8.543  0.00  0.00     0.665 C 
HETATM   34  N           1     -24.171  -3.681  -8.659  0.00  0.00    -0.235 N 
HETATM   35  N           1     -22.380  -4.711  -9.477  0.00  0.00    -0.235 N 
HETATM   36  H           1     -24.715  -3.970  -9.510  0.00  0.00     0.174 HD
HETATM   37  H           1     -24.635  -3.118  -7.905  0.00  0.00     0.174 HD
HETATM   38  H           1     -22.921  -4.998 -10.324  0.00  0.00     0.174 HD
HETATM   39  H           1     -21.375  -4.985  -9.381  0.00  0.00     0.174 HD
HETATM   40  H           1     -22.764  -3.101  -6.763  0.00  0.00     0.177 HD
ENDBRANCH  31  32
ENDBRANCH  30  31
ENDBRANCH  29  30
ENDBRANCH  24  29
ENDBRANCH   3  24
TORSDOF 17
ENDMDL
MODEL 3
REMARK VINA RESULT:      -6.4      4.202      8.724
REMARK  17 active torsions:
REMARK  status: ('A' for Active; 'I' for Inactive)
REMARK       I    between atoms: C_2  and  N_3 
REMARK       I    between atoms: C_2  and  N_4 
REMARK    1  A    between atoms: N_5  and  C_33 
REMARK    2  A    between atoms: O_6  and  P_37 
REMARK    3  A    between atoms: N_8  and  C_16 
REMARK    4  A    between atoms: N_8  and  C_9 
REMARK    5  A    between atoms: C_9  and  C_10 
REMARK    6  A    between atoms: C_10  and  C_19 
REMARK    7  A    between atoms: C_11  and  C_16 
REMARK    8  A    between atoms: C_12  and  C_33 
REMARK    9  A    between atoms: C_12  and  C_13 
REMARK   10  A    between atoms: C_13  and  C_14 
REMARK   11  A    between atoms: C_14  and  N_15 
REMARK   12  A    between atoms: C_16  and  C_18 
REMARK   13  A    between atoms: C_18  and  O_36 
REMARK   14  A    between atoms: C_19  and  C_20 
REMARK   15  A    between atoms: C_19  and  N_35 
REMARK   16  A    between atoms: C_33  and  C_34 
REMARK       I    between atoms: C_34  and  N_35 
REMARK   17  A    between atoms: O_36  and  P_37 
ROOT
HETATM    1  O           1     -21.736  -7.812  -5.318  0.00  0.00    -0.271 OA
HETATM    2  H           1     -20.325  -5.823  -3.345  0.00  0.00     0.163 HD
HETATM    3  C           1     -21.133  -6.827  -4.965  0.00  0.00     0.249 C 
HETATM    4  N           1     -20.830  -6.649  -3.642  0.00  0.00    -0.345 N 
ENDROOT
BRANCH   4   5
HETATM    5  C           1     -21.231  -7.643  -2.665  0.00  0.00     0.187 C 
BRANCH   5   6
HETATM    6  C           1     -19.992  -8.291  -2.063  0.00  0.00     0.066 C 
BRANCH   6   7
HETATM    7  C           1     -20.058  -9.798  -2.264  0.00  0.00     0.273 C 
BRANCH   7   8
HETATM    8  N           1     -20.132 -10.092  -3.670  0.00  0.00     0.100 N 
HETATM    9  H           1     -20.596  -9.324  -4.153  0.00  0.00     0.317 HD
BRANCH   8  10
HETATM   10  C           1     -18.788 -10.226  -4.161  0.00  0.00     0.344 C 
BRANCH  10  11
HETATM   11  C           1     -18.776 -10.022  -5.656  0.00  0.00     0.209 C 
HETATM   12  O           1     -18.998 -10.986  -6.420  0.00  0.00    -0.646 OA
HETATM   13  O           1     -18.545  -8.889  -6.130  0.00  0.00    -0.646 OA
ENDBRANCH  10  11
BRANCH  10  14
HETATM   14  C           1     -18.264 -11.617  -3.833  0.00  0.00     0.228 C 
BRANCH  14  15
HETATM   15  O           1     -16.908 -11.538  -3.487  0.00  0.00    -0.287 OA
BRANCH  15  16
HETATM   16  P           1     -15.861 -12.081  -4.590  0.00  0.00     0.406 P 
HETATM   17  O           1     -15.131 -10.937  -5.182  0.00  0.00    -0.624 OA
HETATM   18  O           1     -14.898 -13.001  -3.946  0.00  0.00    -0.624 OA
BRANCH  16  19
HETATM   19  O           1     -16.663 -12.868  -5.751  0.00  0.00    -0.300 OA
HETATM   20  H           1     -16.897 -12.205  -6.377  0.00  0.00     0.223 HD
ENDBRANCH  16  19
ENDBRANCH  15  16
ENDBRANCH  14  15
ENDBRANCH  10  14
ENDBRANCH   8  10
ENDBRANCH   7   8
ENDBRANCH   6   7
ENDBRANCH   5   6
BRANCH   5  21
HETATM   21  C           1     -22.034  -6.978  -1.574  0.00  0.00     0.196 C 
HETATM   22  O           1     -22.073  -7.483  -0.431  0.00  0.00    -0.646 OA
HETATM   23  O           1     -22.660  -5.923  -1.813  0.00  0.00    -0.646 OA
ENDBRANCH   5  21
ENDBRANCH   4   5
BRANCH   3  24
HETATM   24  C           1     -20.715  -5.792  -5.980  0.00  0.00     0.274 C 
BRANCH  24  25
HETATM   25  N           1     -19.931  -6.454  -7.074  0.00  0.00    -0.067 N 
HETATM   26  H           1     -19.014  -6.783  -6.695  0.00  0.00     0.275 HD
HETATM   27  H           1     -20.469  -7.270  -7.442  0.00  0.00     0.275 HD
HETATM   28  H           1     -19.763  -5.769  -7.846  0.00  0.00     0.257 HD
ENDBRANCH  24  25
BRANCH  24  29
HETATM   29  C           1     -21.955  -5.133  -6.573  0.00  0.00     0.044 C 
BRANCH  29  30
HETATM   30  C           1     -21.545  -3.895  -7.360  0.00  0.00     0.023 C 
BRANCH  30  31
HETATM   31  C           1     -22.141  -3.964  -8.761  0.00  0.00     0.156 C 
BRANCH  31  32
HETATM   32  N           1     -23.562  -3.594  -8.708  0.00  0.00    -0.227 N 
HETATM   33  C           1     -24.315  -3.831  -9.698  0.00  0.00     0.665 C 
HETATM   34  N           1     -25.540  -3.513  -9.653  0.00  0.00    -0.235 N 
HETATM   35  N           1     -23.832  -4.403 -10.761  0.00  0.00    -0.235 N 
HETATM   36  H           1     -26.164  -3.710 -10.474  0.00  0.00     0.174 HD
HETATM   37  H           1     -25.931  -3.051  -8.795  0.00  0.00     0.174 HD
HETATM   38  H           1     -24.453  -4.599 -11.578  0.00  0.00     0.174 HD
HETATM   39  H           1     -22.821  -4.666 -10.798  0.00  0.00     0.174 HD
HETATM   40  H           1     -23.954  -3.132  -7.850  0.00  0.00     0.177 HD
ENDBRANCH  31  32
ENDBRANCH  30  31
ENDBRANCH  29  30
ENDBRANCH  24  29
ENDBRANCH   3  24
TORSDOF 17
ENDMDL
MODEL 4
REMARK VINA RESULT:      -6.4      3.793      8.436
REMARK  17 active torsions:
REMARK  status: ('A' for Active; 'I' for Inactive)
REMARK       I    between atoms: C_2  and  N_3 
REMARK       I    between atoms: C_2  and  N_4 
REMARK    1  A    between atoms: N_5  and  C_33 
REMARK    2  A    between atoms: O_6  and  P_37 
REMARK    3  A    between atoms: N_8  and  C_16 
REMARK    4  A    between atoms: N_8  and  C_9 
REMARK    5  A    between atoms: C_9  and  C_10 
REMARK    6  A    between atoms: C_10  and  C_19 
REMARK    7  A    between atoms: C_11  and  C_16 
REMARK    8  A    between atoms: C_12  and  C_33 
REMARK    9  A    between atoms: C_12  and  C_13 
REMARK   10  A    between atoms: C_13  and  C_14 
REMARK   11  A    between atoms: C_14  and  N_15 
REMARK   12  A    between atoms: C_16  and  C_18 
REMARK   13  A    between atoms: C_18  and  O_36 
REMARK   14  A    between atoms: C_19  and  C_20 
REMARK   15  A    between atoms: C_19  and  N_35 
REMARK   16  A    between atoms: C_33  and  C_34 
REMARK       I    between atoms: C_34  and  N_35 
REMARK   17  A    between atoms: O_36  and  P_37 
ROOT
HETATM    1  O           1     -19.613  -7.005  -6.792  0.00  0.00    -0.271 OA
HETATM    2  H           1     -20.669  -7.912  -3.981  0.00  0.00     0.163 HD
HETATM    3  C           1     -20.272  -6.970  -5.780  0.00  0.00     0.249 C 
HETATM    4  N           1     -20.117  -7.941  -4.829  0.00  0.00    -0.345 N 
ENDROOT
BRANCH   4   5
HETATM    5  C           1     -19.162  -9.013  -5.035  0.00  0.00     0.187 C 
BRANCH   5   6
HETATM    6  C           1     -18.504  -9.368  -3.708  0.00  0.00     0.066 C 
BRANCH   6   7
HETATM    7  C           1     -19.530  -9.264  -2.588  0.00  0.00     0.273 C 
BRANCH   7   8
HETATM    8  N           1     -19.418 -10.411  -1.727  0.00  0.00     0.100 N 
HETATM    9  H           1     -18.864 -10.167  -0.906  0.00  0.00     0.317 HD
BRANCH   8  10
HETATM   10  C           1     -20.745 -10.783  -1.318  0.00  0.00     0.344 C 
BRANCH  10  11
HETATM   11  C           1     -21.073 -12.151  -1.864  0.00  0.00     0.209 C 
HETATM   12  O           1     -21.904 -12.271  -2.789  0.00  0.00    -0.646 OA
HETATM   13  O           1     -20.513 -13.163  -1.390  0.00  0.00    -0.646 OA
ENDBRANCH  10  11
BRANCH  10  14
HETATM   14  C           1     -21.744  -9.767  -1.855  0.00  0.00     0.228 C 
BRANCH  14  15
HETATM   15  O           1     -22.658  -9.432  -0.847  0.00  0.00    -0.287 OA
BRANCH  15  16
HETATM   16  P           1     -22.410  -8.018  -0.106  0.00  0.00     0.406 P 
HETATM   17  O           1     -21.329  -8.170   0.895  0.00  0.00    -0.624 OA
HETATM   18  O           1     -22.016  -7.001  -1.105  0.00  0.00    -0.624 OA
BRANCH  16  19
HETATM   19  O           1     -23.768  -7.552   0.632  0.00  0.00    -0.300 OA
HETATM   20  H           1     -24.076  -6.816   0.132  0.00  0.00     0.223 HD
ENDBRANCH  16  19
ENDBRANCH  15  16
ENDBRANCH  14  15
ENDBRANCH  10  14
ENDBRANCH   8  10
ENDBRANCH   7   8
ENDBRANCH   6   7
ENDBRANCH   5   6
BRANCH   5  21
HETATM   21  C           1     -19.878 -10.224  -5.582  0.00  0.00     0.196 C 
HETATM   22  O           1     -19.273 -11.020  -6.334  0.00  0.00    -0.646 OA
HETATM   23  O           1     -21.074 -10.430  -5.285  0.00  0.00    -0.646 OA
ENDBRANCH   5  21
ENDBRANCH   4   5
BRANCH   3  24
HETATM   24  C           1     -21.266  -5.855  -5.565  0.00  0.00     0.274 C 
BRANCH  24  25
HETATM   25  N           1     -21.727  -5.866  -4.137  0.00  0.00    -0.067 N 
HETATM   26  H           1     -20.953  -5.537  -3.518  0.00  0.00     0.275 HD
HETATM   27  H           1     -22.551  -5.231  -4.034  0.00  0.00     0.275 HD
HETATM   28  H           1     -22.000  -6.839  -3.867  0.00  0.00     0.257 HD
ENDBRANCH  24  25
BRANCH  24  29
HETATM   29  C           1     -20.603  -4.518  -5.872  0.00  0.00     0.044 C 
BRANCH  29  30
HETATM   30  C           1     -21.460  -3.742  -6.864  0.00  0.00     0.023 C 
BRANCH  30  31
HETATM   31  C           1     -22.303  -4.716  -7.677  0.00  0.00     0.156 C 
BRANCH  31  32
HETATM   32  N           1     -23.580  -4.082  -8.033  0.00  0.00    -0.227 N 
HETATM   33  C           1     -24.014  -4.153  -9.220  0.00  0.00     0.665 C 
HETATM   34  N           1     -25.115  -3.607  -9.526  0.00  0.00    -0.235 N 
HETATM   35  N           1     -23.331  -4.789 -10.125  0.00  0.00    -0.235 N 
HETATM   36  H           1     -25.474  -3.667 -10.511  0.00  0.00     0.174 HD
HETATM   37  H           1     -25.667  -3.094  -8.795  0.00  0.00     0.174 HD
HETATM   38  H           1     -23.688  -4.849 -11.105  0.00  0.00     0.174 HD
HETATM   39  H           1     -22.422  -5.240  -9.872  0.00  0.00     0.174 HD
HETATM   40  H           1     -24.134  -3.568  -7.302  0.00  0.00     0.177 HD
ENDBRANCH  31  32
ENDBRANCH  30  31
ENDBRANCH  29  30
ENDBRANCH  24  29
ENDBRANCH   3  24
TORSDOF 17
ENDMDL
MODEL 5
REMARK VINA RESULT:      -6.3      3.846      9.380
REMARK  17 active torsions:
REMARK  status: ('A' for Active; 'I' for Inactive)
REMARK       I    between atoms: C_2  and  N_3 
REMARK       I    between atoms: C_2  and  N_4 
REMARK    1  A    between atoms: N_5  and  C_33 
REMARK    2  A    between atoms: O_6  and  P_37 
REMARK    3  A    between atoms: N_8  and  C_16 
REMARK    4  A    between atoms: N_8  and  C_9 
REMARK    5  A    between atoms: C_9  and  C_10 
REMARK    6  A    between atoms: C_10  and  C_19 
REMARK    7  A    between atoms: C_11  and  C_16 
REMARK    8  A    between atoms: C_12  and  C_33 
REMARK    9  A    between atoms: C_12  and  C_13 
REMARK   10  A    between atoms: C_13  and  C_14 
REMARK   11  A    between atoms: C_14  and  N_15 
REMARK   12  A    between atoms: C_16  and  C_18 
REMARK   13  A    between atoms: C_18  and  O_36 
REMARK   14  A    between atoms: C_19  and  C_20 
REMARK   15  A    between atoms: C_19  and  N_35 
REMARK   16  A    between atoms: C_33  and  C_34 
REMARK       I    between atoms: C_34  and  N_35 
REMARK   17  A    between atoms: O_36  and  P_37 
ROOT
HETATM    1  O           1     -20.003  -4.631  -5.777  0.00  0.00    -0.271 OA
HETATM    2  H           1     -22.227  -6.770  -6.340  0.00  0.00     0.163 HD
HETATM    3  C           1     -20.935  -5.153  -6.341  0.00  0.00     0.249 C 
HETATM    4  N           1     -21.446  -6.332  -5.868  0.00  0.00    -0.345 N 
ENDROOT
BRANCH   4   5
HETATM    5  C           1     -20.871  -6.952  -4.690  0.00  0.00     0.187 C 
BRANCH   5   6
HETATM    6  C           1     -21.913  -6.998  -3.581  0.00  0.00     0.066 C 
BRANCH   6   7
HETATM    7  C           1     -21.245  -6.710  -2.244  0.00  0.00     0.273 C 
BRANCH   7   8
HETATM    8  N           1     -20.842  -7.948  -1.633  0.00  0.00     0.100 N 
HETATM    9  H           1     -20.250  -7.752  -0.826  0.00  0.00     0.317 HD
BRANCH   8  10
HETATM   10  C           1     -22.031  -8.631  -1.202  0.00  0.00     0.344 C 
BRANCH  10  11
HETATM   11  C           1     -22.301  -8.304   0.246  0.00  0.00     0.209 C 
HETATM   12  O           1     -21.363  -8.297   1.071  0.00  0.00    -0.646 OA
HETATM   13  O           1     -23.465  -8.039   0.620  0.00  0.00    -0.646 OA
ENDBRANCH  10  11
BRANCH  10  14
HETATM   14  C           1     -21.836 -10.134  -1.356  0.00  0.00     0.228 C 
BRANCH  14  15
HETATM   15  O           1     -20.466 -10.425  -1.412  0.00  0.00    -0.287 OA
BRANCH  15  16
HETATM   16  P           1     -19.921 -11.488  -0.325  0.00  0.00     0.406 P 
HETATM   17  O           1     -20.655 -12.765  -0.474  0.00  0.00    -0.624 OA
HETATM   18  O           1     -18.477 -11.721  -0.544  0.00  0.00    -0.624 OA
BRANCH  16  19
HETATM   19  O           1     -20.152 -10.902   1.162  0.00  0.00    -0.300 OA
HETATM   20  H           1     -19.920  -9.991   1.104  0.00  0.00     0.223 HD
ENDBRANCH  16  19
ENDBRANCH  15  16
ENDBRANCH  14  15
ENDBRANCH  10  14
ENDBRANCH   8  10
ENDBRANCH   7   8
ENDBRANCH   6   7
ENDBRANCH   5   6
BRANCH   5  21
HETATM   21  C           1     -20.430  -8.355  -5.027  0.00  0.00     0.196 C 
HETATM   22  O           1     -19.382  -8.541  -5.683  0.00  0.00    -0.646 OA
HETATM   23  O           1     -21.114  -9.332  -4.650  0.00  0.00    -0.646 OA
ENDBRANCH   5  21
ENDBRANCH   4   5
BRANCH   3  24
HETATM   24  C           1     -21.534  -4.509  -7.567  0.00  0.00     0.274 C 
BRANCH  24  25
HETATM   25  N           1     -21.617  -3.025  -7.360  0.00  0.00    -0.067 N 
HETATM   26  H           1     -22.008  -2.827  -6.411  0.00  0.00     0.275 HD
HETATM   27  H           1     -20.662  -2.610  -7.438  0.00  0.00     0.275 HD
HETATM   28  H           1     -22.240  -2.607  -8.088  0.00  0.00     0.257 HD
ENDBRANCH  24  25
BRANCH  24  29
HETATM   29  C           1     -20.656  -4.804  -8.776  0.00  0.00     0.044 C 
BRANCH  29  30
HETATM   30  C           1     -20.812  -3.688  -9.802  0.00  0.00     0.023 C 
BRANCH  30  31
HETATM   31  C           1     -21.887  -4.073 -10.810  0.00  0.00     0.156 C 
BRANCH  31  32
HETATM   32  N           1     -23.155  -3.427 -10.447  0.00  0.00    -0.227 N 
HETATM   33  C           1     -24.172  -4.132 -10.180  0.00  0.00     0.665 C 
HETATM   34  N           1     -25.265  -3.575  -9.866  0.00  0.00    -0.235 N 
HETATM   35  N           1     -24.094  -5.429 -10.226  0.00  0.00    -0.235 N 
HETATM   36  H           1     -26.108  -4.161  -9.645  0.00  0.00     0.174 HD
HETATM   37  H           1     -25.328  -2.528  -9.828  0.00  0.00     0.174 HD
HETATM   38  H           1     -24.933  -6.012 -10.006  0.00  0.00     0.174 HD
HETATM   39  H           1     -23.192  -5.889 -10.485  0.00  0.00     0.174 HD
HETATM   40  H           1     -23.220  -2.379 -10.408  0.00  0.00     0.177 HD
ENDBRANCH  31  32
ENDBRANCH  30  31
ENDBRANCH  29  30
ENDBRANCH  24  29
ENDBRANCH   3  24
TORSDOF 17
ENDMDL
MODEL 6
REMARK VINA RESULT:      -6.2      1.504      2.814
REMARK  17 active torsions:
REMARK  status: ('A' for Active; 'I' for Inactive)
REMARK       I    between atoms: C_2  and  N_3 
REMARK       I    between atoms: C_2  and  N_4 
REMARK    1  A    between atoms: N_5  and  C_33 
REMARK    2  A    between atoms: O_6  and  P_37 
REMARK    3  A    between atoms: N_8  and  C_16 
REMARK    4  A    between atoms: N_8  and  C_9 
REMARK    5  A    between atoms: C_9  and  C_10 
REMARK    6  A    between atoms: C_10  and  C_19 
REMARK    7  A    between atoms: C_11  and  C_16 
REMARK    8  A    between atoms: C_12  and  C_33 
REMARK    9  A    between atoms: C_12  and  C_13 
REMARK   10  A    between atoms: C_13  and  C_14 
REMARK   11  A    between atoms: C_14  and  N_15 
REMARK   12  A    between atoms: C_16  and  C_18 
REMARK   13  A    between atoms: C_18  and  O_36 
REMARK   14  A    between atoms: C_19  and  C_20 
REMARK   15  A    between atoms: C_19  and  N_35 
REMARK   16  A    between atoms: C_33  and  C_34 
REMARK       I    between atoms: C_34  and  N_35 
REMARK   17  A    between atoms: O_36  and  P_37 
ROOT
HETATM    1  O           1     -21.597 -10.973  -5.212  0.00  0.00    -0.271 OA
HETATM    2  H           1     -21.956  -8.918  -2.869  0.00  0.00     0.163 HD
HETATM    3  C           1     -21.835 -10.582  -4.094  0.00  0.00     0.249 C 
HETATM    4  N           1     -21.757  -9.246  -3.806  0.00  0.00    -0.345 N 
ENDROOT
BRANCH   4   5
HETATM    5  C           1     -21.389  -8.300  -4.841  0.00  0.00     0.187 C 
BRANCH   5   6
HETATM    6  C           1     -21.851  -6.905  -4.441  0.00  0.00     0.066 C 
BRANCH   6   7
HETATM    7  C           1     -22.350  -6.162  -5.673  0.00  0.00     0.273 C 
BRANCH   7   8
HETATM    8  N           1     -21.351  -5.221  -6.102  0.00  0.00     0.100 N 
HETATM    9  H           1     -20.424  -5.581  -5.875  0.00  0.00     0.317 HD
BRANCH   8  10
HETATM   10  C           1     -21.471  -5.074  -7.527  0.00  0.00     0.344 C 
BRANCH  10  11
HETATM   11  C           1     -20.099  -4.916  -8.134  0.00  0.00     0.209 C 
HETATM   12  O           1     -19.964  -4.888  -9.376  0.00  0.00    -0.646 OA
HETATM   13  O           1     -19.097  -4.812  -7.394  0.00  0.00    -0.646 OA
ENDBRANCH  10  11
BRANCH  10  14
HETATM   14  C           1     -22.311  -3.843  -7.841  0.00  0.00     0.228 C 
BRANCH  14  15
HETATM   15  O           1     -23.497  -4.234  -8.476  0.00  0.00    -0.287 OA
BRANCH  15  16
HETATM   16  P           1     -23.571  -3.965 -10.067  0.00  0.00     0.406 P 
HETATM   17  O           1     -23.791  -5.247 -10.775  0.00  0.00    -0.624 OA
HETATM   18  O           1     -24.691  -3.043 -10.360  0.00  0.00    -0.624 OA
BRANCH  16  19
HETATM   19  O           1     -22.185  -3.304 -10.566  0.00  0.00    -0.300 OA
HETATM   20  H           1     -22.366  -2.983 -11.433  0.00  0.00     0.223 HD
ENDBRANCH  16  19
ENDBRANCH  15  16
ENDBRANCH  14  15
ENDBRANCH  10  14
ENDBRANCH   8  10
ENDBRANCH   7   8
ENDBRANCH   6   7
ENDBRANCH   5   6
BRANCH   5  21
HETATM   21  C           1     -19.890  -8.305  -5.016  0.00  0.00     0.196 C 
HETATM   22  O           1     -19.383  -7.882  -6.078  0.00  0.00    -0.646 OA
HETATM   23  O           1     -19.156  -8.731  -4.099  0.00  0.00    -0.646 OA
ENDBRANCH   5  21
ENDBRANCH   4   5
BRANCH   3  24
HETATM   24  C           1     -22.218 -11.565  -3.015  0.00  0.00     0.274 C 
BRANCH  24  25
HETATM   25  N           1     -21.053 -12.464  -2.724  0.00  0.00    -0.067 N 
HETATM   26  H           1     -20.475 -12.577  -3.588  0.00  0.00     0.275 HD
HETATM   27  H           1     -20.469 -12.042  -1.967  0.00  0.00     0.275 HD
HETATM   28  H           1     -21.403 -13.399  -2.416  0.00  0.00     0.257 HD
ENDBRANCH  24  25
BRANCH  24  29
HETATM   29  C           1     -22.601 -10.808  -1.751  0.00  0.00     0.044 C 
BRANCH  29  30
HETATM   30  C           1     -21.525 -11.010  -0.691  0.00  0.00     0.023 C 
BRANCH  30  31
HETATM   31  C           1     -21.567  -9.854   0.301  0.00  0.00     0.156 C 
BRANCH  31  32
HETATM   32  N           1     -21.509  -8.579  -0.428  0.00  0.00    -0.227 N 
HETATM   33  C           1     -22.437  -7.729  -0.290  0.00  0.00     0.665 C 
HETATM   34  N           1     -22.387  -6.630  -0.917  0.00  0.00    -0.235 N 
HETATM   35  N           1     -23.440  -7.982   0.497  0.00  0.00    -0.235 N 
HETATM   36  H           1     -23.157  -5.925  -0.802  0.00  0.00     0.174 HD
HETATM   37  H           1     -21.578  -6.425  -1.553  0.00  0.00     0.174 HD
HETATM   38  H           1     -24.206  -7.281   0.612  0.00  0.00     0.174 HD
HETATM   39  H           1     -23.480  -8.889   1.016  0.00  0.00     0.174 HD
HETATM   40  H           1     -20.699  -8.373  -1.064  0.00  0.00     0.177 HD
ENDBRANCH  31  32
ENDBRANCH  30  31
ENDBRANCH  29  30
ENDBRANCH  24  29
ENDBRANCH   3  24
TORSDOF 17
ENDMDL
MODEL 7
REMARK VINA RESULT:      -6.2      4.568      9.342
REMARK  17 active torsions:
REMARK  status: ('A' for Active; 'I' for Inactive)
REMARK       I    between atoms: C_2  and  N_3 
REMARK       I    between atoms: C_2  and  N_4 
REMARK    1  A    between atoms: N_5  and  C_33 
REMARK    2  A    between atoms: O_6  and  P_37 
REMARK    3  A    between atoms: N_8  and  C_16 
REMARK    4  A    between atoms: N_8  and  C_9 
REMARK    5  A    between atoms: C_9  and  C_10 
REMARK    6  A    between atoms: C_10  and  C_19 
REMARK    7  A    between atoms: C_11  and  C_16 
REMARK    8  A    between atoms: C_12  and  C_33 
REMARK    9  A    between atoms: C_12  and  C_13 
REMARK   10  A    between atoms: C_13  and  C_14 
REMARK   11  A    between atoms: C_14  and  N_15 
REMARK   12  A    between atoms: C_16  and  C_18 
REMARK   13  A    between atoms: C_18  and  O_36 
REMARK   14  A    between atoms: C_19  and  C_20 
REMARK   15  A    between atoms: C_19  and  N_35 
REMARK   16  A    between atoms: C_33  and  C_34 
REMARK       I    between atoms: C_34  and  N_35 
REMARK   17  A    between atoms: O_36  and  P_37 
ROOT
HETATM    1  O           1     -21.235  -7.938  -5.454  0.00  0.00    -0.271 OA
HETATM    2  H           1     -20.672  -5.614  -3.422  0.00  0.00     0.163 HD
HETATM    3  C           1     -20.946  -6.827  -5.077  0.00  0.00     0.249 C 
HETATM    4  N           1     -20.914  -6.545  -3.738  0.00  0.00    -0.345 N 
ENDROOT
BRANCH   4   5
HETATM    5  C           1     -21.226  -7.580  -2.771  0.00  0.00     0.187 C 
BRANCH   5   6
HETATM    6  C           1     -19.936  -8.107  -2.158  0.00  0.00     0.066 C 
BRANCH   6   7
HETATM    7  C           1     -19.650  -9.502  -2.696  0.00  0.00     0.273 C 
BRANCH   7   8
HETATM    8  N           1     -18.879  -9.401  -3.906  0.00  0.00     0.100 N 
HETATM    9  H           1     -18.944  -8.452  -4.272  0.00  0.00     0.317 HD
BRANCH   8  10
HETATM   10  C           1     -17.511  -9.697  -3.579  0.00  0.00     0.344 C 
BRANCH  10  11
HETATM   11  C           1     -16.735  -9.951  -4.848  0.00  0.00     0.209 C 
HETATM   12  O           1     -15.551 -10.346  -4.789  0.00  0.00    -0.646 OA
HETATM   13  O           1     -17.277  -9.765  -5.960  0.00  0.00    -0.646 OA
ENDBRANCH  10  11
BRANCH  10  14
HETATM   14  C           1     -17.457 -10.935  -2.694  0.00  0.00     0.228 C 
BRANCH  14  15
HETATM   15  O           1     -16.442 -10.784  -1.740  0.00  0.00    -0.287 OA
BRANCH  15  16
HETATM   16  P           1     -16.207 -12.038  -0.750  0.00  0.00     0.406 P 
HETATM   17  O           1     -15.246 -12.981  -1.368  0.00  0.00    -0.624 OA
HETATM   18  O           1     -15.663 -11.555   0.539  0.00  0.00    -0.624 OA
BRANCH  16  19
HETATM   19  O           1     -17.612 -12.792  -0.493  0.00  0.00    -0.300 OA
HETATM   20  H           1     -17.381 -13.693  -0.344  0.00  0.00     0.223 HD
ENDBRANCH  16  19
ENDBRANCH  15  16
ENDBRANCH  14  15
ENDBRANCH  10  14
ENDBRANCH   8  10
ENDBRANCH   7   8
ENDBRANCH   6   7
ENDBRANCH   5   6
BRANCH   5  21
HETATM   21  C           1     -22.102  -7.005  -1.686  0.00  0.00     0.196 C 
HETATM   22  O           1     -22.353  -7.678  -0.662  0.00  0.00    -0.646 OA
HETATM   23  O           1     -22.577  -5.855  -1.810  0.00  0.00    -0.646 OA
ENDBRANCH   5  21
ENDBRANCH   4   5
BRANCH   3  24
HETATM   24  C           1     -20.621  -5.749  -6.082  0.00  0.00     0.274 C 
BRANCH  24  25
HETATM   25  N           1     -19.896  -6.355  -7.247  0.00  0.00    -0.067 N 
HETATM   26  H           1     -19.306  -5.626  -7.708  0.00  0.00     0.275 HD
HETATM   27  H           1     -19.286  -7.134  -6.909  0.00  0.00     0.275 HD
HETATM   28  H           1     -20.590  -6.728  -7.934  0.00  0.00     0.257 HD
ENDBRANCH  24  25
BRANCH  24  29
HETATM   29  C           1     -21.912  -5.104  -6.570  0.00  0.00     0.044 C 
BRANCH  29  30
HETATM   30  C           1     -21.586  -3.831  -7.340  0.00  0.00     0.023 C 
BRANCH  30  31
HETATM   31  C           1     -22.167  -3.925  -8.745  0.00  0.00     0.156 C 
BRANCH  31  32
HETATM   32  N           1     -23.593  -3.572  -8.712  0.00  0.00    -0.227 N 
HETATM   33  C           1     -24.339  -3.860  -9.693  0.00  0.00     0.665 C 
HETATM   34  N           1     -25.568  -3.556  -9.664  0.00  0.00    -0.235 N 
HETATM   35  N           1     -23.845  -4.468 -10.730  0.00  0.00    -0.235 N 
HETATM   36  H           1     -26.187  -3.794 -10.479  0.00  0.00     0.174 HD
HETATM   37  H           1     -25.968  -3.065  -8.827  0.00  0.00     0.174 HD
HETATM   38  H           1     -24.461  -4.705 -11.541  0.00  0.00     0.174 HD
HETATM   39  H           1     -22.830  -4.718 -10.754  0.00  0.00     0.174 HD
HETATM   40  H           1     -23.993  -3.081  -7.874  0.00  0.00     0.177 HD
ENDBRANCH  31  32
ENDBRANCH  30  31
ENDBRANCH  29  30
ENDBRANCH  24  29
ENDBRANCH   3  24
TORSDOF 17
ENDMDL
MODEL 8
REMARK VINA RESULT:      -6.2      4.043      8.016
REMARK  17 active torsions:
REMARK  status: ('A' for Active; 'I' for Inactive)
REMARK       I    between atoms: C_2  and  N_3 
REMARK       I    between atoms: C_2  and  N_4 
REMARK    1  A    between atoms: N_5  and  C_33 
REMARK    2  A    between atoms: O_6  and  P_37 
REMARK    3  A    between atoms: N_8  and  C_16 
REMARK    4  A    between atoms: N_8  and  C_9 
REMARK    5  A    between atoms: C_9  and  C_10 
REMARK    6  A    between atoms: C_10  and  C_19 
REMARK    7  A    between atoms: C_11  and  C_16 
REMARK    8  A    between atoms: C_12  and  C_33 
REMARK    9  A    between atoms: C_12  and  C_13 
REMARK   10  A    between atoms: C_13  and  C_14 
REMARK   11  A    between atoms: C_14  and  N_15 
REMARK   12  A    between atoms: C_16  and  C_18 
REMARK   13  A    between atoms: C_18  and  O_36 
REMARK   14  A    between atoms: C_19  and  C_20 
REMARK   15  A    between atoms: C_19  and  N_35 
REMARK   16  A    between atoms: C_33  and  C_34 
REMARK       I    between atoms: C_34  and  N_35 
REMARK   17  A    between atoms: O_36  and  P_37 
ROOT
HETATM    1  O           1     -21.866  -7.723  -5.355  0.00  0.00    -0.271 OA
HETATM    2  H           1     -20.234  -5.880  -3.411  0.00  0.00     0.163 HD
HETATM    3  C           1     -21.175  -6.793  -5.011  0.00  0.00     0.249 C 
HETATM    4  N           1     -20.812  -6.659  -3.699  0.00  0.00    -0.345 N 
ENDROOT
BRANCH   4   5
HETATM    5  C           1     -21.255  -7.633  -2.720  0.00  0.00     0.187 C 
BRANCH   5   6
HETATM    6  C           1     -20.044  -8.330  -2.115  0.00  0.00     0.066 C 
BRANCH   6   7
HETATM    7  C           1     -19.777  -9.628  -2.864  0.00  0.00     0.273 C 
BRANCH   7   8
HETATM    8  N           1     -18.500  -9.548  -3.522  0.00  0.00     0.100 N 
HETATM    9  H           1     -17.771  -9.881  -2.891  0.00  0.00     0.317 HD
BRANCH   8  10
HETATM   10  C           1     -18.552 -10.393  -4.684  0.00  0.00     0.344 C 
BRANCH  10  11
HETATM   11  C           1     -17.715  -9.787  -5.783  0.00  0.00     0.209 C 
HETATM   12  O           1     -16.513 -10.106  -5.902  0.00  0.00    -0.646 OA
HETATM   13  O           1     -18.225  -8.966  -6.576  0.00  0.00    -0.646 OA
ENDBRANCH  10  11
BRANCH  10  14
HETATM   14  C           1     -19.995 -10.521  -5.154  0.00  0.00     0.228 C 
BRANCH  14  15
HETATM   15  O           1     -20.211 -11.810  -5.657  0.00  0.00    -0.287 OA
BRANCH  15  16
HETATM   16  P           1     -21.527 -12.573  -5.112  0.00  0.00     0.406 P 
HETATM   17  O           1     -22.270 -13.152  -6.255  0.00  0.00    -0.624 OA
HETATM   18  O           1     -21.124 -13.655  -4.188  0.00  0.00    -0.624 OA
BRANCH  16  19
HETATM   19  O           1     -22.473 -11.522  -4.332  0.00  0.00    -0.300 OA
HETATM   20  H           1     -21.961 -10.734  -4.269  0.00  0.00     0.223 HD
ENDBRANCH  16  19
ENDBRANCH  15  16
ENDBRANCH  14  15
ENDBRANCH  10  14
ENDBRANCH   8  10
ENDBRANCH   7   8
ENDBRANCH   6   7
ENDBRANCH   5   6
BRANCH   5  21
HETATM   21  C           1     -22.032  -6.934  -1.632  0.00  0.00     0.196 C 
HETATM   22  O           1     -22.599  -5.846  -1.869  0.00  0.00    -0.646 OA
HETATM   23  O           1     -22.108  -7.444  -0.493  0.00  0.00    -0.646 OA
ENDBRANCH   5  21
ENDBRANCH   4   5
BRANCH   3  24
HETATM   24  C           1     -20.714  -5.778  -6.029  0.00  0.00     0.274 C 
BRANCH  24  25
HETATM   25  N           1     -19.889  -6.462  -7.078  0.00  0.00    -0.067 N 
HETATM   26  H           1     -19.751  -5.817  -7.889  0.00  0.00     0.275 HD
HETATM   27  H           1     -18.960  -6.720  -6.676  0.00  0.00     0.275 HD
HETATM   28  H           1     -20.382  -7.326  -7.400  0.00  0.00     0.257 HD
ENDBRANCH  24  25
BRANCH  24  29
HETATM   29  C           1     -21.927  -5.128  -6.682  0.00  0.00     0.044 C 
BRANCH  29  30
HETATM   30  C           1     -21.492  -3.866  -7.419  0.00  0.00     0.023 C 
BRANCH  30  31
HETATM   31  C           1     -22.036  -3.897  -8.841  0.00  0.00     0.156 C 
BRANCH  31  32
HETATM   32  N           1     -23.437  -3.451  -8.841  0.00  0.00    -0.227 N 
HETATM   33  C           1     -24.266  -3.970  -9.644  0.00  0.00     0.665 C 
HETATM   34  N           1     -25.473  -3.586  -9.644  0.00  0.00    -0.235 N 
HETATM   35  N           1     -23.880  -4.897 -10.470  0.00  0.00    -0.235 N 
HETATM   36  H           1     -26.161  -4.017 -10.311  0.00  0.00     0.174 HD
HETATM   37  H           1     -25.786  -2.838  -8.977  0.00  0.00     0.174 HD
HETATM   38  H           1     -24.564  -5.325 -11.134  0.00  0.00     0.174 HD
HETATM   39  H           1     -22.883  -5.213 -10.470  0.00  0.00     0.174 HD
HETATM   40  H           1     -23.751  -2.703  -8.174  0.00  0.00     0.177 HD
ENDBRANCH  31  32
ENDBRANCH  30  31
ENDBRANCH  29  30
ENDBRANCH  24  29
ENDBRANCH   3  24
TORSDOF 17
ENDMDL
MODEL 9
REMARK VINA RESULT:      -6.2      3.787      8.604
REMARK  17 active torsions:
REMARK  status: ('A' for Active; 'I' for Inactive)
REMARK       I    between atoms: C_2  and  N_3 
REMARK       I    between atoms: C_2  and  N_4 
REMARK    1  A    between atoms: N_5  and  C_33 
REMARK    2  A    between atoms: O_6  and  P_37 
REMARK    3  A    between atoms: N_8  and  C_16 
REMARK    4  A    between atoms: N_8  and  C_9 
REMARK    5  A    between atoms: C_9  and  C_10 
REMARK    6  A    between atoms: C_10  and  C_19 
REMARK    7  A    between atoms: C_11  and  C_16 
REMARK    8  A    between atoms: C_12  and  C_33 
REMARK    9  A    between atoms: C_12  and  C_13 
REMARK   10  A    between atoms: C_13  and  C_14 
REMARK   11  A    between atoms: C_14  and  N_15 
REMARK   12  A    between atoms: C_16  and  C_18 
REMARK   13  A    between atoms: C_18  and  O_36 
REMARK   14  A    between atoms: C_19  and  C_20 
REMARK   15  A    between atoms: C_19  and  N_35 
REMARK   16  A    between atoms: C_33  and  C_34 
REMARK       I    between atoms: C_34  and  N_35 
REMARK   17  A    between atoms: O_36  and  P_37 
ROOT
HETATM    1  O           1     -22.019  -7.577  -5.259  0.00  0.00    -0.271 OA
HETATM    2  H           1     -20.393  -5.746  -3.299  0.00  0.00     0.163 HD
HETATM    3  C           1     -21.323  -6.654  -4.910  0.00  0.00     0.249 C 
HETATM    4  N           1     -20.976  -6.519  -3.593  0.00  0.00    -0.345 N 
ENDROOT
BRANCH   4   5
HETATM    5  C           1     -21.443  -7.485  -2.616  0.00  0.00     0.187 C 
BRANCH   5   6
HETATM    6  C           1     -20.252  -8.227  -2.026  0.00  0.00     0.066 C 
BRANCH   6   7
HETATM    7  C           1     -20.399  -9.718  -2.293  0.00  0.00     0.273 C 
BRANCH   7   8
HETATM    8  N           1     -21.781 -10.095  -2.161  0.00  0.00     0.100 N 
HETATM    9  H           1     -22.323  -9.665  -2.910  0.00  0.00     0.317 HD
BRANCH   8  10
HETATM   10  C           1     -21.858 -11.526  -2.273  0.00  0.00     0.344 C 
BRANCH  10  11
HETATM   11  C           1     -21.502 -12.153  -0.948  0.00  0.00     0.209 C 
HETATM   12  O           1     -20.659 -13.075  -0.899  0.00  0.00    -0.646 OA
HETATM   13  O           1     -22.049 -11.751   0.101  0.00  0.00    -0.646 OA
ENDBRANCH  10  11
BRANCH  10  14
HETATM   14  C           1     -20.884 -12.004  -3.341  0.00  0.00     0.228 C 
BRANCH  14  15
HETATM   15  O           1     -21.567 -12.185  -4.551  0.00  0.00    -0.287 OA
BRANCH  15  16
HETATM   16  P           1     -20.816 -11.650  -5.877  0.00  0.00     0.406 P 
HETATM   17  O           1     -19.427 -12.163  -5.897  0.00  0.00    -0.624 OA
HETATM   18  O           1     -21.536 -12.127  -7.078  0.00  0.00    -0.624 OA
BRANCH  16  19
HETATM   19  O           1     -20.795 -10.035  -5.868  0.00  0.00    -0.300 OA
HETATM   20  H           1     -21.693  -9.779  -5.992  0.00  0.00     0.223 HD
ENDBRANCH  16  19
ENDBRANCH  15  16
ENDBRANCH  14  15
ENDBRANCH  10  14
ENDBRANCH   8  10
ENDBRANCH   7   8
ENDBRANCH   6   7
ENDBRANCH   5   6
BRANCH   5  21
HETATM   21  C           1     -22.186  -6.767  -1.516  0.00  0.00     0.196 C 
HETATM   22  O           1     -22.364  -5.531  -1.585  0.00  0.00    -0.646 OA
HETATM   23  O           1     -22.623  -7.408  -0.536  0.00  0.00    -0.646 OA
ENDBRANCH   5  21
ENDBRANCH   4   5
BRANCH   3  24
HETATM   24  C           1     -20.836  -5.649  -5.924  0.00  0.00     0.274 C 
BRANCH  24  25
HETATM   25  N           1     -20.014  -6.348  -6.966  0.00  0.00    -0.067 N 
HETATM   26  H           1     -20.562  -7.144  -7.366  0.00  0.00     0.275 HD
HETATM   27  H           1     -19.771  -5.675  -7.727  0.00  0.00     0.275 HD
HETATM   28  H           1     -19.138  -6.714  -6.530  0.00  0.00     0.257 HD
ENDBRANCH  24  25
BRANCH  24  29
HETATM   29  C           1     -22.032  -4.979  -6.589  0.00  0.00     0.044 C 
BRANCH  29  30
HETATM   30  C           1     -21.556  -3.788  -7.411  0.00  0.00     0.023 C 
BRANCH  30  31
HETATM   31  C           1     -22.159  -3.862  -8.808  0.00  0.00     0.156 C 
BRANCH  31  32
HETATM   32  N           1     -23.593  -3.546  -8.741  0.00  0.00    -0.227 N 
HETATM   33  C           1     -24.350  -3.829  -9.716  0.00  0.00     0.665 C 
HETATM   34  N           1     -25.585  -3.557  -9.659  0.00  0.00    -0.235 N 
HETATM   35  N           1     -23.859  -4.399 -10.777  0.00  0.00    -0.235 N 
HETATM   36  H           1     -26.212  -3.791 -10.468  0.00  0.00     0.174 HD
HETATM   37  H           1     -25.982  -3.097  -8.803  0.00  0.00     0.174 HD
HETATM   38  H           1     -24.483  -4.632 -11.582  0.00  0.00     0.174 HD
HETATM   39  H           1     -22.839  -4.623 -10.824  0.00  0.00     0.174 HD
HETATM   40  H           1     -23.991  -3.086  -7.885  0.00  0.00     0.177 HD
ENDBRANCH  31  32
ENDBRANCH  30  31
ENDBRANCH  29  30
ENDBRANCH  24  29
ENDBRANCH   3  24
TORSDOF 17
ENDMDL
