MODEL 1
REMARK VINA RESULT:      -7.8      0.000      0.000
REMARK  8 active torsions:
REMARK  status: ('A' for Active; 'I' for Inactive)
REMARK    1  A    between atoms: C_3  and  C_21 
REMARK    2  A    between atoms: N_4  and  C_22 
REMARK    3  A    between atoms: N_6  and  C_23 
REMARK       I    between atoms: N_6  and  C_19 
REMARK    4  A    between atoms: C_12  and  C_16 
REMARK    5  A    between atoms: C_16  and  C_22 
REMARK    6  A    between atoms: C_19  and  C_22 
REMARK    7  A    between atoms: C_21  and  C_23 
REMARK    8  A    between atoms: C_23  and  C_24 
ROOT
HETATM    1  O           1     -35.050  -5.012 -15.500  0.00  0.00    -0.271 OA
HETATM    2  N           1     -33.482  -4.046 -14.236  0.00  0.00    -0.344 N 
HETATM    3  H           1     -32.549  -3.659 -14.175  0.00  0.00     0.163 HD
HETATM    4  C           1     -33.936  -4.549 -15.427  0.00  0.00     0.249 C 
ENDROOT
BRANCH   4   5
HETATM    5  C           1     -33.047  -4.526 -16.645  0.00  0.00     0.278 C 
BRANCH   5   6
HETATM    6  N           1     -33.400  -3.345 -17.498  0.00  0.00    -0.066 N 
HETATM    7  H           1     -33.554  -3.660 -18.483  0.00  0.00     0.275 HD
HETATM    8  H           1     -34.273  -2.899 -17.135  0.00  0.00     0.275 HD
HETATM    9  H           1     -32.619  -2.651 -17.473  0.00  0.00     0.275 HD
ENDBRANCH   5   6
BRANCH   5  10
HETATM   10  C           1     -31.591  -4.421 -16.210  0.00  0.00     0.081 C 
BRANCH  10  11
HETATM   11  C           1     -30.745  -5.298 -17.080  0.00  0.00    -0.056 A 
HETATM   12  C           1     -31.106  -6.629 -17.288  0.00  0.00     0.007 A 
HETATM   13  C           1     -30.318  -7.447 -18.097  0.00  0.00     0.001 A 
HETATM   14  C           1     -29.169  -6.934 -18.699  0.00  0.00     0.000 A 
HETATM   15  C           1     -28.808  -5.603 -18.490  0.00  0.00     0.001 A 
HETATM   16  C           1     -29.596  -4.784 -17.680  0.00  0.00     0.007 A 
ENDBRANCH  10  11
ENDBRANCH   5  10
ENDBRANCH   4   5
BRANCH   2  17
HETATM   17  C           1     -34.337  -4.069 -13.066  0.00  0.00     0.189 C 
BRANCH  17  18
HETATM   18  C           1     -33.503  -4.400 -11.834  0.00  0.00     0.014 C 
HETATM   19  C           1     -32.844  -3.130 -11.313  0.00  0.00     0.012 C 
BRANCH  18  20
HETATM   20  C           1     -34.403  -4.985 -10.753  0.00  0.00     0.002 C 
HETATM   21  C           1     -34.186  -6.490 -10.672  0.00  0.00     0.005 C 
ENDBRANCH  18  20
ENDBRANCH  17  18
BRANCH  17  22
HETATM   22  C           1     -34.980  -2.716 -12.888  0.00  0.00     0.197 C 
HETATM   23  O           1     -35.778  -2.522 -11.945  0.00  0.00    -0.646 OA
HETATM   24  O           1     -34.717  -1.789 -13.684  0.00  0.00    -0.646 OA
ENDBRANCH  17  22
ENDBRANCH   2  17
TORSDOF 8
ENDMDL
MODEL 2
REMARK VINA RESULT:      -7.6     13.960     14.950
REMARK  8 active torsions:
REMARK  status: ('A' for Active; 'I' for Inactive)
REMARK    1  A    between atoms: C_3  and  C_21 
REMARK    2  A    between atoms: N_4  and  C_22 
REMARK    3  A    between atoms: N_6  and  C_23 
REMARK       I    between atoms: N_6  and  C_19 
REMARK    4  A    between atoms: C_12  and  C_16 
REMARK    5  A    between atoms: C_16  and  C_22 
REMARK    6  A    between atoms: C_19  and  C_22 
REMARK    7  A    between atoms: C_21  and  C_23 
REMARK    8  A    between atoms: C_23  and  C_24 
ROOT
HETATM    1  O           1     -20.278  -5.203  -5.736  0.00  0.00    -0.271 OA
HETATM    2  N           1     -21.598  -6.944  -5.272  0.00  0.00    -0.344 N 
HETATM    3  H           1     -22.473  -7.425  -5.438  0.00  0.00     0.163 HD
HETATM    4  C           1     -21.323  -5.778  -5.935  0.00  0.00     0.249 C 
ENDROOT
BRANCH   4   5
HETATM    5  C           1     -22.323  -5.210  -6.911  0.00  0.00     0.278 C 
BRANCH   5   6
HETATM    6  N           1     -23.617  -4.944  -6.202  0.00  0.00    -0.066 N 
HETATM    7  H           1     -23.431  -4.776  -5.188  0.00  0.00     0.275 HD
HETATM    8  H           1     -24.075  -4.100  -6.616  0.00  0.00     0.275 HD
HETATM    9  H           1     -24.249  -5.770  -6.309  0.00  0.00     0.275 HD
ENDBRANCH   5   6
BRANCH   5  10
HETATM   10  C           1     -21.786  -3.908  -7.491  0.00  0.00     0.081 C 
BRANCH  10  11
HETATM   11  C           1     -21.702  -4.021  -8.981  0.00  0.00    -0.056 A 
HETATM   12  C           1     -20.457  -4.073  -9.607  0.00  0.00     0.007 A 
HETATM   13  C           1     -20.378  -4.178 -10.996  0.00  0.00     0.001 A 
HETATM   14  C           1     -21.546  -4.231 -11.758  0.00  0.00     0.000 A 
HETATM   15  C           1     -22.791  -4.178 -11.131  0.00  0.00     0.001 A 
HETATM   16  C           1     -22.869  -4.073  -9.742  0.00  0.00     0.007 A 
ENDBRANCH  10  11
ENDBRANCH   5  10
ENDBRANCH   4   5
BRANCH   2  17
HETATM   17  C           1     -20.637  -7.490  -4.334  0.00  0.00     0.189 C 
BRANCH  17  18
HETATM   18  C           1     -21.326  -7.768  -3.004  0.00  0.00     0.014 C 
HETATM   19  C           1     -20.304  -8.296  -2.005  0.00  0.00     0.012 C 
BRANCH  18  20
HETATM   20  C           1     -21.939  -6.480  -2.469  0.00  0.00     0.002 C 
HETATM   21  C           1     -22.341  -6.675  -1.014  0.00  0.00     0.005 C 
ENDBRANCH  18  20
ENDBRANCH  17  18
BRANCH  17  22
HETATM   22  C           1     -20.071  -8.775  -4.885  0.00  0.00     0.197 C 
HETATM   23  O           1     -20.833  -9.732  -5.146  0.00  0.00    -0.646 OA
HETATM   24  O           1     -18.842  -8.885  -5.080  0.00  0.00    -0.646 OA
ENDBRANCH  17  22
ENDBRANCH   2  17
TORSDOF 8
ENDMDL
MODEL 3
REMARK VINA RESULT:      -7.4     14.302     15.335
REMARK  8 active torsions:
REMARK  status: ('A' for Active; 'I' for Inactive)
REMARK    1  A    between atoms: C_3  and  C_21 
REMARK    2  A    between atoms: N_4  and  C_22 
REMARK    3  A    between atoms: N_6  and  C_23 
REMARK       I    between atoms: N_6  and  C_19 
REMARK    4  A    between atoms: C_12  and  C_16 
REMARK    5  A    between atoms: C_16  and  C_22 
REMARK    6  A    between atoms: C_19  and  C_22 
REMARK    7  A    between atoms: C_21  and  C_23 
REMARK    8  A    between atoms: C_23  and  C_24 
ROOT
HETATM    1  O           1     -22.908  -6.004  -5.366  0.00  0.00    -0.271 OA
HETATM    2  N           1     -20.966  -6.696  -4.505  0.00  0.00    -0.344 N 
HETATM    3  H           1     -19.956  -6.633  -4.508  0.00  0.00     0.163 HD
HETATM    4  C           1     -21.702  -5.929  -5.369  0.00  0.00     0.249 C 
ENDROOT
BRANCH   4   5
HETATM    5  C           1     -21.007  -4.990  -6.325  0.00  0.00     0.278 C 
BRANCH   5   6
HETATM    6  N           1     -19.751  -4.473  -5.691  0.00  0.00    -0.066 N 
HETATM    7  H           1     -19.834  -4.533  -4.651  0.00  0.00     0.275 HD
HETATM    8  H           1     -18.937  -5.047  -6.008  0.00  0.00     0.275 HD
HETATM    9  H           1     -19.604  -3.477  -5.971  0.00  0.00     0.275 HD
ENDBRANCH   5   6
BRANCH   5  10
HETATM   10  C           1     -20.659  -5.736  -7.606  0.00  0.00     0.081 C 
BRANCH  10  11
HETATM   11  C           1     -21.054  -4.907  -8.789  0.00  0.00    -0.056 A 
HETATM   12  C           1     -20.130  -4.654  -9.802  0.00  0.00     0.007 A 
HETATM   13  C           1     -20.497  -3.881 -10.904  0.00  0.00     0.001 A 
HETATM   14  C           1     -21.788  -3.362 -10.992  0.00  0.00     0.000 A 
HETATM   15  C           1     -22.712  -3.614  -9.978  0.00  0.00     0.001 A 
HETATM   16  C           1     -22.345  -4.387  -8.876  0.00  0.00     0.007 A 
ENDBRANCH  10  11
ENDBRANCH   5  10
ENDBRANCH   4   5
BRANCH   2  17
HETATM   17  C           1     -21.635  -7.597  -3.587  0.00  0.00     0.189 C 
BRANCH  17  18
HETATM   18  C           1     -20.877  -8.918  -3.530  0.00  0.00     0.014 C 
HETATM   19  C           1     -21.720 -10.013  -4.171  0.00  0.00     0.012 C 
BRANCH  18  20
HETATM   20  C           1     -19.561  -8.783  -4.284  0.00  0.00     0.002 C 
HETATM   21  C           1     -18.425  -9.320  -3.425  0.00  0.00     0.005 C 
ENDBRANCH  18  20
ENDBRANCH  17  18
BRANCH  17  22
HETATM   22  C           1     -21.669  -6.978  -2.212  0.00  0.00     0.197 C 
HETATM   23  O           1     -21.054  -7.519  -1.267  0.00  0.00    -0.646 OA
HETATM   24  O           1     -22.313  -5.925  -2.016  0.00  0.00    -0.646 OA
ENDBRANCH  17  22
ENDBRANCH   2  17
TORSDOF 8
ENDMDL
MODEL 4
REMARK VINA RESULT:      -7.1     13.619     15.540
REMARK  8 active torsions:
REMARK  status: ('A' for Active; 'I' for Inactive)
REMARK    1  A    between atoms: C_3  and  C_21 
REMARK    2  A    between atoms: N_4  and  C_22 
REMARK    3  A    between atoms: N_6  and  C_23 
REMARK       I    between atoms: N_6  and  C_19 
REMARK    4  A    between atoms: C_12  and  C_16 
REMARK    5  A    between atoms: C_16  and  C_22 
REMARK    6  A    between atoms: C_19  and  C_22 
REMARK    7  A    between atoms: C_21  and  C_23 
REMARK    8  A    between atoms: C_23  and  C_24 
ROOT
HETATM    1  O           1     -20.606  -6.730  -7.204  0.00  0.00    -0.271 OA
HETATM    2  N           1     -21.885  -4.928  -7.524  0.00  0.00    -0.344 N 
HETATM    3  H           1     -22.494  -4.226  -7.123  0.00  0.00     0.163 HD
HETATM    4  C           1     -21.332  -5.892  -6.724  0.00  0.00     0.249 C 
ENDROOT
BRANCH   4   5
HETATM    5  C           1     -21.631  -5.909  -5.246  0.00  0.00     0.278 C 
BRANCH   5   6
HETATM    6  N           1     -23.078  -6.234  -5.032  0.00  0.00    -0.066 N 
HETATM    7  H           1     -23.159  -7.106  -4.460  0.00  0.00     0.275 HD
HETATM    8  H           1     -23.543  -5.445  -4.529  0.00  0.00     0.275 HD
HETATM    9  H           1     -23.543  -6.380  -5.956  0.00  0.00     0.275 HD
ENDBRANCH   5   6
BRANCH   5  10
HETATM   10  C           1     -20.768  -6.964  -4.564  0.00  0.00     0.081 C 
BRANCH  10  11
HETATM   11  C           1     -21.305  -7.240  -3.195  0.00  0.00    -0.056 A 
HETATM   12  C           1     -21.381  -8.552  -2.728  0.00  0.00     0.007 A 
HETATM   13  C           1     -21.883  -8.811  -1.452  0.00  0.00     0.001 A 
HETATM   14  C           1     -22.308  -7.757  -0.644  0.00  0.00     0.000 A 
HETATM   15  C           1     -22.233  -6.445  -1.111  0.00  0.00     0.001 A 
HETATM   16  C           1     -21.731  -6.186  -2.387  0.00  0.00     0.007 A 
ENDBRANCH  10  11
ENDBRANCH   5  10
ENDBRANCH   4   5
BRANCH   2  17
HETATM   17  C           1     -21.598  -4.912  -8.945  0.00  0.00     0.189 C 
BRANCH  17  18
HETATM   18  C           1     -22.578  -3.983  -9.651  0.00  0.00     0.014 C 
HETATM   19  C           1     -22.882  -4.530 -11.040  0.00  0.00     0.012 C 
BRANCH  18  20
HETATM   20  C           1     -23.868  -3.897  -8.846  0.00  0.00     0.002 C 
HETATM   21  C           1     -24.976  -3.327  -9.721  0.00  0.00     0.005 C 
ENDBRANCH  18  20
ENDBRANCH  17  18
BRANCH  17  22
HETATM   22  C           1     -20.190  -4.419  -9.167  0.00  0.00     0.197 C 
HETATM   23  O           1     -19.673  -3.618  -8.358  0.00  0.00    -0.646 OA
HETATM   24  O           1     -19.540  -4.809 -10.161  0.00  0.00    -0.646 OA
ENDBRANCH  17  22
ENDBRANCH   2  17
TORSDOF 8
ENDMDL
MODEL 5
REMARK VINA RESULT:      -7.0      6.167      8.597
REMARK  8 active torsions:
REMARK  status: ('A' for Active; 'I' for Inactive)
REMARK    1  A    between atoms: C_3  and  C_21 
REMARK    2  A    between atoms: N_4  and  C_22 
REMARK    3  A    between atoms: N_6  and  C_23 
REMARK       I    between atoms: N_6  and  C_19 
REMARK    4  A    between atoms: C_12  and  C_16 
REMARK    5  A    between atoms: C_16  and  C_22 
REMARK    6  A    between atoms: C_19  and  C_22 
REMARK    7  A    between atoms: C_21  and  C_23 
REMARK    8  A    between atoms: C_23  and  C_24 
ROOT
HETATM    1  O           1     -24.992  -6.351 -18.259  0.00  0.00    -0.271 OA
HETATM    2  N           1     -27.191  -6.671 -18.031  0.00  0.00    -0.344 N 
HETATM    3  H           1     -28.048  -7.043 -18.419  0.00  0.00     0.163 HD
HETATM    4  C           1     -26.015  -6.796 -18.723  0.00  0.00     0.249 C 
ENDROOT
BRANCH   4   5
HETATM    5  C           1     -25.999  -7.489 -20.063  0.00  0.00     0.278 C 
BRANCH   5   6
HETATM    6  N           1     -27.391  -7.540 -20.616  0.00  0.00    -0.066 N 
HETATM    7  H           1     -27.492  -8.379 -21.230  0.00  0.00     0.275 HD
HETATM    8  H           1     -28.077  -7.599 -19.831  0.00  0.00     0.275 HD
HETATM    9  H           1     -27.576  -6.676 -21.175  0.00  0.00     0.275 HD
ENDBRANCH   5   6
BRANCH   5  10
HETATM   10  C           1     -25.099  -6.720 -21.022  0.00  0.00     0.081 C 
BRANCH  10  11
HETATM   11  C           1     -23.885  -7.538 -21.333  0.00  0.00    -0.056 A 
HETATM   12  C           1     -22.923  -7.760 -20.348  0.00  0.00     0.007 A 
HETATM   13  C           1     -21.791  -8.522 -20.637  0.00  0.00     0.001 A 
HETATM   14  C           1     -21.621  -9.062 -21.913  0.00  0.00     0.000 A 
HETATM   15  C           1     -22.583  -8.838 -22.898  0.00  0.00     0.001 A 
HETATM   16  C           1     -23.715  -8.076 -22.609  0.00  0.00     0.007 A 
ENDBRANCH  10  11
ENDBRANCH   5  10
ENDBRANCH   4   5
BRANCH   2  17
HETATM   17  C           1     -27.206  -6.005 -16.743  0.00  0.00     0.189 C 
BRANCH  17  18
HETATM   18  C           1     -28.548  -5.309 -16.547  0.00  0.00     0.014 C 
HETATM   19  C           1     -28.425  -3.848 -16.959  0.00  0.00     0.012 C 
BRANCH  18  20
HETATM   20  C           1     -29.605  -5.992 -17.404  0.00  0.00     0.002 C 
HETATM   21  C           1     -30.977  -5.422 -17.068  0.00  0.00     0.005 C 
ENDBRANCH  18  20
ENDBRANCH  17  18
BRANCH  17  22
HETATM   22  C           1     -27.004  -7.024 -15.649  0.00  0.00     0.197 C 
HETATM   23  O           1     -27.988  -7.466 -15.017  0.00  0.00    -0.646 OA
HETATM   24  O           1     -25.854  -7.426 -15.373  0.00  0.00    -0.646 OA
ENDBRANCH  17  22
ENDBRANCH   2  17
TORSDOF 8
ENDMDL
MODEL 6
REMARK VINA RESULT:      -6.9     15.281     16.316
REMARK  8 active torsions:
REMARK  status: ('A' for Active; 'I' for Inactive)
REMARK    1  A    between atoms: C_3  and  C_21 
REMARK    2  A    between atoms: N_4  and  C_22 
REMARK    3  A    between atoms: N_6  and  C_23 
REMARK       I    between atoms: N_6  and  C_19 
REMARK    4  A    between atoms: C_12  and  C_16 
REMARK    5  A    between atoms: C_16  and  C_22 
REMARK    6  A    between atoms: C_19  and  C_22 
REMARK    7  A    between atoms: C_21  and  C_23 
REMARK    8  A    between atoms: C_23  and  C_24 
ROOT
HETATM    1  O           1     -19.438  -7.381  -6.411  0.00  0.00    -0.271 OA
HETATM    2  N           1     -20.359  -8.223  -4.559  0.00  0.00    -0.344 N 
HETATM    3  H           1     -21.062  -8.138  -3.836  0.00  0.00     0.163 HD
HETATM    4  C           1     -20.277  -7.279  -5.548  0.00  0.00     0.249 C 
ENDROOT
BRANCH   4   5
HETATM    5  C           1     -21.235  -6.113  -5.559  0.00  0.00     0.278 C 
BRANCH   5   6
HETATM    6  N           1     -21.777  -5.898  -4.178  0.00  0.00    -0.066 N 
HETATM    7  H           1     -21.067  -5.397  -3.599  0.00  0.00     0.275 HD
HETATM    8  H           1     -22.650  -5.325  -4.231  0.00  0.00     0.275 HD
HETATM    9  H           1     -21.993  -6.822  -3.741  0.00  0.00     0.275 HD
ENDBRANCH   5   6
BRANCH   5  10
HETATM   10  C           1     -20.502  -4.858  -6.017  0.00  0.00     0.081 C 
BRANCH  10  11
HETATM   11  C           1     -20.929  -4.511  -7.409  0.00  0.00    -0.056 A 
HETATM   12  C           1     -22.254  -4.157  -7.664  0.00  0.00     0.007 A 
HETATM   13  C           1     -22.653  -3.834  -8.961  0.00  0.00     0.001 A 
HETATM   14  C           1     -21.727  -3.865 -10.003  0.00  0.00     0.000 A 
HETATM   15  C           1     -20.402  -4.220  -9.749  0.00  0.00     0.001 A 
HETATM   16  C           1     -20.003  -4.543  -8.451  0.00  0.00     0.007 A 
ENDBRANCH  10  11
ENDBRANCH   5  10
ENDBRANCH   4   5
BRANCH   2  17
HETATM   17  C           1     -19.439  -9.344  -4.548  0.00  0.00     0.189 C 
BRANCH  17  18
HETATM   18  C           1     -19.033  -9.654  -3.113  0.00  0.00     0.014 C 
HETATM   19  C           1     -17.531  -9.458  -2.958  0.00  0.00     0.012 C 
BRANCH  18  20
HETATM   20  C           1     -19.768  -8.718  -2.162  0.00  0.00     0.002 C 
HETATM   21  C           1     -20.612  -9.536  -1.195  0.00  0.00     0.005 C 
ENDBRANCH  18  20
ENDBRANCH  17  18
BRANCH  17  22
HETATM   22  C           1     -20.112 -10.551  -5.152  0.00  0.00     0.197 C 
HETATM   23  O           1     -20.879 -11.252  -4.457  0.00  0.00    -0.646 OA
HETATM   24  O           1     -19.903 -10.852  -6.347  0.00  0.00    -0.646 OA
ENDBRANCH  17  22
ENDBRANCH   2  17
TORSDOF 8
ENDMDL
MODEL 7
REMARK VINA RESULT:      -6.9     14.436     16.458
REMARK  8 active torsions:
REMARK  status: ('A' for Active; 'I' for Inactive)
REMARK    1  A    between atoms: C_3  and  C_21 
REMARK    2  A    between atoms: N_4  and  C_22 
REMARK    3  A    between atoms: N_6  and  C_23 
REMARK       I    between atoms: N_6  and  C_19 
REMARK    4  A    between atoms: C_12  and  C_16 
REMARK    5  A    between atoms: C_16  and  C_22 
REMARK    6  A    between atoms: C_19  and  C_22 
REMARK    7  A    between atoms: C_21  and  C_23 
REMARK    8  A    between atoms: C_23  and  C_24 
ROOT
HETATM    1  O           1     -21.305  -5.536  -4.134  0.00  0.00    -0.271 OA
HETATM    2  N           1     -21.306  -6.039  -6.310  0.00  0.00    -0.344 N 
HETATM    3  H           1     -21.322  -6.755  -7.025  0.00  0.00     0.163 HD
HETATM    4  C           1     -21.325  -6.392  -4.987  0.00  0.00     0.249 C 
ENDROOT
BRANCH   4   5
HETATM    5  C           1     -21.371  -7.848  -4.595  0.00  0.00     0.278 C 
BRANCH   5   6
HETATM    6  N           1     -20.862  -8.687  -5.728  0.00  0.00    -0.066 N 
HETATM    7  H           1     -21.671  -9.076  -6.264  0.00  0.00     0.275 HD
HETATM    8  H           1     -20.276  -8.099  -6.363  0.00  0.00     0.275 HD
HETATM    9  H           1     -20.285  -9.472  -5.349  0.00  0.00     0.275 HD
ENDBRANCH   5   6
BRANCH   5  10
HETATM   10  C           1     -20.498  -8.072  -3.366  0.00  0.00     0.081 C 
BRANCH  10  11
HETATM   11  C           1     -21.366  -8.389  -2.188  0.00  0.00    -0.056 A 
HETATM   12  C           1     -21.831  -9.689  -1.996  0.00  0.00     0.007 A 
HETATM   13  C           1     -22.641  -9.985  -0.899  0.00  0.00     0.001 A 
HETATM   14  C           1     -22.984  -8.980   0.006  0.00  0.00     0.000 A 
HETATM   15  C           1     -22.518  -7.679  -0.188  0.00  0.00     0.001 A 
HETATM   16  C           1     -21.709  -7.383  -1.285  0.00  0.00     0.007 A 
ENDBRANCH  10  11
ENDBRANCH   5  10
ENDBRANCH   4   5
BRANCH   2  17
HETATM   17  C           1     -21.261  -4.640  -6.687  0.00  0.00     0.189 C 
BRANCH  17  18
HETATM   18  C           1     -20.151  -4.423  -7.707  0.00  0.00     0.014 C 
HETATM   19  C           1     -18.799  -4.594  -7.028  0.00  0.00     0.012 C 
BRANCH  18  20
HETATM   20  C           1     -20.287  -5.441  -8.832  0.00  0.00     0.002 C 
HETATM   21  C           1     -20.025  -4.761 -10.168  0.00  0.00     0.005 C 
ENDBRANCH  18  20
ENDBRANCH  17  18
BRANCH  17  22
HETATM   22  C           1     -22.585  -4.241  -7.292  0.00  0.00     0.197 C 
HETATM   23  O           1     -23.652  -4.634  -6.774  0.00  0.00    -0.646 OA
HETATM   24  O           1     -22.614  -3.519  -8.312  0.00  0.00    -0.646 OA
ENDBRANCH  17  22
ENDBRANCH   2  17
TORSDOF 8
ENDMDL
MODEL 8
REMARK VINA RESULT:      -6.7      5.909      8.454
REMARK  8 active torsions:
REMARK  status: ('A' for Active; 'I' for Inactive)
REMARK    1  A    between atoms: C_3  and  C_21 
REMARK    2  A    between atoms: N_4  and  C_22 
REMARK    3  A    between atoms: N_6  and  C_23 
REMARK       I    between atoms: N_6  and  C_19 
REMARK    4  A    between atoms: C_12  and  C_16 
REMARK    5  A    between atoms: C_16  and  C_22 
REMARK    6  A    between atoms: C_19  and  C_22 
REMARK    7  A    between atoms: C_21  and  C_23 
REMARK    8  A    between atoms: C_23  and  C_24 
ROOT
HETATM    1  O           1     -27.058  -5.563 -20.664  0.00  0.00    -0.271 OA
HETATM    2  N           1     -27.665  -6.681 -18.827  0.00  0.00    -0.344 N 
HETATM    3  H           1     -27.670  -7.556 -18.319  0.00  0.00     0.163 HD
HETATM    4  C           1     -27.064  -6.608 -20.056  0.00  0.00     0.249 C 
ENDROOT
BRANCH   4   5
HETATM    5  C           1     -26.410  -7.831 -20.651  0.00  0.00     0.278 C 
BRANCH   5   6
HETATM    6  N           1     -27.465  -8.825 -21.032  0.00  0.00    -0.066 N 
HETATM    7  H           1     -27.335  -9.106 -22.031  0.00  0.00     0.275 HD
HETATM    8  H           1     -27.387  -9.670 -20.421  0.00  0.00     0.275 HD
HETATM    9  H           1     -28.410  -8.395 -20.912  0.00  0.00     0.275 HD
ENDBRANCH   5   6
BRANCH   5  10
HETATM   10  C           1     -25.617  -7.433 -21.888  0.00  0.00     0.081 C 
BRANCH  10  11
HETATM   11  C           1     -24.213  -7.939 -21.766  0.00  0.00    -0.056 A 
HETATM   12  C           1     -23.534  -8.389 -22.898  0.00  0.00     0.007 A 
HETATM   13  C           1     -22.226  -8.861 -22.785  0.00  0.00     0.001 A 
HETATM   14  C           1     -21.598  -8.884 -21.539  0.00  0.00     0.000 A 
HETATM   15  C           1     -22.279  -8.435 -20.408  0.00  0.00     0.001 A 
HETATM   16  C           1     -23.587  -7.962 -20.521  0.00  0.00     0.007 A 
ENDBRANCH  10  11
ENDBRANCH   5  10
ENDBRANCH   4   5
BRANCH   2  17
HETATM   17  C           1     -28.293  -5.506 -18.256  0.00  0.00     0.189 C 
BRANCH  17  18
HETATM   18  C           1     -29.776  -5.777 -18.039  0.00  0.00     0.014 C 
HETATM   19  C           1     -29.977  -7.247 -17.698  0.00  0.00     0.012 C 
BRANCH  18  20
HETATM   20  C           1     -30.288  -4.915 -16.893  0.00  0.00     0.002 C 
HETATM   21  C           1     -31.259  -3.874 -17.434  0.00  0.00     0.005 C 
ENDBRANCH  18  20
ENDBRANCH  17  18
BRANCH  17  22
HETATM   22  C           1     -27.643  -5.182 -16.934  0.00  0.00     0.197 C 
HETATM   23  O           1     -27.147  -6.096 -16.241  0.00  0.00    -0.646 OA
HETATM   24  O           1     -27.601  -4.000 -16.531  0.00  0.00    -0.646 OA
ENDBRANCH  17  22
ENDBRANCH   2  17
TORSDOF 8
ENDMDL
MODEL 9
REMARK VINA RESULT:      -6.6     15.043     16.993
REMARK  8 active torsions:
REMARK  status: ('A' for Active; 'I' for Inactive)
REMARK    1  A    between atoms: C_3  and  C_21 
REMARK    2  A    between atoms: N_4  and  C_22 
REMARK    3  A    between atoms: N_6  and  C_23 
REMARK       I    between atoms: N_6  and  C_19 
REMARK    4  A    between atoms: C_12  and  C_16 
REMARK    5  A    between atoms: C_16  and  C_22 
REMARK    6  A    between atoms: C_19  and  C_22 
REMARK    7  A    between atoms: C_21  and  C_23 
REMARK    8  A    between atoms: C_23  and  C_24 
ROOT
HETATM    1  O           1     -19.508  -8.079  -5.878  0.00  0.00    -0.271 OA
HETATM    2  N           1     -21.174  -6.600  -6.039  0.00  0.00    -0.344 N 
HETATM    3  H           1     -22.067  -6.274  -5.693  0.00  0.00     0.163 HD
HETATM    4  C           1     -20.574  -7.690  -5.465  0.00  0.00     0.249 C 
ENDROOT
BRANCH   4   5
HETATM    5  C           1     -21.245  -8.404  -4.317  0.00  0.00     0.278 C 
BRANCH   5   6
HETATM    6  N           1     -21.520  -9.825  -4.705  0.00  0.00    -0.066 N 
HETATM    7  H           1     -21.469 -10.434  -3.858  0.00  0.00     0.275 HD
HETATM    8  H           1     -22.475  -9.894  -5.126  0.00  0.00     0.275 HD
HETATM    9  H           1     -20.809 -10.139  -5.404  0.00  0.00     0.275 HD
ENDBRANCH   5   6
BRANCH   5  10
HETATM   10  C           1     -20.332  -8.378  -3.098  0.00  0.00     0.081 C 
BRANCH  10  11
HETATM   11  C           1     -21.162  -8.324  -1.853  0.00  0.00    -0.056 A 
HETATM   12  C           1     -21.267  -9.451  -1.037  0.00  0.00     0.007 A 
HETATM   13  C           1     -22.041  -9.402   0.122  0.00  0.00     0.001 A 
HETATM   14  C           1     -22.709  -8.226   0.466  0.00  0.00     0.000 A 
HETATM   15  C           1     -22.603  -7.101  -0.351  0.00  0.00     0.001 A 
HETATM   16  C           1     -21.830  -7.149  -1.511  0.00  0.00     0.007 A 
ENDBRANCH  10  11
ENDBRANCH   5  10
ENDBRANCH   4   5
BRANCH   2  17
HETATM   17  C           1     -20.529  -5.915  -7.141  0.00  0.00     0.189 C 
BRANCH  17  18
HETATM   18  C           1     -21.588  -5.292  -8.042  0.00  0.00     0.014 C 
HETATM   19  C           1     -22.533  -4.444  -7.201  0.00  0.00     0.012 C 
BRANCH  18  20
HETATM   20  C           1     -20.914  -4.415  -9.089  0.00  0.00     0.002 C 
HETATM   21  C           1     -21.893  -4.130 -10.219  0.00  0.00     0.005 C 
ENDBRANCH  18  20
ENDBRANCH  17  18
BRANCH  17  22
HETATM   22  C           1     -19.629  -4.831  -6.601  0.00  0.00     0.197 C 
HETATM   23  O           1     -19.857  -4.331  -5.478  0.00  0.00    -0.646 OA
HETATM   24  O           1     -18.657  -4.431  -7.276  0.00  0.00    -0.646 OA
ENDBRANCH  17  22
ENDBRANCH   2  17
TORSDOF 8
ENDMDL
