MODEL 1
REMARK VINA RESULT:      -5.9      0.000      0.000
REMARK  9 active torsions:
REMARK  status: ('A' for Active; 'I' for Inactive)
REMARK    1  A    between atoms: N_5  and  C_11 
REMARK    2  A    between atoms: C_8  and  C_21 
REMARK    3  A    between atoms: C_8  and  C_19 
REMARK    4  A    between atoms: C_10  and  C_19 
REMARK    5  A    between atoms: C_11  and  C_12 
REMARK    6  A    between atoms: C_11  and  C_16 
REMARK       I    between atoms: C_12  and  N_13 
REMARK    7  A    between atoms: N_13  and  C_19 
REMARK    8  A    between atoms: C_15  and  C_16 
REMARK    9  A    between atoms: Se_17  and  C_21 
ROOT
HETATM    1  O           1     -24.730  -6.632 -17.131  0.00  0.00    -0.271 OA
HETATM    2  H           1     -27.435  -6.116 -18.635  0.00  0.00     0.163 HD
HETATM    3  C           1     -25.488  -6.532 -18.066  0.00  0.00     0.249 C 
HETATM    4  N           1     -26.799  -6.201 -17.852  0.00  0.00    -0.345 N 
ENDROOT
BRANCH   3   5
HETATM    5  C           1     -24.990  -6.772 -19.471  0.00  0.00     0.284 C 
BRANCH   5   6
HETATM    6  N           1     -24.246  -8.074 -19.519  0.00  0.00    -0.066 N 
HETATM    7  H           1     -23.716  -8.139 -20.418  0.00  0.00     0.275 HD
HETATM    8  H           1     -23.578  -8.124 -18.718  0.00  0.00     0.275 HD
HETATM    9  H           1     -24.925  -8.865 -19.457  0.00  0.00     0.275 HD
ENDBRANCH   5   6
BRANCH   5  10
HETATM   10  C           1     -26.173  -6.828 -20.427  0.00  0.00     0.155 C 
BRANCH  10  11
HETATM   11  C           1     -25.983  -7.966 -21.398  0.00  0.00     0.175 C 
HETATM   12  O           1     -26.827  -8.887 -21.456  0.00  0.00    -0.648 OA
HETATM   13  O           1     -24.981  -7.989 -22.147  0.00  0.00    -0.648 OA
ENDBRANCH  10  11
ENDBRANCH   5  10
ENDBRANCH   3   5
BRANCH   4  14
HETATM   14  C           1     -27.278  -5.970 -16.503  0.00  0.00     0.185 C 
BRANCH  14  15
HETATM   15  C           1     -28.157  -4.726 -16.483  0.00  0.00     0.036 C 
BRANCH  15  16
HETATM   16  C           1     -28.800  -4.537 -17.850  0.00  0.00     0.003 C 
BRANCH  16  17
HETATM   17 Se           1     -30.493  -3.592 -17.648  0.00  0.00     0.000 Se
HETATM   18  C           1     -31.418  -5.092 -16.814  0.00  0.00     0.000 C 
ENDBRANCH  16  17
ENDBRANCH  15  16
ENDBRANCH  14  15
BRANCH  14  19
HETATM   19  C           1     -28.082  -7.161 -16.045  0.00  0.00     0.196 C 
HETATM   20  O           1     -28.944  -7.662 -16.800  0.00  0.00    -0.646 OA
HETATM   21  O           1     -27.887  -7.647 -14.910  0.00  0.00    -0.646 OA
ENDBRANCH  14  19
ENDBRANCH   4  14
TORSDOF 9
ENDMDL
MODEL 2
REMARK VINA RESULT:      -5.6      1.604      1.994
REMARK  9 active torsions:
REMARK  status: ('A' for Active; 'I' for Inactive)
REMARK    1  A    between atoms: N_5  and  C_11 
REMARK    2  A    between atoms: C_8  and  C_21 
REMARK    3  A    between atoms: C_8  and  C_19 
REMARK    4  A    between atoms: C_10  and  C_19 
REMARK    5  A    between atoms: C_11  and  C_12 
REMARK    6  A    between atoms: C_11  and  C_16 
REMARK       I    between atoms: C_12  and  N_13 
REMARK    7  A    between atoms: N_13  and  C_19 
REMARK    8  A    between atoms: C_15  and  C_16 
REMARK    9  A    between atoms: Se_17  and  C_21 
ROOT
HETATM    1  O           1     -24.407  -6.460 -18.479  0.00  0.00    -0.271 OA
HETATM    2  H           1     -27.503  -6.971 -18.482  0.00  0.00     0.163 HD
HETATM    3  C           1     -25.474  -6.859 -18.880  0.00  0.00     0.249 C 
HETATM    4  N           1     -26.608  -6.637 -18.146  0.00  0.00    -0.345 N 
ENDROOT
BRANCH   3   5
HETATM    5  C           1     -25.557  -7.602 -20.191  0.00  0.00     0.284 C 
BRANCH   5   6
HETATM    6  N           1     -26.969  -7.566 -20.696  0.00  0.00    -0.066 N 
HETATM    7  H           1     -27.628  -7.523 -19.886  0.00  0.00     0.275 HD
HETATM    8  H           1     -27.103  -6.723 -21.298  0.00  0.00     0.275 HD
HETATM    9  H           1     -27.160  -8.428 -21.255  0.00  0.00     0.275 HD
ENDBRANCH   5   6
BRANCH   5  10
HETATM   10  C           1     -24.637  -6.941 -21.209  0.00  0.00     0.155 C 
BRANCH  10  11
HETATM   11  C           1     -23.768  -7.990 -21.858  0.00  0.00     0.175 C 
HETATM   12  O           1     -22.662  -8.284 -21.356  0.00  0.00    -0.648 OA
HETATM   13  O           1     -24.154  -8.565 -22.899  0.00  0.00    -0.648 OA
ENDBRANCH  10  11
ENDBRANCH   5  10
ENDBRANCH   3   5
BRANCH   4  14
HETATM   14  C           1     -26.529  -5.923 -16.886  0.00  0.00     0.185 C 
BRANCH  14  15
HETATM   15  C           1     -27.763  -5.045 -16.723  0.00  0.00     0.036 C 
BRANCH  15  16
HETATM   16  C           1     -28.713  -5.282 -17.890  0.00  0.00     0.003 C 
BRANCH  16  17
HETATM   17 Se           1     -30.339  -6.139 -17.242  0.00  0.00     0.000 Se
HETATM   18  C           1     -31.313  -4.470 -16.991  0.00  0.00     0.000 C 
ENDBRANCH  16  17
ENDBRANCH  15  16
ENDBRANCH  14  15
BRANCH  14  19
HETATM   19  C           1     -26.462  -6.914 -15.751  0.00  0.00     0.196 C 
HETATM   20  O           1     -25.366  -7.418 -15.424  0.00  0.00    -0.646 OA
HETATM   21  O           1     -27.504  -7.232 -15.138  0.00  0.00    -0.646 OA
ENDBRANCH  14  19
ENDBRANCH   4  14
TORSDOF 9
ENDMDL
MODEL 3
REMARK VINA RESULT:      -5.6      3.234      6.112
REMARK  9 active torsions:
REMARK  status: ('A' for Active; 'I' for Inactive)
REMARK    1  A    between atoms: N_5  and  C_11 
REMARK    2  A    between atoms: C_8  and  C_21 
REMARK    3  A    between atoms: C_8  and  C_19 
REMARK    4  A    between atoms: C_10  and  C_19 
REMARK    5  A    between atoms: C_11  and  C_12 
REMARK    6  A    between atoms: C_11  and  C_16 
REMARK       I    between atoms: C_12  and  N_13 
REMARK    7  A    between atoms: N_13  and  C_19 
REMARK    8  A    between atoms: C_15  and  C_16 
REMARK    9  A    between atoms: Se_17  and  C_21 
ROOT
HETATM    1  O           1     -29.552  -6.827 -16.783  0.00  0.00    -0.271 OA
HETATM    2  H           1     -27.620  -4.479 -17.555  0.00  0.00     0.163 HD
HETATM    3  C           1     -29.205  -5.692 -17.005  0.00  0.00     0.249 C 
HETATM    4  N           1     -27.911  -5.430 -17.368  0.00  0.00    -0.345 N 
ENDROOT
BRANCH   3   5
HETATM    5  C           1     -30.198  -4.562 -16.881  0.00  0.00     0.284 C 
BRANCH   5   6
HETATM    6  N           1     -29.890  -3.513 -17.909  0.00  0.00    -0.066 N 
HETATM    7  H           1     -29.029  -3.783 -18.436  0.00  0.00     0.275 HD
HETATM    8  H           1     -30.692  -3.429 -18.573  0.00  0.00     0.275 HD
HETATM    9  H           1     -29.733  -2.596 -17.433  0.00  0.00     0.275 HD
ENDBRANCH   5   6
BRANCH   5  10
HETATM   10  C           1     -31.606  -5.095 -17.107  0.00  0.00     0.155 C 
BRANCH  10  11
HETATM   11  C           1     -32.607  -3.995 -16.857  0.00  0.00     0.175 C 
HETATM   12  O           1     -33.289  -3.996 -15.809  0.00  0.00    -0.648 OA
HETATM   13  O           1     -32.756  -3.082 -17.698  0.00  0.00    -0.648 OA
ENDBRANCH  10  11
ENDBRANCH   5  10
ENDBRANCH   3   5
BRANCH   4  14
HETATM   14  C           1     -26.957  -6.516 -17.488  0.00  0.00     0.185 C 
BRANCH  14  15
HETATM   15  C           1     -26.076  -6.284 -18.708  0.00  0.00     0.036 C 
BRANCH  15  16
HETATM   16  C           1     -26.829  -6.703 -19.964  0.00  0.00     0.003 C 
BRANCH  16  17
HETATM   17 Se           1     -25.667  -7.793 -21.087  0.00  0.00     0.000 Se
HETATM   18  C           1     -24.104  -7.600 -19.939  0.00  0.00     0.000 C 
ENDBRANCH  16  17
ENDBRANCH  15  16
ENDBRANCH  14  15
BRANCH  14  19
HETATM   19  C           1     -26.097  -6.566 -16.249  0.00  0.00     0.196 C 
HETATM   20  O           1     -26.332  -7.412 -15.359  0.00  0.00    -0.646 OA
HETATM   21  O           1     -25.151  -5.762 -16.112  0.00  0.00    -0.646 OA
ENDBRANCH  14  19
ENDBRANCH   4  14
TORSDOF 9
ENDMDL
MODEL 4
REMARK VINA RESULT:      -5.4      2.283      2.598
REMARK  9 active torsions:
REMARK  status: ('A' for Active; 'I' for Inactive)
REMARK    1  A    between atoms: N_5  and  C_11 
REMARK    2  A    between atoms: C_8  and  C_21 
REMARK    3  A    between atoms: C_8  and  C_19 
REMARK    4  A    between atoms: C_10  and  C_19 
REMARK    5  A    between atoms: C_11  and  C_12 
REMARK    6  A    between atoms: C_11  and  C_16 
REMARK       I    between atoms: C_12  and  N_13 
REMARK    7  A    between atoms: N_13  and  C_19 
REMARK    8  A    between atoms: C_15  and  C_16 
REMARK    9  A    between atoms: Se_17  and  C_21 
ROOT
HETATM    1  O           1     -25.866  -6.358 -18.531  0.00  0.00    -0.271 OA
HETATM    2  H           1     -28.193  -7.184 -20.466  0.00  0.00     0.163 HD
HETATM    3  C           1     -26.392  -6.731 -19.553  0.00  0.00     0.249 C 
HETATM    4  N           1     -27.752  -6.872 -19.610  0.00  0.00    -0.345 N 
ENDROOT
BRANCH   3   5
HETATM    5  C           1     -25.548  -7.042 -20.765  0.00  0.00     0.284 C 
BRANCH   5   6
HETATM    6  N           1     -25.184  -5.762 -21.460  0.00  0.00    -0.066 N 
HETATM    7  H           1     -25.302  -4.961 -20.799  0.00  0.00     0.275 HD
HETATM    8  H           1     -24.190  -5.809 -21.776  0.00  0.00     0.275 HD
HETATM    9  H           1     -25.808  -5.626 -22.287  0.00  0.00     0.275 HD
ENDBRANCH   5   6
BRANCH   5  10
HETATM   10  C           1     -24.280  -7.762 -20.331  0.00  0.00     0.155 C 
BRANCH  10  11
HETATM   11  C           1     -23.547  -8.270 -21.548  0.00  0.00     0.175 C 
HETATM   12  O           1     -24.105  -8.253 -22.666  0.00  0.00    -0.648 OA
HETATM   13  O           1     -22.380  -8.706 -21.438  0.00  0.00    -0.648 OA
ENDBRANCH  10  11
ENDBRANCH   5  10
ENDBRANCH   3   5
BRANCH   4  14
HETATM   14  C           1     -28.563  -6.574 -18.445  0.00  0.00     0.185 C 
BRANCH  14  15
HETATM   15  C           1     -29.053  -5.134 -18.524  0.00  0.00     0.036 C 
BRANCH  15  16
HETATM   16  C           1     -28.641  -4.387 -17.262  0.00  0.00     0.003 C 
BRANCH  16  17
HETATM   17 Se           1     -27.875  -5.643 -15.984  0.00  0.00     0.000 Se
HETATM   18  C           1     -29.436  -5.661 -14.818  0.00  0.00     0.000 C 
ENDBRANCH  16  17
ENDBRANCH  15  16
ENDBRANCH  14  15
BRANCH  14  19
HETATM   19  C           1     -29.748  -7.507 -18.406  0.00  0.00     0.196 C 
HETATM   20  O           1     -29.772  -8.518 -19.140  0.00  0.00    -0.646 OA
HETATM   21  O           1     -30.705  -7.268 -17.639  0.00  0.00    -0.646 OA
ENDBRANCH  14  19
ENDBRANCH   4  14
TORSDOF 9
ENDMDL
MODEL 5
REMARK VINA RESULT:      -5.4      2.845      5.700
REMARK  9 active torsions:
REMARK  status: ('A' for Active; 'I' for Inactive)
REMARK    1  A    between atoms: N_5  and  C_11 
REMARK    2  A    between atoms: C_8  and  C_21 
REMARK    3  A    between atoms: C_8  and  C_19 
REMARK    4  A    between atoms: C_10  and  C_19 
REMARK    5  A    between atoms: C_11  and  C_12 
REMARK    6  A    between atoms: C_11  and  C_16 
REMARK       I    between atoms: C_12  and  N_13 
REMARK    7  A    between atoms: N_13  and  C_19 
REMARK    8  A    between atoms: C_15  and  C_16 
REMARK    9  A    between atoms: Se_17  and  C_21 
ROOT
HETATM    1  O           1     -29.005  -5.268 -18.821  0.00  0.00    -0.271 OA
HETATM    2  H           1     -26.644  -7.263 -18.282  0.00  0.00     0.163 HD
HETATM    3  C           1     -28.207  -5.909 -18.180  0.00  0.00     0.249 C 
HETATM    4  N           1     -27.313  -6.726 -18.819  0.00  0.00    -0.345 N 
ENDROOT
BRANCH   3   5
HETATM    5  C           1     -28.194  -5.808 -16.674  0.00  0.00     0.284 C 
BRANCH   5   6
HETATM    6  N           1     -29.606  -5.772 -16.165  0.00  0.00    -0.066 N 
HETATM    7  H           1     -30.248  -6.164 -16.891  0.00  0.00     0.275 HD
HETATM    8  H           1     -29.676  -6.342 -15.294  0.00  0.00     0.275 HD
HETATM    9  H           1     -29.875  -4.784 -15.959  0.00  0.00     0.275 HD
ENDBRANCH   5   6
BRANCH   5  10
HETATM   10  C           1     -27.475  -7.016 -16.090  0.00  0.00     0.155 C 
BRANCH  10  11
HETATM   11  C           1     -26.026  -6.672 -15.850  0.00  0.00     0.175 C 
HETATM   12  O           1     -25.568  -5.580 -16.251  0.00  0.00    -0.648 OA
HETATM   13  O           1     -25.282  -7.479 -15.251  0.00  0.00    -0.648 OA
ENDBRANCH  10  11
ENDBRANCH   5  10
ENDBRANCH   3   5
BRANCH   4  14
HETATM   14  C           1     -27.325  -6.823 -20.266  0.00  0.00     0.185 C 
BRANCH  14  15
HETATM   15  C           1     -25.930  -6.534 -20.805  0.00  0.00     0.036 C 
BRANCH  15  16
HETATM   16  C           1     -24.891  -6.970 -19.781  0.00  0.00     0.003 C 
BRANCH  16  17
HETATM   17 Se           1     -23.592  -8.147 -20.632  0.00  0.00     0.000 Se
HETATM   18  C           1     -24.066  -7.626 -22.449  0.00  0.00     0.000 C 
ENDBRANCH  16  17
ENDBRANCH  15  16
ENDBRANCH  14  15
BRANCH  14  19
HETATM   19  C           1     -27.744  -8.215 -20.672  0.00  0.00     0.196 C 
HETATM   20  O           1     -27.125  -8.815 -21.577  0.00  0.00    -0.646 OA
HETATM   21  O           1     -28.711  -8.766 -20.105  0.00  0.00    -0.646 OA
ENDBRANCH  14  19
ENDBRANCH   4  14
TORSDOF 9
ENDMDL
MODEL 6
REMARK VINA RESULT:      -5.3     11.920     13.487
REMARK  9 active torsions:
REMARK  status: ('A' for Active; 'I' for Inactive)
REMARK    1  A    between atoms: N_5  and  C_11 
REMARK    2  A    between atoms: C_8  and  C_21 
REMARK    3  A    between atoms: C_8  and  C_19 
REMARK    4  A    between atoms: C_10  and  C_19 
REMARK    5  A    between atoms: C_11  and  C_12 
REMARK    6  A    between atoms: C_11  and  C_16 
REMARK       I    between atoms: C_12  and  N_13 
REMARK    7  A    between atoms: N_13  and  C_19 
REMARK    8  A    between atoms: C_15  and  C_16 
REMARK    9  A    between atoms: Se_17  and  C_21 
ROOT
HETATM    1  O           1     -20.158  -4.017  -7.189  0.00  0.00    -0.271 OA
HETATM    2  H           1     -22.881  -5.494  -6.695  0.00  0.00     0.163 HD
HETATM    3  C           1     -21.320  -4.303  -7.352  0.00  0.00     0.249 C 
HETATM    4  N           1     -21.907  -5.254  -6.560  0.00  0.00    -0.345 N 
ENDROOT
BRANCH   3   5
HETATM    5  C           1     -22.124  -3.615  -8.427  0.00  0.00     0.284 C 
BRANCH   5   6
HETATM    6  N           1     -21.464  -3.831  -9.758  0.00  0.00    -0.066 N 
HETATM    7  H           1     -22.032  -3.374 -10.507  0.00  0.00     0.275 HD
HETATM    8  H           1     -20.507  -3.413  -9.744  0.00  0.00     0.275 HD
HETATM    9  H           1     -21.395  -4.856  -9.949  0.00  0.00     0.275 HD
ENDBRANCH   5   6
BRANCH   5  10
HETATM   10  C           1     -23.531  -4.193  -8.459  0.00  0.00     0.155 C 
BRANCH  10  11
HETATM   11  C           1     -24.046  -4.191  -9.877  0.00  0.00     0.175 C 
HETATM   12  O           1     -23.997  -5.236 -10.561  0.00  0.00    -0.648 OA
HETATM   13  O           1     -24.520  -3.144 -10.369  0.00  0.00    -0.648 OA
ENDBRANCH  10  11
ENDBRANCH   5  10
ENDBRANCH   3   5
BRANCH   4  14
HETATM   14  C           1     -21.135  -5.915  -5.526  0.00  0.00     0.185 C 
BRANCH  14  15
HETATM   15  C           1     -22.028  -6.188  -4.323  0.00  0.00     0.036 C 
BRANCH  15  16
HETATM   16  C           1     -21.172  -6.289  -3.068  0.00  0.00     0.003 C 
BRANCH  16  17
HETATM   17 Se           1     -22.310  -6.668  -1.532  0.00  0.00     0.000 Se
HETATM   18  C           1     -21.147  -8.051  -0.803  0.00  0.00     0.000 C 
ENDBRANCH  16  17
ENDBRANCH  15  16
ENDBRANCH  14  15
BRANCH  14  19
HETATM   19  C           1     -20.596  -7.220  -6.060  0.00  0.00     0.196 C 
HETATM   20  O           1     -21.297  -8.254  -6.008  0.00  0.00    -0.646 OA
HETATM   21  O           1     -19.449  -7.267  -6.553  0.00  0.00    -0.646 OA
ENDBRANCH  14  19
ENDBRANCH   4  14
TORSDOF 9
ENDMDL
MODEL 7
REMARK VINA RESULT:      -5.2      3.879      6.796
REMARK  9 active torsions:
REMARK  status: ('A' for Active; 'I' for Inactive)
REMARK    1  A    between atoms: N_5  and  C_11 
REMARK    2  A    between atoms: C_8  and  C_21 
REMARK    3  A    between atoms: C_8  and  C_19 
REMARK    4  A    between atoms: C_10  and  C_19 
REMARK    5  A    between atoms: C_11  and  C_12 
REMARK    6  A    between atoms: C_11  and  C_16 
REMARK       I    between atoms: C_12  and  N_13 
REMARK    7  A    between atoms: N_13  and  C_19 
REMARK    8  A    between atoms: C_15  and  C_16 
REMARK    9  A    between atoms: Se_17  and  C_21 
ROOT
HETATM    1  O           1     -29.637  -4.574 -18.337  0.00  0.00    -0.271 OA
HETATM    2  H           1     -31.066  -6.609 -16.424  0.00  0.00     0.163 HD
HETATM    3  C           1     -30.427  -4.968 -17.512  0.00  0.00     0.249 C 
HETATM    4  N           1     -30.405  -6.279 -17.116  0.00  0.00    -0.345 N 
ENDROOT
BRANCH   3   5
HETATM    5  C           1     -31.436  -4.016 -16.919  0.00  0.00     0.284 C 
BRANCH   5   6
HETATM    6  N           1     -31.585  -2.824 -17.818  0.00  0.00    -0.066 N 
HETATM    7  H           1     -32.476  -2.326 -17.592  0.00  0.00     0.275 HD
HETATM    8  H           1     -30.779  -2.176 -17.672  0.00  0.00     0.275 HD
HETATM    9  H           1     -31.604  -3.139 -18.813  0.00  0.00     0.275 HD
ENDBRANCH   5   6
BRANCH   5  10
HETATM   10  C           1     -32.780  -4.720 -16.783  0.00  0.00     0.155 C 
BRANCH  10  11
HETATM   11  C           1     -33.778  -3.782 -16.151  0.00  0.00     0.175 C 
HETATM   12  O           1     -34.222  -2.811 -16.802  0.00  0.00    -0.648 OA
HETATM   13  O           1     -34.162  -3.976 -14.978  0.00  0.00    -0.648 OA
ENDBRANCH  10  11
ENDBRANCH   5  10
ENDBRANCH   3   5
BRANCH   4  14
HETATM   14  C           1     -29.435  -7.194 -17.686  0.00  0.00     0.185 C 
BRANCH  14  15
HETATM   15  C           1     -28.838  -8.053 -16.579  0.00  0.00     0.036 C 
BRANCH  15  16
HETATM   16  C           1     -28.018  -7.177 -15.642  0.00  0.00     0.003 C 
BRANCH  16  17
HETATM   17 Se           1     -26.754  -6.118 -16.680  0.00  0.00     0.000 Se
HETATM   18  C           1     -25.176  -7.050 -16.016  0.00  0.00     0.000 C 
ENDBRANCH  16  17
ENDBRANCH  15  16
ENDBRANCH  14  15
BRANCH  14  19
HETATM   19  C           1     -30.116  -8.080 -18.700  0.00  0.00     0.196 C 
HETATM   20  O           1     -31.361  -8.064 -18.807  0.00  0.00    -0.646 OA
HETATM   21  O           1     -29.435  -8.830 -19.431  0.00  0.00    -0.646 OA
ENDBRANCH  14  19
ENDBRANCH   4  14
TORSDOF 9
ENDMDL
MODEL 8
REMARK VINA RESULT:      -5.0     14.398     16.075
REMARK  9 active torsions:
REMARK  status: ('A' for Active; 'I' for Inactive)
REMARK    1  A    between atoms: N_5  and  C_11 
REMARK    2  A    between atoms: C_8  and  C_21 
REMARK    3  A    between atoms: C_8  and  C_19 
REMARK    4  A    between atoms: C_10  and  C_19 
REMARK    5  A    between atoms: C_11  and  C_12 
REMARK    6  A    between atoms: C_11  and  C_16 
REMARK       I    between atoms: C_12  and  N_13 
REMARK    7  A    between atoms: N_13  and  C_19 
REMARK    8  A    between atoms: C_15  and  C_16 
REMARK    9  A    between atoms: Se_17  and  C_21 
ROOT
HETATM    1  O           1     -22.093  -7.788  -4.896  0.00  0.00    -0.271 OA
HETATM    2  H           1     -19.892  -6.564  -3.024  0.00  0.00     0.163 HD
HETATM    3  C           1     -21.108  -7.158  -4.591  0.00  0.00     0.249 C 
HETATM    4  N           1     -20.717  -7.092  -3.280  0.00  0.00    -0.345 N 
ENDROOT
BRANCH   3   5
HETATM    5  C           1     -20.310  -6.444  -5.654  0.00  0.00     0.284 C 
BRANCH   5   6
HETATM    6  N           1     -20.864  -6.786  -7.007  0.00  0.00    -0.066 N 
HETATM    7  H           1     -21.447  -5.992  -7.355  0.00  0.00     0.275 HD
HETATM    8  H           1     -20.077  -6.957  -7.672  0.00  0.00     0.275 HD
HETATM    9  H           1     -21.453  -7.646  -6.934  0.00  0.00     0.275 HD
ENDBRANCH   5   6
BRANCH   5  10
HETATM   10  C           1     -20.401  -4.941  -5.434  0.00  0.00     0.155 C 
BRANCH  10  11
HETATM   11  C           1     -20.563  -4.246  -6.763  0.00  0.00     0.175 C 
HETATM   12  O           1     -21.660  -3.732  -7.070  0.00  0.00    -0.648 OA
HETATM   13  O           1     -19.600  -4.183  -7.558  0.00  0.00    -0.648 OA
ENDBRANCH  10  11
ENDBRANCH   5  10
ENDBRANCH   3   5
BRANCH   4  14
HETATM   14  C           1     -21.484  -7.778  -2.259  0.00  0.00     0.185 C 
BRANCH  14  15
HETATM   15  C           1     -20.535  -8.500  -1.312  0.00  0.00     0.036 C 
BRANCH  15  16
HETATM   16  C           1     -20.511  -9.985  -1.651  0.00  0.00     0.003 C 
BRANCH  16  17
HETATM   17 Se           1     -22.226 -10.505  -2.416  0.00  0.00     0.000 Se
HETATM   18  C           1     -23.124 -10.685  -0.696  0.00  0.00     0.000 C 
ENDBRANCH  16  17
ENDBRANCH  15  16
ENDBRANCH  14  15
BRANCH  14  19
HETATM   19  C           1     -22.300  -6.772  -1.484  0.00  0.00     0.196 C 
HETATM   20  O           1     -22.876  -7.114  -0.428  0.00  0.00    -0.646 OA
HETATM   21  O           1     -22.400  -5.597  -1.898  0.00  0.00    -0.646 OA
ENDBRANCH  14  19
ENDBRANCH   4  14
TORSDOF 9
ENDMDL
MODEL 9
REMARK VINA RESULT:      -5.0     13.382     15.007
REMARK  9 active torsions:
REMARK  status: ('A' for Active; 'I' for Inactive)
REMARK    1  A    between atoms: N_5  and  C_11 
REMARK    2  A    between atoms: C_8  and  C_21 
REMARK    3  A    between atoms: C_8  and  C_19 
REMARK    4  A    between atoms: C_10  and  C_19 
REMARK    5  A    between atoms: C_11  and  C_12 
REMARK    6  A    between atoms: C_11  and  C_16 
REMARK       I    between atoms: C_12  and  N_13 
REMARK    7  A    between atoms: N_13  and  C_19 
REMARK    8  A    between atoms: C_15  and  C_16 
REMARK    9  A    between atoms: Se_17  and  C_21 
ROOT
HETATM    1  O           1     -22.538  -5.607  -5.654  0.00  0.00    -0.271 OA
HETATM    2  H           1     -19.826  -6.914  -4.773  0.00  0.00     0.163 HD
HETATM    3  C           1     -21.348  -5.811  -5.640  0.00  0.00     0.249 C 
HETATM    4  N           1     -20.823  -6.743  -4.785  0.00  0.00    -0.345 N 
ENDROOT
BRANCH   3   5
HETATM    5  C           1     -20.439  -5.036  -6.562  0.00  0.00     0.284 C 
BRANCH   5   6
HETATM    6  N           1     -19.881  -5.961  -7.604  0.00  0.00    -0.066 N 
HETATM    7  H           1     -19.464  -5.400  -8.381  0.00  0.00     0.275 HD
HETATM    8  H           1     -19.144  -6.564  -7.176  0.00  0.00     0.275 HD
HETATM    9  H           1     -20.648  -6.562  -7.982  0.00  0.00     0.275 HD
ENDBRANCH   5   6
BRANCH   5  10
HETATM   10  C           1     -21.229  -3.926  -7.240  0.00  0.00     0.155 C 
BRANCH  10  11
HETATM   11  C           1     -21.384  -4.241  -8.707  0.00  0.00     0.175 C 
HETATM   12  O           1     -22.376  -4.888  -9.106  0.00  0.00    -0.648 OA
HETATM   13  O           1     -20.521  -3.854  -9.525  0.00  0.00    -0.648 OA
ENDBRANCH  10  11
ENDBRANCH   5  10
ENDBRANCH   3   5
BRANCH   4  14
HETATM   14  C           1     -21.697  -7.487  -3.899  0.00  0.00     0.185 C 
BRANCH  14  15
HETATM   15  C           1     -21.241  -8.939  -3.839  0.00  0.00     0.036 C 
BRANCH  15  16
HETATM   16  C           1     -19.969  -9.106  -4.659  0.00  0.00     0.003 C 
BRANCH  16  17
HETATM   17 Se           1     -18.467  -9.459  -3.468  0.00  0.00     0.000 Se
HETATM   18  C           1     -19.492 -10.571  -2.239  0.00  0.00     0.000 C 
ENDBRANCH  16  17
ENDBRANCH  15  16
ENDBRANCH  14  15
BRANCH  14  19
HETATM   19  C           1     -21.640  -6.884  -2.516  0.00  0.00     0.196 C 
HETATM   20  O           1     -20.879  -7.371  -1.653  0.00  0.00    -0.646 OA
HETATM   21  O           1     -22.356  -5.899  -2.235  0.00  0.00    -0.646 OA
ENDBRANCH  14  19
ENDBRANCH   4  14
TORSDOF 9
ENDMDL
