MODEL 1
REMARK VINA RESULT:      -5.6      0.000      0.000
REMARK  8 active torsions:
REMARK  status: ('A' for Active; 'I' for Inactive)
REMARK    1  A    between atoms: N_4  and  C_9 
REMARK       I    between atoms: N_6  and  C_7 
REMARK    2  A    between atoms: C_7  and  C_8 
REMARK    3  A    between atoms: C_8  and  C_9 
REMARK    4  A    between atoms: C_9  and  C_12 
REMARK    5  A    between atoms: N_11  and  C_19 
REMARK       I    between atoms: N_11  and  C_12 
REMARK    6  A    between atoms: C_18  and  C_19 
REMARK    7  A    between atoms: C_19  and  C_20 
REMARK    8  A    between atoms: C_20  and  Se_21 
ROOT
HETATM    1  C           1     -36.113  -0.153 -13.912  0.00  0.00     0.283 C 
ENDROOT
BRANCH   1   2
HETATM    2  N           1     -35.266  -0.497 -15.101  0.00  0.00    -0.066 N 
HETATM    3  H           1     -34.260  -0.515 -14.821  0.00  0.00     0.275 HD
HETATM    4  H           1     -35.542  -1.437 -15.465  0.00  0.00     0.275 HD
HETATM    5  H           1     -35.405   0.221 -15.848  0.00  0.00     0.275 HD
ENDBRANCH   1   2
BRANCH   1   6
HETATM    6  C           1     -37.582  -0.179 -14.311  0.00  0.00     0.145 C 
BRANCH   6   7
HETATM    7  C           1     -37.722   0.268 -15.747  0.00  0.00     0.217 C 
HETATM    8  O           1     -37.676  -0.545 -16.639  0.00  0.00    -0.274 OA
HETATM    9  N           1     -37.901   1.594 -16.037  0.00  0.00    -0.370 N 
HETATM   10  H           1     -37.995   1.893 -16.999  0.00  0.00     0.159 HD
HETATM   11  H           1     -37.940   2.274 -15.289  0.00  0.00     0.159 HD
ENDBRANCH   6   7
ENDBRANCH   1   6
BRANCH   1  12
HETATM   12  C           1     -35.871  -1.162 -12.816  0.00  0.00     0.249 C 
HETATM   13  O           1     -36.531  -1.125 -11.805  0.00  0.00    -0.271 OA
HETATM   14  N           1     -34.903  -2.118 -12.966  0.00  0.00    -0.345 N 
HETATM   15  H           1     -34.350  -2.149 -13.813  0.00  0.00     0.163 HD
BRANCH  14  16
HETATM   16  C           1     -34.671  -3.087 -11.912  0.00  0.00     0.185 C 
BRANCH  16  17
HETATM   17  C           1     -33.400  -2.736 -11.179  0.00  0.00     0.196 C 
HETATM   18  O           1     -33.412  -1.855 -10.293  0.00  0.00    -0.646 OA
HETATM   19  O           1     -32.333  -3.326 -11.459  0.00  0.00    -0.646 OA
ENDBRANCH  16  17
BRANCH  16  20
HETATM   20  C           1     -34.538  -4.477 -12.522  0.00  0.00     0.039 C 
BRANCH  20  21
HETATM   21 Se           1     -34.459  -5.806 -11.099  0.00  0.00     0.000 Se
HETATM   22  H           1     -33.174  -5.326 -10.564  0.00  0.00     0.000 HD
ENDBRANCH  20  21
ENDBRANCH  16  20
ENDBRANCH  14  16
ENDBRANCH   1  12
TORSDOF 8
ENDMDL
MODEL 2
REMARK VINA RESULT:      -5.6     12.931     15.972
REMARK  8 active torsions:
REMARK  status: ('A' for Active; 'I' for Inactive)
REMARK    1  A    between atoms: N_4  and  C_9 
REMARK       I    between atoms: N_6  and  C_7 
REMARK    2  A    between atoms: C_7  and  C_8 
REMARK    3  A    between atoms: C_8  and  C_9 
REMARK    4  A    between atoms: C_9  and  C_12 
REMARK    5  A    between atoms: N_11  and  C_19 
REMARK       I    between atoms: N_11  and  C_12 
REMARK    6  A    between atoms: C_18  and  C_19 
REMARK    7  A    between atoms: C_19  and  C_20 
REMARK    8  A    between atoms: C_20  and  Se_21 
ROOT
HETATM    1  C           1     -21.188  -5.718  -6.741  0.00  0.00     0.283 C 
ENDROOT
BRANCH   1   2
HETATM    2  N           1     -19.949  -6.252  -7.396  0.00  0.00    -0.066 N 
HETATM    3  H           1     -20.054  -7.280  -7.556  0.00  0.00     0.275 HD
HETATM    4  H           1     -19.805  -5.772  -8.313  0.00  0.00     0.275 HD
HETATM    5  H           1     -19.125  -6.080  -6.778  0.00  0.00     0.275 HD
ENDBRANCH   1   2
BRANCH   1   6
HETATM    6  C           1     -20.857  -5.267  -5.324  0.00  0.00     0.145 C 
BRANCH   6   7
HETATM    7  C           1     -21.206  -6.368  -4.351  0.00  0.00     0.217 C 
HETATM    8  O           1     -20.845  -7.500  -4.567  0.00  0.00    -0.274 OA
HETATM    9  N           1     -21.929  -6.082  -3.225  0.00  0.00    -0.370 N 
HETATM   10  H           1     -22.162  -6.819  -2.572  0.00  0.00     0.159 HD
HETATM   11  H           1     -22.230  -5.133  -3.045  0.00  0.00     0.159 HD
ENDBRANCH   6   7
ENDBRANCH   1   6
BRANCH   1  12
HETATM   12  C           1     -21.709  -4.545  -7.535  0.00  0.00     0.249 C 
HETATM   13  O           1     -21.596  -3.423  -7.099  0.00  0.00    -0.271 OA
HETATM   14  N           1     -22.308  -4.750  -8.748  0.00  0.00    -0.345 N 
HETATM   15  H           1     -22.401  -5.689  -9.113  0.00  0.00     0.163 HD
BRANCH  14  16
HETATM   16  C           1     -22.808  -3.623  -9.511  0.00  0.00     0.185 C 
BRANCH  16  17
HETATM   17  C           1     -24.302  -3.756  -9.680  0.00  0.00     0.196 C 
HETATM   18  O           1     -24.804  -4.867  -9.953  0.00  0.00    -0.646 OA
HETATM   19  O           1     -25.037  -2.753  -9.548  0.00  0.00    -0.646 OA
ENDBRANCH  16  17
BRANCH  16  20
HETATM   20  C           1     -22.141  -3.601 -10.880  0.00  0.00     0.039 C 
BRANCH  20  21
HETATM   21 Se           1     -20.346  -4.346 -10.740  0.00  0.00     0.000 Se
HETATM   22  H           1     -20.123  -4.384 -12.194  0.00  0.00     0.000 HD
ENDBRANCH  20  21
ENDBRANCH  16  20
ENDBRANCH  14  16
ENDBRANCH   1  12
TORSDOF 8
ENDMDL
MODEL 3
REMARK VINA RESULT:      -5.5      9.984     11.981
REMARK  8 active torsions:
REMARK  status: ('A' for Active; 'I' for Inactive)
REMARK    1  A    between atoms: N_4  and  C_9 
REMARK       I    between atoms: N_6  and  C_7 
REMARK    2  A    between atoms: C_7  and  C_8 
REMARK    3  A    between atoms: C_8  and  C_9 
REMARK    4  A    between atoms: C_9  and  C_12 
REMARK    5  A    between atoms: N_11  and  C_19 
REMARK       I    between atoms: N_11  and  C_12 
REMARK    6  A    between atoms: C_18  and  C_19 
REMARK    7  A    between atoms: C_19  and  C_20 
REMARK    8  A    between atoms: C_20  and  Se_21 
ROOT
HETATM    1  C           1     -25.193  -6.768 -17.017  0.00  0.00     0.283 C 
ENDROOT
BRANCH   1   2
HETATM    2  N           1     -24.292  -7.884 -16.579  0.00  0.00    -0.066 N 
HETATM    3  H           1     -23.296  -7.615 -16.746  0.00  0.00     0.275 HD
HETATM    4  H           1     -24.436  -8.068 -15.560  0.00  0.00     0.275 HD
HETATM    5  H           1     -24.515  -8.747 -17.124  0.00  0.00     0.275 HD
ENDBRANCH   1   2
BRANCH   1   6
HETATM    6  C           1     -25.352  -6.809 -18.531  0.00  0.00     0.145 C 
BRANCH   6   7
HETATM    7  C           1     -24.027  -7.154 -19.168  0.00  0.00     0.217 C 
HETATM    8  O           1     -23.009  -6.660 -18.747  0.00  0.00    -0.274 OA
HETATM    9  N           1     -23.981  -8.027 -20.221  0.00  0.00    -0.370 N 
HETATM   10  H           1     -23.093  -8.259 -20.647  0.00  0.00     0.159 HD
HETATM   11  H           1     -24.835  -8.441 -20.572  0.00  0.00     0.159 HD
ENDBRANCH   6   7
ENDBRANCH   1   6
BRANCH   1  12
HETATM   12  C           1     -26.544  -6.928 -16.363  0.00  0.00     0.249 C 
HETATM   13  O           1     -26.622  -7.348 -15.233  0.00  0.00    -0.271 OA
HETATM   14  N           1     -27.681  -6.597 -17.049  0.00  0.00    -0.345 N 
HETATM   15  H           1     -27.616  -6.244 -17.996  0.00  0.00     0.163 HD
BRANCH  14  16
HETATM   16  C           1     -28.978  -6.751 -16.421  0.00  0.00     0.185 C 
BRANCH  16  17
HETATM   17  C           1     -29.954  -7.325 -17.419  0.00  0.00     0.196 C 
HETATM   18  O           1     -31.137  -6.923 -17.439  0.00  0.00    -0.646 OA
HETATM   19  O           1     -29.578  -8.204 -18.225  0.00  0.00    -0.646 OA
ENDBRANCH  16  17
BRANCH  16  20
HETATM   20  C           1     -29.477  -5.392 -15.947  0.00  0.00     0.039 C 
BRANCH  20  21
HETATM   21 Se           1     -28.908  -4.016 -17.206  0.00  0.00     0.000 Se
HETATM   22  H           1     -28.485  -4.973 -18.241  0.00  0.00     0.000 HD
ENDBRANCH  20  21
ENDBRANCH  16  20
ENDBRANCH  14  16
ENDBRANCH   1  12
TORSDOF 8
ENDMDL
MODEL 4
REMARK VINA RESULT:      -5.5     11.200     12.774
REMARK  8 active torsions:
REMARK  status: ('A' for Active; 'I' for Inactive)
REMARK    1  A    between atoms: N_4  and  C_9 
REMARK       I    between atoms: N_6  and  C_7 
REMARK    2  A    between atoms: C_7  and  C_8 
REMARK    3  A    between atoms: C_8  and  C_9 
REMARK    4  A    between atoms: C_9  and  C_12 
REMARK    5  A    between atoms: N_11  and  C_19 
REMARK       I    between atoms: N_11  and  C_12 
REMARK    6  A    between atoms: C_18  and  C_19 
REMARK    7  A    between atoms: C_19  and  C_20 
REMARK    8  A    between atoms: C_20  and  Se_21 
ROOT
HETATM    1  C           1     -25.008  -6.938 -19.941  0.00  0.00     0.283 C 
ENDROOT
BRANCH   1   2
HETATM    2  N           1     -24.363  -7.475 -18.698  0.00  0.00    -0.066 N 
HETATM    3  H           1     -25.100  -7.818 -18.042  0.00  0.00     0.275 HD
HETATM    4  H           1     -23.726  -8.264 -18.949  0.00  0.00     0.275 HD
HETATM    5  H           1     -23.812  -6.717 -18.236  0.00  0.00     0.275 HD
ENDBRANCH   1   2
BRANCH   1   6
HETATM    6  C           1     -25.133  -8.055 -20.969  0.00  0.00     0.145 C 
BRANCH   6   7
HETATM    7  C           1     -23.850  -8.160 -21.758  0.00  0.00     0.217 C 
HETATM    8  O           1     -23.724  -7.545 -22.790  0.00  0.00    -0.274 OA
HETATM    9  N           1     -22.830  -8.951 -21.303  0.00  0.00    -0.370 N 
HETATM   10  H           1     -21.970  -9.021 -21.832  0.00  0.00     0.159 HD
HETATM   11  H           1     -22.936  -9.465 -20.438  0.00  0.00     0.159 HD
ENDBRANCH   6   7
ENDBRANCH   1   6
BRANCH   1  12
HETATM   12  C           1     -26.379  -6.406 -19.605  0.00  0.00     0.249 C 
HETATM   13  O           1     -27.114  -6.030 -20.488  0.00  0.00    -0.271 OA
HETATM   14  N           1     -26.791  -6.349 -18.302  0.00  0.00    -0.345 N 
HETATM   15  H           1     -26.176  -6.664 -17.562  0.00  0.00     0.163 HD
BRANCH  14  16
HETATM   16  C           1     -28.109  -5.837 -17.979  0.00  0.00     0.185 C 
BRANCH  16  17
HETATM   17  C           1     -27.994  -4.817 -16.873  0.00  0.00     0.196 C 
HETATM   18  O           1     -27.563  -5.158 -15.750  0.00  0.00    -0.646 OA
HETATM   19  O           1     -28.331  -3.631 -17.079  0.00  0.00    -0.646 OA
ENDBRANCH  16  17
BRANCH  16  20
HETATM   20  C           1     -29.001  -6.985 -17.522  0.00  0.00     0.039 C 
BRANCH  20  21
HETATM   21 Se           1     -30.811  -6.325 -17.230  0.00  0.00     0.000 Se
HETATM   22  H           1     -31.328  -6.834 -18.510  0.00  0.00     0.000 HD
ENDBRANCH  20  21
ENDBRANCH  16  20
ENDBRANCH  14  16
ENDBRANCH   1  12
TORSDOF 8
ENDMDL
MODEL 5
REMARK VINA RESULT:      -5.4      8.705     10.070
REMARK  8 active torsions:
REMARK  status: ('A' for Active; 'I' for Inactive)
REMARK    1  A    between atoms: N_4  and  C_9 
REMARK       I    between atoms: N_6  and  C_7 
REMARK    2  A    between atoms: C_7  and  C_8 
REMARK    3  A    between atoms: C_8  and  C_9 
REMARK    4  A    between atoms: C_9  and  C_12 
REMARK    5  A    between atoms: N_11  and  C_19 
REMARK       I    between atoms: N_11  and  C_12 
REMARK    6  A    between atoms: C_18  and  C_19 
REMARK    7  A    between atoms: C_19  and  C_20 
REMARK    8  A    between atoms: C_20  and  Se_21 
ROOT
HETATM    1  C           1     -29.844  -5.714 -17.507  0.00  0.00     0.283 C 
ENDROOT
BRANCH   1   2
HETATM    2  N           1     -30.407  -5.273 -16.189  0.00  0.00    -0.066 N 
HETATM    3  H           1     -29.956  -4.376 -15.898  0.00  0.00     0.275 HD
HETATM    4  H           1     -31.438  -5.130 -16.281  0.00  0.00     0.275 HD
HETATM    5  H           1     -30.220  -6.005 -15.467  0.00  0.00     0.275 HD
ENDBRANCH   1   2
BRANCH   1   6
HETATM    6  C           1     -29.445  -4.490 -18.322  0.00  0.00     0.145 C 
BRANCH   6   7
HETATM    7  C           1     -29.062  -3.367 -17.389  0.00  0.00     0.217 C 
HETATM    8  O           1     -28.164  -3.521 -16.596  0.00  0.00    -0.274 OA
HETATM    9  N           1     -29.730  -2.174 -17.444  0.00  0.00    -0.370 N 
HETATM   10  H           1     -29.473  -1.420 -16.819  0.00  0.00     0.159 HD
HETATM   11  H           1     -30.482  -2.045 -18.109  0.00  0.00     0.159 HD
ENDBRANCH   6   7
ENDBRANCH   1   6
BRANCH   1  12
HETATM   12  C           1     -28.631  -6.580 -17.271  0.00  0.00     0.249 C 
HETATM   13  O           1     -28.749  -7.644 -16.711  0.00  0.00    -0.271 OA
HETATM   14  N           1     -27.397  -6.161 -17.690  0.00  0.00    -0.345 N 
HETATM   15  H           1     -27.299  -5.269 -18.159  0.00  0.00     0.163 HD
BRANCH  14  16
HETATM   16  C           1     -26.232  -6.993 -17.462  0.00  0.00     0.185 C 
BRANCH  16  17
HETATM   17  C           1     -25.641  -6.670 -16.112  0.00  0.00     0.196 C 
HETATM   18  O           1     -25.054  -5.582 -15.930  0.00  0.00    -0.646 OA
HETATM   19  O           1     -25.737  -7.492 -15.175  0.00  0.00    -0.646 OA
ENDBRANCH  16  17
BRANCH  16  20
HETATM   20  C           1     -25.198  -6.724 -18.548  0.00  0.00     0.039 C 
BRANCH  20  21
HETATM   21 Se           1     -26.048  -6.835 -20.298  0.00  0.00     0.000 Se
HETATM   22  H           1     -26.110  -5.377 -20.490  0.00  0.00     0.000 HD
ENDBRANCH  20  21
ENDBRANCH  16  20
ENDBRANCH  14  16
ENDBRANCH   1  12
TORSDOF 8
ENDMDL
MODEL 6
REMARK VINA RESULT:      -5.3     12.546     14.977
REMARK  8 active torsions:
REMARK  status: ('A' for Active; 'I' for Inactive)
REMARK    1  A    between atoms: N_4  and  C_9 
REMARK       I    between atoms: N_6  and  C_7 
REMARK    2  A    between atoms: C_7  and  C_8 
REMARK    3  A    between atoms: C_8  and  C_9 
REMARK    4  A    between atoms: C_9  and  C_12 
REMARK    5  A    between atoms: N_11  and  C_19 
REMARK       I    between atoms: N_11  and  C_12 
REMARK    6  A    between atoms: C_18  and  C_19 
REMARK    7  A    between atoms: C_19  and  C_20 
REMARK    8  A    between atoms: C_20  and  Se_21 
ROOT
HETATM    1  C           1     -22.386  -3.694  -8.798  0.00  0.00     0.283 C 
ENDROOT
BRANCH   1   2
HETATM    2  N           1     -21.576  -3.987 -10.026  0.00  0.00    -0.066 N 
HETATM    3  H           1     -22.033  -3.551 -10.858  0.00  0.00     0.275 HD
HETATM    4  H           1     -20.615  -3.592  -9.911  0.00  0.00     0.275 HD
HETATM    5  H           1     -21.515  -5.020 -10.165  0.00  0.00     0.275 HD
ENDBRANCH   1   2
BRANCH   1   6
HETATM    6  C           1     -23.740  -4.384  -8.908  0.00  0.00     0.145 C 
BRANCH   6   7
HETATM    7  C           1     -24.641  -3.585  -9.818  0.00  0.00     0.217 C 
HETATM    8  O           1     -24.170  -2.977 -10.750  0.00  0.00    -0.274 OA
HETATM    9  N           1     -25.990  -3.550  -9.588  0.00  0.00    -0.370 N 
HETATM   10  H           1     -26.593  -3.015 -10.199  0.00  0.00     0.159 HD
HETATM   11  H           1     -26.382  -4.060  -8.808  0.00  0.00     0.159 HD
ENDBRANCH   6   7
ENDBRANCH   1   6
BRANCH   1  12
HETATM   12  C           1     -21.656  -4.207  -7.581  0.00  0.00     0.249 C 
HETATM   13  O           1     -20.678  -3.626  -7.175  0.00  0.00    -0.271 OA
HETATM   14  N           1     -22.101  -5.329  -6.936  0.00  0.00    -0.345 N 
HETATM   15  H           1     -22.922  -5.815  -7.276  0.00  0.00     0.163 HD
BRANCH  14  16
HETATM   16  C           1     -21.400  -5.821  -5.767  0.00  0.00     0.185 C 
BRANCH  16  17
HETATM   17  C           1     -20.523  -6.984  -6.161  0.00  0.00     0.196 C 
HETATM   18  O           1     -19.511  -6.793  -6.868  0.00  0.00    -0.646 OA
HETATM   19  O           1     -20.810  -8.140  -5.780  0.00  0.00    -0.646 OA
ENDBRANCH  16  17
BRANCH  16  20
HETATM   20  C           1     -22.411  -6.277  -4.723  0.00  0.00     0.039 C 
BRANCH  20  21
HETATM   21 Se           1     -21.578  -6.265  -2.962  0.00  0.00     0.000 Se
HETATM   22  H           1     -22.824  -5.951  -2.246  0.00  0.00     0.000 HD
ENDBRANCH  20  21
ENDBRANCH  16  20
ENDBRANCH  14  16
ENDBRANCH   1  12
TORSDOF 8
ENDMDL
MODEL 7
REMARK VINA RESULT:      -5.3      2.018      2.323
REMARK  8 active torsions:
REMARK  status: ('A' for Active; 'I' for Inactive)
REMARK    1  A    between atoms: N_4  and  C_9 
REMARK       I    between atoms: N_6  and  C_7 
REMARK    2  A    between atoms: C_7  and  C_8 
REMARK    3  A    between atoms: C_8  and  C_9 
REMARK    4  A    between atoms: C_9  and  C_12 
REMARK    5  A    between atoms: N_11  and  C_19 
REMARK       I    between atoms: N_11  and  C_12 
REMARK    6  A    between atoms: C_18  and  C_19 
REMARK    7  A    between atoms: C_19  and  C_20 
REMARK    8  A    between atoms: C_20  and  Se_21 
ROOT
HETATM    1  C           1     -35.588   0.062 -13.675  0.00  0.00     0.283 C 
ENDROOT
BRANCH   1   2
HETATM    2  N           1     -34.499   0.805 -14.391  0.00  0.00    -0.066 N 
HETATM    3  H           1     -34.804   1.013 -15.369  0.00  0.00     0.275 HD
HETATM    4  H           1     -34.302   1.701 -13.890  0.00  0.00     0.275 HD
HETATM    5  H           1     -33.634   0.220 -14.413  0.00  0.00     0.275 HD
ENDBRANCH   1   2
BRANCH   1   6
HETATM    6  C           1     -36.855   0.080 -14.519  0.00  0.00     0.145 C 
BRANCH   6   7
HETATM    7  C           1     -36.505   0.437 -15.944  0.00  0.00     0.217 C 
HETATM    8  O           1     -36.421   1.596 -16.272  0.00  0.00    -0.274 OA
HETATM    9  N           1     -36.284  -0.553 -16.863  0.00  0.00    -0.370 N 
HETATM   10  H           1     -36.049  -0.314 -17.818  0.00  0.00     0.159 HD
HETATM   11  H           1     -36.355  -1.524 -16.587  0.00  0.00     0.159 HD
ENDBRANCH   6   7
ENDBRANCH   1   6
BRANCH   1  12
HETATM   12  C           1     -35.154  -1.366 -13.447  0.00  0.00     0.249 C 
HETATM   13  O           1     -34.984  -2.103 -14.389  0.00  0.00    -0.271 OA
HETATM   14  N           1     -34.952  -1.826 -12.174  0.00  0.00    -0.345 N 
HETATM   15  H           1     -35.093  -1.208 -11.385  0.00  0.00     0.163 HD
BRANCH  14  16
HETATM   16  C           1     -34.536  -3.197 -11.955  0.00  0.00     0.185 C 
BRANCH  16  17
HETATM   17  C           1     -35.478  -3.858 -10.979  0.00  0.00     0.196 C 
HETATM   18  O           1     -35.212  -4.990 -10.522  0.00  0.00    -0.646 OA
HETATM   19  O           1     -36.525  -3.272 -10.627  0.00  0.00    -0.646 OA
ENDBRANCH  16  17
BRANCH  16  20
HETATM   20  C           1     -33.122  -3.213 -11.388  0.00  0.00     0.039 C 
BRANCH  20  21
HETATM   21 Se           1     -32.128  -4.701 -12.161  0.00  0.00     0.000 Se
HETATM   22  H           1     -31.922  -4.040 -13.459  0.00  0.00     0.000 HD
ENDBRANCH  20  21
ENDBRANCH  16  20
ENDBRANCH  14  16
ENDBRANCH   1  12
TORSDOF 8
ENDMDL
MODEL 8
REMARK VINA RESULT:      -5.2     13.433     15.106
REMARK  8 active torsions:
REMARK  status: ('A' for Active; 'I' for Inactive)
REMARK    1  A    between atoms: N_4  and  C_9 
REMARK       I    between atoms: N_6  and  C_7 
REMARK    2  A    between atoms: C_7  and  C_8 
REMARK    3  A    between atoms: C_8  and  C_9 
REMARK    4  A    between atoms: C_9  and  C_12 
REMARK    5  A    between atoms: N_11  and  C_19 
REMARK       I    between atoms: N_11  and  C_12 
REMARK    6  A    between atoms: C_18  and  C_19 
REMARK    7  A    between atoms: C_19  and  C_20 
REMARK    8  A    between atoms: C_20  and  Se_21 
ROOT
HETATM    1  C           1     -23.106  -4.214  -9.071  0.00  0.00     0.283 C 
ENDROOT
BRANCH   1   2
HETATM    2  N           1     -24.366  -3.423  -8.879  0.00  0.00    -0.066 N 
HETATM    3  H           1     -25.190  -4.064  -8.921  0.00  0.00     0.275 HD
HETATM    4  H           1     -24.341  -2.950  -7.947  0.00  0.00     0.275 HD
HETATM    5  H           1     -24.445  -2.705  -9.633  0.00  0.00     0.275 HD
ENDBRANCH   1   2
BRANCH   1   6
HETATM    6  C           1     -22.239  -3.538 -10.125  0.00  0.00     0.145 C 
BRANCH   6   7
HETATM    7  C           1     -22.501  -4.167 -11.472  0.00  0.00     0.217 C 
HETATM    8  O           1     -23.565  -4.692 -11.696  0.00  0.00    -0.274 OA
HETATM    9  N           1     -21.532  -4.142 -12.439  0.00  0.00    -0.370 N 
HETATM   10  H           1     -21.708  -4.564 -13.342  0.00  0.00     0.159 HD
HETATM   11  H           1     -20.641  -3.702 -12.250  0.00  0.00     0.159 HD
ENDBRANCH   6   7
ENDBRANCH   1   6
BRANCH   1  12
HETATM   12  C           1     -22.352  -4.281  -7.765  0.00  0.00     0.249 C 
HETATM   13  O           1     -21.773  -3.305  -7.351  0.00  0.00    -0.271 OA
HETATM   14  N           1     -22.324  -5.447  -7.050  0.00  0.00    -0.345 N 
HETATM   15  H           1     -22.810  -6.265  -7.396  0.00  0.00     0.163 HD
BRANCH  14  16
HETATM   16  C           1     -21.600  -5.512  -5.795  0.00  0.00     0.185 C 
BRANCH  16  17
HETATM   17  C           1     -20.156  -5.858  -6.067  0.00  0.00     0.196 C 
HETATM   18  O           1     -19.287  -4.960  -6.060  0.00  0.00    -0.646 OA
HETATM   19  O           1     -19.830  -7.042  -6.299  0.00  0.00    -0.646 OA
ENDBRANCH  16  17
BRANCH  16  20
HETATM   20  C           1     -22.220  -6.582  -4.906  0.00  0.00     0.039 C 
BRANCH  20  21
HETATM   21 Se           1     -21.545  -6.388  -3.088  0.00  0.00     0.000 Se
HETATM   22  H           1     -22.715  -7.024  -2.462  0.00  0.00     0.000 HD
ENDBRANCH  20  21
ENDBRANCH  16  20
ENDBRANCH  14  16
ENDBRANCH   1  12
TORSDOF 8
ENDMDL
MODEL 9
REMARK VINA RESULT:      -5.1     14.755     16.670
REMARK  8 active torsions:
REMARK  status: ('A' for Active; 'I' for Inactive)
REMARK    1  A    between atoms: N_4  and  C_9 
REMARK       I    between atoms: N_6  and  C_7 
REMARK    2  A    between atoms: C_7  and  C_8 
REMARK    3  A    between atoms: C_8  and  C_9 
REMARK    4  A    between atoms: C_9  and  C_12 
REMARK    5  A    between atoms: N_11  and  C_19 
REMARK       I    between atoms: N_11  and  C_12 
REMARK    6  A    between atoms: C_18  and  C_19 
REMARK    7  A    between atoms: C_19  and  C_20 
REMARK    8  A    between atoms: C_20  and  Se_21 
ROOT
HETATM    1  C           1     -20.640  -4.971  -6.680  0.00  0.00     0.283 C 
ENDROOT
BRANCH   1   2
HETATM    2  N           1     -20.435  -5.756  -7.941  0.00  0.00    -0.066 N 
HETATM    3  H           1     -20.254  -5.101  -8.735  0.00  0.00     0.275 HD
HETATM    4  H           1     -19.616  -6.395  -7.825  0.00  0.00     0.275 HD
HETATM    5  H           1     -21.291  -6.320  -8.144  0.00  0.00     0.275 HD
ENDBRANCH   1   2
BRANCH   1   6
HETATM    6  C           1     -21.351  -3.665  -7.005  0.00  0.00     0.145 C 
BRANCH   6   7
HETATM    7  C           1     -22.238  -3.861  -8.212  0.00  0.00     0.217 C 
HETATM    8  O           1     -21.770  -3.785  -9.322  0.00  0.00    -0.274 OA
HETATM    9  N           1     -23.571  -4.125  -8.046  0.00  0.00    -0.370 N 
HETATM   10  H           1     -24.164  -4.257  -8.855  0.00  0.00     0.159 HD
HETATM   11  H           1     -23.961  -4.189  -7.115  0.00  0.00     0.159 HD
ENDBRANCH   6   7
ENDBRANCH   1   6
BRANCH   1  12
HETATM   12  C           1     -21.479  -5.777  -5.718  0.00  0.00     0.249 C 
HETATM   13  O           1     -22.673  -5.601  -5.665  0.00  0.00    -0.271 OA
HETATM   14  N           1     -20.888  -6.707  -4.907  0.00  0.00    -0.345 N 
HETATM   15  H           1     -19.888  -6.855  -4.952  0.00  0.00     0.163 HD
BRANCH  14  16
HETATM   16  C           1     -21.694  -7.481  -3.983  0.00  0.00     0.185 C 
BRANCH  16  17
HETATM   17  C           1     -21.590  -6.881  -2.602  0.00  0.00     0.196 C 
HETATM   18  O           1     -20.777  -7.349  -1.777  0.00  0.00    -0.646 OA
HETATM   19  O           1     -22.318  -5.916  -2.283  0.00  0.00    -0.646 OA
ENDBRANCH  16  17
BRANCH  16  20
HETATM   20  C           1     -21.191  -8.918  -3.952  0.00  0.00     0.039 C 
BRANCH  20  21
HETATM   21 Se           1     -19.428  -9.008  -4.779  0.00  0.00     0.000 Se
HETATM   22  H           1     -19.942  -9.367  -6.110  0.00  0.00     0.000 HD
ENDBRANCH  20  21
ENDBRANCH  16  20
ENDBRANCH  14  16
ENDBRANCH   1  12
TORSDOF 8
ENDMDL
