MODEL 1
REMARK VINA RESULT:      -7.6      0.000      0.000
REMARK  9 active torsions:
REMARK  status: ('A' for Active; 'I' for Inactive)
REMARK    1  A    between atoms: N_2  and  C_14 
REMARK    2  A    between atoms: C_4  and  O_5 
REMARK    3  A    between atoms: C_4  and  C_7 
REMARK    4  A    between atoms: C_7  and  C_24 
REMARK    5  A    between atoms: C_7  and  N_17 
REMARK       I    between atoms: C_13  and  N_17 
REMARK    6  A    between atoms: C_13  and  C_14 
REMARK    7  A    between atoms: C_14  and  C_15 
REMARK    8  A    between atoms: C_15  and  C_16 
REMARK    9  A    between atoms: C_25  and  O_26 
ROOT
HETATM    1  C           1     -21.175  -5.701  -6.947  0.00  0.00     0.278 C 
ENDROOT
BRANCH   1   2
HETATM    2  N           1     -19.894  -6.223  -7.528  0.00  0.00    -0.066 N 
HETATM    3  H           1     -20.110  -6.925  -8.271  0.00  0.00     0.275 HD
HETATM    4  H           1     -19.329  -6.676  -6.775  0.00  0.00     0.275 HD
HETATM    5  H           1     -19.352  -5.432  -7.942  0.00  0.00     0.275 HD
ENDBRANCH   1   2
BRANCH   1   6
HETATM    6  C           1     -21.680  -4.557  -7.791  0.00  0.00     0.249 C 
HETATM    7  O           1     -21.708  -3.438  -7.337  0.00  0.00    -0.271 OA
HETATM    8  N           1     -22.105  -4.788  -9.072  0.00  0.00    -0.343 N 
HETATM    9  H           1     -22.080  -5.725  -9.452  0.00  0.00     0.163 HD
BRANCH   8  10
HETATM   10  C           1     -22.591  -3.688  -9.883  0.00  0.00     0.214 C 
BRANCH  10  11
HETATM   11  C           1     -21.806  -3.633 -11.188  0.00  0.00     0.147 C 
HETATM   12  C           1     -20.416  -4.216 -10.970  0.00  0.00     0.042 C 
BRANCH  11  13
HETATM   13  O           1     -22.477  -4.380 -12.167  0.00  0.00    -0.393 OA
HETATM   14  H           1     -23.267  -3.912 -12.375  0.00  0.00     0.210 HD
ENDBRANCH  11  13
ENDBRANCH  10  11
BRANCH  10  15
HETATM   15  C           1     -24.055  -3.896 -10.186  0.00  0.00     0.199 C 
HETATM   16  O           1     -24.595  -4.994  -9.935  0.00  0.00    -0.646 OA
HETATM   17  O           1     -24.726  -2.970 -10.691  0.00  0.00    -0.646 OA
ENDBRANCH  10  15
ENDBRANCH   8  10
ENDBRANCH   1   6
BRANCH   1  18
HETATM   18  C           1     -20.925  -5.213  -5.526  0.00  0.00     0.081 C 
BRANCH  18  19
HETATM   19  C           1     -21.176  -6.331  -4.561  0.00  0.00    -0.056 A 
HETATM   20  C           1     -21.273  -7.642  -5.025  0.00  0.00     0.010 A 
HETATM   21  C           1     -21.507  -8.683  -4.127  0.00  0.00     0.037 A 
HETATM   22  C           1     -21.643  -8.413  -2.766  0.00  0.00     0.065 A 
HETATM   23  C           1     -21.546  -7.100  -2.302  0.00  0.00     0.037 A 
HETATM   24  C           1     -21.312  -6.059  -3.200  0.00  0.00     0.010 A 
BRANCH  22  25
HETATM   25  O           1     -21.870  -9.424  -1.894  0.00  0.00    -0.361 OA
HETATM   26  H           1     -22.238  -9.042  -1.079  0.00  0.00     0.217 HD
ENDBRANCH  22  25
ENDBRANCH  18  19
ENDBRANCH   1  18
TORSDOF 9
ENDMDL
MODEL 2
REMARK VINA RESULT:      -7.3      2.066      7.677
REMARK  9 active torsions:
REMARK  status: ('A' for Active; 'I' for Inactive)
REMARK    1  A    between atoms: N_2  and  C_14 
REMARK    2  A    between atoms: C_4  and  O_5 
REMARK    3  A    between atoms: C_4  and  C_7 
REMARK    4  A    between atoms: C_7  and  C_24 
REMARK    5  A    between atoms: C_7  and  N_17 
REMARK       I    between atoms: C_13  and  N_17 
REMARK    6  A    between atoms: C_13  and  C_14 
REMARK    7  A    between atoms: C_14  and  C_15 
REMARK    8  A    between atoms: C_15  and  C_16 
REMARK    9  A    between atoms: C_25  and  O_26 
ROOT
HETATM    1  C           1     -22.220  -5.234  -6.673  0.00  0.00     0.278 C 
ENDROOT
BRANCH   1   2
HETATM    2  N           1     -23.617  -4.927  -6.221  0.00  0.00    -0.066 N 
HETATM    3  H           1     -23.596  -4.582  -5.235  0.00  0.00     0.275 HD
HETATM    4  H           1     -24.199  -5.793  -6.274  0.00  0.00     0.275 HD
HETATM    5  H           1     -24.029  -4.192  -6.839  0.00  0.00     0.275 HD
ENDBRANCH   1   2
BRANCH   1   6
HETATM    6  C           1     -21.429  -5.794  -5.517  0.00  0.00     0.249 C 
HETATM    7  O           1     -20.225  -5.694  -5.504  0.00  0.00    -0.271 OA
HETATM    8  N           1     -22.076  -6.414  -4.482  0.00  0.00    -0.343 N 
HETATM    9  H           1     -23.084  -6.497  -4.492  0.00  0.00     0.163 HD
BRANCH   8  10
HETATM   10  C           1     -21.315  -6.952  -3.371  0.00  0.00     0.214 C 
BRANCH  10  11
HETATM   11  C           1     -22.168  -6.924  -2.109  0.00  0.00     0.147 C 
HETATM   12  C           1     -21.415  -7.599  -0.971  0.00  0.00     0.042 C 
BRANCH  11  13
HETATM   13  O           1     -22.443  -5.594  -1.762  0.00  0.00    -0.393 OA
HETATM   14  H           1     -22.274  -5.070  -2.527  0.00  0.00     0.210 HD
ENDBRANCH  11  13
ENDBRANCH  10  11
BRANCH  10  15
HETATM   15  C           1     -20.919  -8.377  -3.676  0.00  0.00     0.199 C 
HETATM   16  O           1     -19.712  -8.695  -3.718  0.00  0.00    -0.646 OA
HETATM   17  O           1     -21.801  -9.238  -3.889  0.00  0.00    -0.646 OA
ENDBRANCH  10  15
ENDBRANCH   8  10
ENDBRANCH   1   6
BRANCH   1  18
HETATM   18  C           1     -21.557  -3.957  -7.172  0.00  0.00     0.081 C 
BRANCH  18  19
HETATM   19  C           1     -21.588  -3.929  -8.669  0.00  0.00    -0.056 A 
HETATM   20  C           1     -22.782  -3.657  -9.336  0.00  0.00     0.010 A 
HETATM   21  C           1     -22.812  -3.631 -10.730  0.00  0.00     0.037 A 
HETATM   22  C           1     -21.647  -3.876 -11.457  0.00  0.00     0.065 A 
HETATM   23  C           1     -20.452  -4.149 -10.789  0.00  0.00     0.037 A 
HETATM   24  C           1     -20.423  -4.175  -9.395  0.00  0.00     0.010 A 
BRANCH  22  25
HETATM   25  O           1     -21.675  -3.852 -12.811  0.00  0.00    -0.361 OA
HETATM   26  H           1     -21.609  -2.925 -13.097  0.00  0.00     0.217 HD
ENDBRANCH  22  25
ENDBRANCH  18  19
ENDBRANCH   1  18
TORSDOF 9
ENDMDL
MODEL 3
REMARK VINA RESULT:      -7.3     12.869     15.680
REMARK  9 active torsions:
REMARK  status: ('A' for Active; 'I' for Inactive)
REMARK    1  A    between atoms: N_2  and  C_14 
REMARK    2  A    between atoms: C_4  and  O_5 
REMARK    3  A    between atoms: C_4  and  C_7 
REMARK    4  A    between atoms: C_7  and  C_24 
REMARK    5  A    between atoms: C_7  and  N_17 
REMARK       I    between atoms: C_13  and  N_17 
REMARK    6  A    between atoms: C_13  and  C_14 
REMARK    7  A    between atoms: C_14  and  C_15 
REMARK    8  A    between atoms: C_15  and  C_16 
REMARK    9  A    between atoms: C_25  and  O_26 
ROOT
HETATM    1  C           1     -35.895  -0.674 -11.261  0.00  0.00     0.278 C 
ENDROOT
BRANCH   1   2
HETATM    2  N           1     -36.195   0.444 -10.306  0.00  0.00    -0.066 N 
HETATM    3  H           1     -35.390   0.569  -9.652  0.00  0.00     0.275 HD
HETATM    4  H           1     -37.055   0.214  -9.759  0.00  0.00     0.275 HD
HETATM    5  H           1     -36.349   1.327 -10.842  0.00  0.00     0.275 HD
ENDBRANCH   1   2
BRANCH   1   6
HETATM    6  C           1     -36.708  -0.492 -12.519  0.00  0.00     0.249 C 
HETATM    7  O           1     -37.903  -0.332 -12.448  0.00  0.00    -0.271 OA
HETATM    8  N           1     -36.090  -0.506 -13.741  0.00  0.00    -0.343 N 
HETATM    9  H           1     -35.089  -0.639 -13.800  0.00  0.00     0.163 HD
BRANCH   8  10
HETATM   10  C           1     -36.872  -0.331 -14.949  0.00  0.00     0.214 C 
BRANCH  10  11
HETATM   11  C           1     -37.042   1.156 -15.235  0.00  0.00     0.147 C 
HETATM   12  C           1     -35.742   1.717 -15.798  0.00  0.00     0.042 C 
BRANCH  11  13
HETATM   13  O           1     -38.071   1.336 -16.169  0.00  0.00    -0.393 OA
HETATM   14  H           1     -38.074   2.249 -16.401  0.00  0.00     0.210 HD
ENDBRANCH  11  13
ENDBRANCH  10  11
BRANCH  10  15
HETATM   15  C           1     -36.159  -0.986 -16.108  0.00  0.00     0.199 C 
HETATM   16  O           1     -36.596  -0.847 -17.270  0.00  0.00    -0.646 OA
HETATM   17  O           1     -35.131  -1.668 -15.903  0.00  0.00    -0.646 OA
ENDBRANCH  10  15
ENDBRANCH   8  10
ENDBRANCH   1   6
BRANCH   1  18
HETATM   18  C           1     -36.252  -2.005 -10.613  0.00  0.00     0.081 C 
BRANCH  18  19
HETATM   19  C           1     -35.179  -3.008 -10.905  0.00  0.00    -0.056 A 
HETATM   20  C           1     -33.883  -2.578 -11.190  0.00  0.00     0.010 A 
HETATM   21  C           1     -32.884  -3.512 -11.462  0.00  0.00     0.037 A 
HETATM   22  C           1     -33.180  -4.875 -11.449  0.00  0.00     0.065 A 
HETATM   23  C           1     -34.477  -5.304 -11.165  0.00  0.00     0.037 A 
HETATM   24  C           1     -35.476  -4.370 -10.893  0.00  0.00     0.010 A 
BRANCH  22  25
HETATM   25  O           1     -32.210  -5.781 -11.714  0.00  0.00    -0.361 OA
HETATM   26  H           1     -31.418  -5.299 -12.007  0.00  0.00     0.217 HD
ENDBRANCH  22  25
ENDBRANCH  18  19
ENDBRANCH   1  18
TORSDOF 9
ENDMDL
MODEL 4
REMARK VINA RESULT:      -7.0      2.119      7.581
REMARK  9 active torsions:
REMARK  status: ('A' for Active; 'I' for Inactive)
REMARK    1  A    between atoms: N_2  and  C_14 
REMARK    2  A    between atoms: C_4  and  O_5 
REMARK    3  A    between atoms: C_4  and  C_7 
REMARK    4  A    between atoms: C_7  and  C_24 
REMARK    5  A    between atoms: C_7  and  N_17 
REMARK       I    between atoms: C_13  and  N_17 
REMARK    6  A    between atoms: C_13  and  C_14 
REMARK    7  A    between atoms: C_14  and  C_15 
REMARK    8  A    between atoms: C_15  and  C_16 
REMARK    9  A    between atoms: C_25  and  O_26 
ROOT
HETATM    1  C           1     -21.282  -5.081  -6.153  0.00  0.00     0.278 C 
ENDROOT
BRANCH   1   2
HETATM    2  N           1     -20.002  -4.514  -5.614  0.00  0.00    -0.066 N 
HETATM    3  H           1     -19.783  -4.959  -4.694  0.00  0.00     0.275 HD
HETATM    4  H           1     -20.104  -3.482  -5.487  0.00  0.00     0.275 HD
HETATM    5  H           1     -19.226  -4.707  -6.287  0.00  0.00     0.275 HD
ENDBRANCH   1   2
BRANCH   1   6
HETATM    6  C           1     -21.923  -5.958  -5.105  0.00  0.00     0.249 C 
HETATM    7  O           1     -23.103  -6.212  -5.171  0.00  0.00    -0.271 OA
HETATM    8  N           1     -21.169  -6.465  -4.082  0.00  0.00    -0.343 N 
HETATM    9  H           1     -20.181  -6.252  -4.028  0.00  0.00     0.163 HD
BRANCH   8  10
HETATM   10  C           1     -21.786  -7.306  -3.075  0.00  0.00     0.214 C 
BRANCH  10  11
HETATM   11  C           1     -20.806  -8.393  -2.651  0.00  0.00     0.147 C 
HETATM   12  C           1     -19.826  -8.666  -3.784  0.00  0.00     0.042 C 
BRANCH  11  13
HETATM   13  O           1     -20.100  -7.967  -1.517  0.00  0.00    -0.393 OA
HETATM   14  H           1     -19.186  -8.110  -1.693  0.00  0.00     0.210 HD
ENDBRANCH  11  13
ENDBRANCH  10  11
BRANCH  10  15
HETATM   15  C           1     -22.155  -6.467  -1.876  0.00  0.00     0.199 C 
HETATM   16  O           1     -21.834  -5.261  -1.835  0.00  0.00    -0.646 OA
HETATM   17  O           1     -22.780  -6.982  -0.923  0.00  0.00    -0.646 OA
ENDBRANCH  10  15
ENDBRANCH   8  10
ENDBRANCH   1   6
BRANCH   1  18
HETATM   18  C           1     -20.986  -5.909  -7.397  0.00  0.00     0.081 C 
BRANCH  18  19
HETATM   19  C           1     -21.174  -5.062  -8.617  0.00  0.00    -0.056 A 
HETATM   20  C           1     -20.112  -4.866  -9.500  0.00  0.00     0.010 A 
HETATM   21  C           1     -20.287  -4.078 -10.636  0.00  0.00     0.037 A 
HETATM   22  C           1     -21.523  -3.485 -10.891  0.00  0.00     0.065 A 
HETATM   23  C           1     -22.586  -3.681 -10.007  0.00  0.00     0.037 A 
HETATM   24  C           1     -22.411  -4.469  -8.871  0.00  0.00     0.010 A 
BRANCH  22  25
HETATM   25  O           1     -21.694  -2.719 -11.994  0.00  0.00    -0.361 OA
HETATM   26  H           1     -22.641  -2.708 -12.211  0.00  0.00     0.217 HD
ENDBRANCH  22  25
ENDBRANCH  18  19
ENDBRANCH   1  18
TORSDOF 9
ENDMDL
MODEL 5
REMARK VINA RESULT:      -7.0      2.096      7.669
REMARK  9 active torsions:
REMARK  status: ('A' for Active; 'I' for Inactive)
REMARK    1  A    between atoms: N_2  and  C_14 
REMARK    2  A    between atoms: C_4  and  O_5 
REMARK    3  A    between atoms: C_4  and  C_7 
REMARK    4  A    between atoms: C_7  and  C_24 
REMARK    5  A    between atoms: C_7  and  N_17 
REMARK       I    between atoms: C_13  and  N_17 
REMARK    6  A    between atoms: C_13  and  C_14 
REMARK    7  A    between atoms: C_14  and  C_15 
REMARK    8  A    between atoms: C_15  and  C_16 
REMARK    9  A    between atoms: C_25  and  O_26 
ROOT
HETATM    1  C           1     -21.817  -5.750  -6.696  0.00  0.00     0.278 C 
ENDROOT
BRANCH   1   2
HETATM    2  N           1     -23.060  -5.305  -5.984  0.00  0.00    -0.066 N 
HETATM    3  H           1     -23.490  -4.506  -6.502  0.00  0.00     0.275 HD
HETATM    4  H           1     -22.817  -5.001  -5.015  0.00  0.00     0.275 HD
HETATM    5  H           1     -23.739  -6.098  -5.941  0.00  0.00     0.275 HD
ENDBRANCH   1   2
BRANCH   1   6
HETATM    6  C           1     -20.974  -6.584  -5.762  0.00  0.00     0.249 C 
HETATM    7  O           1     -19.873  -6.944  -6.102  0.00  0.00    -0.271 OA
HETATM    8  N           1     -21.458  -6.929  -4.529  0.00  0.00    -0.343 N 
HETATM    9  H           1     -22.380  -6.626  -4.244  0.00  0.00     0.163 HD
BRANCH   8  10
HETATM   10  C           1     -20.648  -7.731  -3.632  0.00  0.00     0.214 C 
BRANCH  10  11
HETATM   11  C           1     -20.979  -7.370  -2.189  0.00  0.00     0.147 C 
HETATM   12  C           1     -22.049  -6.286  -2.168  0.00  0.00     0.042 C 
BRANCH  11  13
HETATM   13  O           1     -21.453  -8.508  -1.521  0.00  0.00    -0.393 OA
HETATM   14  H           1     -22.045  -8.207  -0.853  0.00  0.00     0.210 HD
ENDBRANCH  11  13
ENDBRANCH  10  11
BRANCH  10  15
HETATM   15  C           1     -20.941  -9.194  -3.863  0.00  0.00     0.199 C 
HETATM   16  O           1     -22.092  -9.558  -4.181  0.00  0.00    -0.646 OA
HETATM   17  O           1     -20.029 -10.040  -3.733  0.00  0.00    -0.646 OA
ENDBRANCH  10  15
ENDBRANCH   8  10
ENDBRANCH   1   6
BRANCH   1  18
HETATM   18  C           1     -21.023  -4.529  -7.143  0.00  0.00     0.081 C 
BRANCH  18  19
HETATM   19  C           1     -21.199  -4.331  -8.617  0.00  0.00    -0.056 A 
HETATM   20  C           1     -20.143  -4.600  -9.487  0.00  0.00     0.010 A 
HETATM   21  C           1     -20.306  -4.416 -10.859  0.00  0.00     0.037 A 
HETATM   22  C           1     -21.525  -3.962 -11.362  0.00  0.00     0.065 A 
HETATM   23  C           1     -22.582  -3.692 -10.491  0.00  0.00     0.037 A 
HETATM   24  C           1     -22.418  -3.876  -9.119  0.00  0.00     0.010 A 
BRANCH  22  25
HETATM   25  O           1     -21.684  -3.782 -12.695  0.00  0.00    -0.361 OA
HETATM   26  H           1     -20.922  -3.276 -13.024  0.00  0.00     0.217 HD
ENDBRANCH  22  25
ENDBRANCH  18  19
ENDBRANCH   1  18
TORSDOF 9
ENDMDL
MODEL 6
REMARK VINA RESULT:      -6.7     13.712     16.291
REMARK  9 active torsions:
REMARK  status: ('A' for Active; 'I' for Inactive)
REMARK    1  A    between atoms: N_2  and  C_14 
REMARK    2  A    between atoms: C_4  and  O_5 
REMARK    3  A    between atoms: C_4  and  C_7 
REMARK    4  A    between atoms: C_7  and  C_24 
REMARK    5  A    between atoms: C_7  and  N_17 
REMARK       I    between atoms: C_13  and  N_17 
REMARK    6  A    between atoms: C_13  and  C_14 
REMARK    7  A    between atoms: C_14  and  C_15 
REMARK    8  A    between atoms: C_15  and  C_16 
REMARK    9  A    between atoms: C_25  and  O_26 
ROOT
HETATM    1  C           1     -36.147  -0.962 -10.907  0.00  0.00     0.278 C 
ENDROOT
BRANCH   1   2
HETATM    2  N           1     -36.131  -0.702  -9.429  0.00  0.00    -0.066 N 
HETATM    3  H           1     -35.826  -1.566  -8.927  0.00  0.00     0.275 HD
HETATM    4  H           1     -37.090  -0.435  -9.111  0.00  0.00     0.275 HD
HETATM    5  H           1     -35.466   0.076  -9.220  0.00  0.00     0.275 HD
ENDBRANCH   1   2
BRANCH   1   6
HETATM    6  C           1     -34.962  -1.819 -11.280  0.00  0.00     0.249 C 
HETATM    7  O           1     -33.842  -1.437 -11.037  0.00  0.00    -0.271 OA
HETATM    8  N           1     -35.158  -3.028 -11.890  0.00  0.00    -0.343 N 
HETATM    9  H           1     -36.097  -3.347 -12.092  0.00  0.00     0.163 HD
BRANCH   8  10
HETATM   10  C           1     -34.019  -3.851 -12.249  0.00  0.00     0.214 C 
BRANCH  10  11
HETATM   11  C           1     -34.270  -5.287 -11.807  0.00  0.00     0.147 C 
HETATM   12  C           1     -35.004  -5.287 -10.472  0.00  0.00     0.042 C 
BRANCH  11  13
HETATM   13  O           1     -35.053  -5.941 -12.769  0.00  0.00    -0.393 OA
HETATM   14  H           1     -35.550  -5.277 -13.215  0.00  0.00     0.210 HD
ENDBRANCH  11  13
ENDBRANCH  10  11
BRANCH  10  15
HETATM   15  C           1     -33.824  -3.814 -13.745  0.00  0.00     0.199 C 
HETATM   16  O           1     -32.850  -4.400 -14.263  0.00  0.00    -0.646 OA
HETATM   17  O           1     -34.637  -3.194 -14.466  0.00  0.00    -0.646 OA
ENDBRANCH  10  15
ENDBRANCH   8  10
ENDBRANCH   1   6
BRANCH   1  18
HETATM   18  C           1     -36.073   0.363 -11.655  0.00  0.00     0.081 C 
BRANCH  18  19
HETATM   19  C           1     -36.243   0.118 -13.123  0.00  0.00    -0.056 A 
HETATM   20  C           1     -37.491  -0.239 -13.630  0.00  0.00     0.010 A 
HETATM   21  C           1     -37.650  -0.467 -14.996  0.00  0.00     0.037 A 
HETATM   22  C           1     -36.559  -0.338 -15.856  0.00  0.00     0.065 A 
HETATM   23  C           1     -35.309   0.020 -15.348  0.00  0.00     0.037 A 
HETATM   24  C           1     -35.151   0.247 -13.982  0.00  0.00     0.010 A 
BRANCH  22  25
HETATM   25  O           1     -36.712  -0.559 -17.183  0.00  0.00    -0.361 OA
HETATM   26  H           1     -37.031   0.263 -17.592  0.00  0.00     0.217 HD
ENDBRANCH  22  25
ENDBRANCH  18  19
ENDBRANCH   1  18
TORSDOF 9
ENDMDL
MODEL 7
REMARK VINA RESULT:      -6.5      1.984      6.952
REMARK  9 active torsions:
REMARK  status: ('A' for Active; 'I' for Inactive)
REMARK    1  A    between atoms: N_2  and  C_14 
REMARK    2  A    between atoms: C_4  and  O_5 
REMARK    3  A    between atoms: C_4  and  C_7 
REMARK    4  A    between atoms: C_7  and  C_24 
REMARK    5  A    between atoms: C_7  and  N_17 
REMARK       I    between atoms: C_13  and  N_17 
REMARK    6  A    between atoms: C_13  and  C_14 
REMARK    7  A    between atoms: C_14  and  C_15 
REMARK    8  A    between atoms: C_15  and  C_16 
REMARK    9  A    between atoms: C_25  and  O_26 
ROOT
HETATM    1  C           1     -19.961  -4.397  -7.312  0.00  0.00     0.278 C 
ENDROOT
BRANCH   1   2
HETATM    2  N           1     -18.524  -4.052  -7.566  0.00  0.00    -0.066 N 
HETATM    3  H           1     -18.443  -3.033  -7.781  0.00  0.00     0.275 HD
HETATM    4  H           1     -18.170  -4.608  -8.377  0.00  0.00     0.275 HD
HETATM    5  H           1     -17.957  -4.276  -6.717  0.00  0.00     0.275 HD
ENDBRANCH   1   2
BRANCH   1   6
HETATM    6  C           1     -20.085  -5.080  -5.972  0.00  0.00     0.249 C 
HETATM    7  O           1     -19.899  -4.453  -4.956  0.00  0.00    -0.271 OA
HETATM    8  N           1     -20.409  -6.408  -5.908  0.00  0.00    -0.343 N 
HETATM    9  H           1     -20.565  -6.932  -6.760  0.00  0.00     0.163 HD
BRANCH   8  10
HETATM   10  C           1     -20.528  -7.064  -4.621  0.00  0.00     0.214 C 
BRANCH  10  11
HETATM   11  C           1     -21.961  -6.939  -4.116  0.00  0.00     0.147 C 
HETATM   12  C           1     -21.956  -6.344  -2.714  0.00  0.00     0.042 C 
BRANCH  11  13
HETATM   13  O           1     -22.686  -6.102  -4.976  0.00  0.00    -0.393 OA
HETATM   14  H           1     -22.733  -6.539  -5.809  0.00  0.00     0.210 HD
ENDBRANCH  11  13
ENDBRANCH  10  11
BRANCH  10  15
HETATM   15  C           1     -20.174  -8.524  -4.766  0.00  0.00     0.199 C 
HETATM   16  O           1     -20.615  -9.181  -5.732  0.00  0.00    -0.646 OA
HETATM   17  O           1     -19.440  -9.075  -3.917  0.00  0.00    -0.646 OA
ENDBRANCH  10  15
ENDBRANCH   8  10
ENDBRANCH   1   6
BRANCH   1  18
HETATM   18  C           1     -20.460  -5.331  -8.407  0.00  0.00     0.081 C 
BRANCH  18  19
HETATM   19  C           1     -21.675  -4.741  -9.053  0.00  0.00    -0.056 A 
HETATM   20  C           1     -22.785  -4.408  -8.277  0.00  0.00     0.010 A 
HETATM   21  C           1     -23.916  -3.859  -8.878  0.00  0.00     0.037 A 
HETATM   22  C           1     -23.939  -3.641 -10.256  0.00  0.00     0.065 A 
HETATM   23  C           1     -22.828  -3.975 -11.032  0.00  0.00     0.037 A 
HETATM   24  C           1     -21.696  -4.525 -10.431  0.00  0.00     0.010 A 
BRANCH  22  25
HETATM   25  O           1     -25.038  -3.108 -10.840  0.00  0.00    -0.361 OA
HETATM   26  H           1     -25.032  -2.150 -10.675  0.00  0.00     0.217 HD
ENDBRANCH  22  25
ENDBRANCH  18  19
ENDBRANCH   1  18
TORSDOF 9
ENDMDL
MODEL 8
REMARK VINA RESULT:      -6.5      1.957      2.986
REMARK  9 active torsions:
REMARK  status: ('A' for Active; 'I' for Inactive)
REMARK    1  A    between atoms: N_2  and  C_14 
REMARK    2  A    between atoms: C_4  and  O_5 
REMARK    3  A    between atoms: C_4  and  C_7 
REMARK    4  A    between atoms: C_7  and  C_24 
REMARK    5  A    between atoms: C_7  and  N_17 
REMARK       I    between atoms: C_13  and  N_17 
REMARK    6  A    between atoms: C_13  and  C_14 
REMARK    7  A    between atoms: C_14  and  C_15 
REMARK    8  A    between atoms: C_15  and  C_16 
REMARK    9  A    between atoms: C_25  and  O_26 
ROOT
HETATM    1  C           1     -21.787  -5.911  -5.109  0.00  0.00     0.278 C 
ENDROOT
BRANCH   1   2
HETATM    2  N           1     -23.223  -6.237  -4.821  0.00  0.00    -0.066 N 
HETATM    3  H           1     -23.314  -6.565  -3.833  0.00  0.00     0.275 HD
HETATM    4  H           1     -23.547  -6.990  -5.469  0.00  0.00     0.275 HD
HETATM    5  H           1     -23.808  -5.383  -4.960  0.00  0.00     0.275 HD
ENDBRANCH   1   2
BRANCH   1   6
HETATM    6  C           1     -21.573  -5.858  -6.602  0.00  0.00     0.249 C 
HETATM    7  O           1     -20.945  -6.731  -7.153  0.00  0.00    -0.271 OA
HETATM    8  N           1     -22.091  -4.822  -7.330  0.00  0.00    -0.343 N 
HETATM    9  H           1     -22.618  -4.092  -6.868  0.00  0.00     0.163 HD
BRANCH   8  10
HETATM   10  C           1     -21.885  -4.771  -8.765  0.00  0.00     0.214 C 
BRANCH  10  11
HETATM   11  C           1     -23.057  -4.052  -9.422  0.00  0.00     0.147 C 
HETATM   12  C           1     -23.668  -4.947 -10.491  0.00  0.00     0.042 C 
BRANCH  11  13
HETATM   13  O           1     -24.025  -3.756  -8.452  0.00  0.00    -0.393 OA
HETATM   14  H           1     -23.874  -4.337  -7.727  0.00  0.00     0.210 HD
ENDBRANCH  11  13
ENDBRANCH  10  11
BRANCH  10  15
HETATM   15  C           1     -20.608  -4.024  -9.062  0.00  0.00     0.199 C 
HETATM   16  O           1     -20.292  -3.773 -10.245  0.00  0.00    -0.646 OA
HETATM   17  O           1     -19.866  -3.657  -8.125  0.00  0.00    -0.646 OA
ENDBRANCH  10  15
ENDBRANCH   8  10
ENDBRANCH   1   6
BRANCH   1  18
HETATM   18  C           1     -20.893  -6.986  -4.505  0.00  0.00     0.081 C 
BRANCH  18  19
HETATM   19  C           1     -21.377  -7.325  -3.129  0.00  0.00    -0.056 A 
HETATM   20  C           1     -21.415  -8.655  -2.712  0.00  0.00     0.010 A 
HETATM   21  C           1     -21.866  -8.971  -1.431  0.00  0.00     0.037 A 
HETATM   22  C           1     -22.280  -7.957  -0.567  0.00  0.00     0.065 A 
HETATM   23  C           1     -22.242  -6.626  -0.985  0.00  0.00     0.037 A 
HETATM   24  C           1     -21.791  -6.310  -2.266  0.00  0.00     0.010 A 
BRANCH  22  25
HETATM   25  O           1     -22.719  -8.263   0.677  0.00  0.00    -0.361 OA
HETATM   26  H           1     -22.282  -9.086   0.957  0.00  0.00     0.217 HD
ENDBRANCH  22  25
ENDBRANCH  18  19
ENDBRANCH   1  18
TORSDOF 9
ENDMDL
MODEL 9
REMARK VINA RESULT:      -6.4     13.545     15.157
REMARK  9 active torsions:
REMARK  status: ('A' for Active; 'I' for Inactive)
REMARK    1  A    between atoms: N_2  and  C_14 
REMARK    2  A    between atoms: C_4  and  O_5 
REMARK    3  A    between atoms: C_4  and  C_7 
REMARK    4  A    between atoms: C_7  and  C_24 
REMARK    5  A    between atoms: C_7  and  N_17 
REMARK       I    between atoms: C_13  and  N_17 
REMARK    6  A    between atoms: C_13  and  C_14 
REMARK    7  A    between atoms: C_14  and  C_15 
REMARK    8  A    between atoms: C_15  and  C_16 
REMARK    9  A    between atoms: C_25  and  O_26 
ROOT
HETATM    1  C           1     -35.104  -1.604 -11.481  0.00  0.00     0.278 C 
ENDROOT
BRANCH   1   2
HETATM    2  N           1     -35.954  -2.455 -10.585  0.00  0.00    -0.066 N 
HETATM    3  H           1     -36.884  -1.999 -10.450  0.00  0.00     0.275 HD
HETATM    4  H           1     -35.482  -2.566  -9.659  0.00  0.00     0.275 HD
HETATM    5  H           1     -36.087  -3.395 -11.022  0.00  0.00     0.275 HD
ENDBRANCH   1   2
BRANCH   1   6
HETATM    6  C           1     -35.950  -1.058 -12.606  0.00  0.00     0.249 C 
HETATM    7  O           1     -37.116  -0.807 -12.417  0.00  0.00    -0.271 OA
HETATM    8  N           1     -35.394  -0.847 -13.839  0.00  0.00    -0.343 N 
HETATM    9  H           1     -34.417  -1.057 -13.996  0.00  0.00     0.163 HD
BRANCH   8  10
HETATM   10  C           1     -36.207  -0.323 -14.919  0.00  0.00     0.214 C 
BRANCH  10  11
HETATM   11  C           1     -36.006   1.184 -15.022  0.00  0.00     0.147 C 
HETATM   12  C           1     -34.727   1.577 -14.295  0.00  0.00     0.042 C 
BRANCH  11  13
HETATM   13  O           1     -35.906   1.550 -16.372  0.00  0.00    -0.393 OA
HETATM   14  H           1     -35.297   0.954 -16.773  0.00  0.00     0.210 HD
ENDBRANCH  11  13
ENDBRANCH  10  11
BRANCH  10  15
HETATM   15  C           1     -35.796  -0.973 -16.218  0.00  0.00     0.199 C 
HETATM   16  O           1     -34.660  -1.481 -16.330  0.00  0.00    -0.646 OA
HETATM   17  O           1     -36.593  -1.002 -17.181  0.00  0.00    -0.646 OA
ENDBRANCH  10  15
ENDBRANCH   8  10
ENDBRANCH   1   6
BRANCH   1  18
HETATM   18  C           1     -33.973  -2.445 -12.057  0.00  0.00     0.081 C 
BRANCH  18  19
HETATM   19  C           1     -34.217  -3.890 -11.749  0.00  0.00    -0.056 A 
HETATM   20  C           1     -34.827  -4.711 -12.697  0.00  0.00     0.010 A 
HETATM   21  C           1     -35.055  -6.057 -12.410  0.00  0.00     0.037 A 
HETATM   22  C           1     -34.673  -6.581 -11.176  0.00  0.00     0.065 A 
HETATM   23  C           1     -34.063  -5.759 -10.227  0.00  0.00     0.037 A 
HETATM   24  C           1     -33.835  -4.414 -10.514  0.00  0.00     0.010 A 
BRANCH  22  25
HETATM   25  O           1     -34.895  -7.888 -10.897  0.00  0.00    -0.361 OA
HETATM   26  H           1     -34.941  -7.986  -9.931  0.00  0.00     0.217 HD
ENDBRANCH  22  25
ENDBRANCH  18  19
ENDBRANCH   1  18
TORSDOF 9
ENDMDL
