MODEL 1
REMARK VINA RESULT:      -8.8      0.000      0.000
REMARK  9 active torsions:
REMARK  status: ('A' for Active; 'I' for Inactive)
REMARK    1  A    between atoms: C_1  and  C_25 
REMARK    2  A    between atoms: C_5  and  C_11 
REMARK    3  A    between atoms: N_6  and  C_25 
REMARK       I    between atoms: N_6  and  C_23 
REMARK    4  A    between atoms: N_10  and  C_12 
REMARK    5  A    between atoms: C_11  and  C_12 
REMARK    6  A    between atoms: C_12  and  C_23 
REMARK    7  A    between atoms: C_25  and  C_26 
REMARK    8  A    between atoms: C_26  and  C_29 
REMARK    9  A    between atoms: C_32  and  O_33 
ROOT
HETATM    1  H           1     -21.952  -6.891  -5.632  0.00  0.00     0.163 HD
HETATM    2  N           1     -21.041  -6.859  -6.074  0.00  0.00    -0.344 N 
HETATM    3  O           1     -19.045  -7.817  -6.362  0.00  0.00    -0.271 OA
HETATM    4  C           1     -20.132  -7.855  -5.836  0.00  0.00     0.249 C 
ENDROOT
BRANCH   4   5
HETATM    5  C           1     -20.488  -8.999  -4.919  0.00  0.00     0.278 C 
BRANCH   5   6
HETATM    6  N           1     -20.545 -10.272  -5.708  0.00  0.00    -0.066 N 
HETATM    7  H           1     -20.759 -10.054  -6.708  0.00  0.00     0.275 HD
HETATM    8  H           1     -19.622 -10.759  -5.650  0.00  0.00     0.275 HD
HETATM    9  H           1     -21.291 -10.892  -5.320  0.00  0.00     0.275 HD
ENDBRANCH   5   6
BRANCH   5  10
HETATM   10  C           1     -19.431  -9.124  -3.829  0.00  0.00     0.083 C 
BRANCH  10  11
HETATM   11  C           1     -20.090  -9.483  -2.534  0.00  0.00    -0.028 A 
HETATM   12  C           1     -19.952 -10.673  -1.855  0.00  0.00     0.096 A 
HETATM   13  N           1     -20.716 -10.598  -0.721  0.00  0.00    -0.365 N 
HETATM   14  C           1     -21.350  -9.378  -0.652  0.00  0.00     0.042 A 
HETATM   15  H           1     -20.806 -11.363  -0.007  0.00  0.00     0.165 HD
HETATM   16  C           1     -20.971  -8.656  -1.784  0.00  0.00    -0.002 A 
HETATM   17  C           1     -22.221  -8.864   0.316  0.00  0.00     0.030 A 
HETATM   18  C           1     -21.484  -7.356  -1.962  0.00  0.00     0.014 A 
HETATM   19  C           1     -22.356  -6.827  -1.004  0.00  0.00     0.001 A 
HETATM   20  C           1     -22.717  -7.572   0.118  0.00  0.00     0.002 A 
ENDBRANCH  10  11
ENDBRANCH   5  10
ENDBRANCH   4   5
BRANCH   2  21
HETATM   21  C           1     -20.700  -5.760  -6.955  0.00  0.00     0.189 C 
BRANCH  21  22
HETATM   22  C           1     -19.783  -4.804  -6.234  0.00  0.00     0.197 C 
HETATM   23  O           1     -20.072  -4.406  -5.084  0.00  0.00    -0.646 OA
HETATM   24  O           1     -18.734  -4.408  -6.786  0.00  0.00    -0.646 OA
ENDBRANCH  21  22
BRANCH  21  25
HETATM   25  C           1     -21.970  -5.028  -7.370  0.00  0.00     0.074 C 
BRANCH  25  26
HETATM   26  C           1     -21.905  -4.702  -8.830  0.00  0.00    -0.056 A 
HETATM   27  C           1     -23.081  -4.524  -9.557  0.00  0.00     0.010 A 
HETATM   28  C           1     -23.021  -4.221 -10.917  0.00  0.00     0.037 A 
HETATM   29  C           1     -21.784  -4.095 -11.550  0.00  0.00     0.065 A 
HETATM   30  C           1     -20.607  -4.273 -10.822  0.00  0.00     0.037 A 
HETATM   31  C           1     -20.668  -4.577  -9.462  0.00  0.00     0.010 A 
BRANCH  29  32
HETATM   32  O           1     -21.725  -3.801 -12.871  0.00  0.00    -0.361 OA
HETATM   33  H           1     -20.800  -3.599 -13.093  0.00  0.00     0.217 HD
ENDBRANCH  29  32
ENDBRANCH  25  26
ENDBRANCH  21  25
ENDBRANCH   2  21
TORSDOF 9
ENDMDL
MODEL 2
REMARK VINA RESULT:      -8.8      2.376      8.648
REMARK  9 active torsions:
REMARK  status: ('A' for Active; 'I' for Inactive)
REMARK    1  A    between atoms: C_1  and  C_25 
REMARK    2  A    between atoms: C_5  and  C_11 
REMARK    3  A    between atoms: N_6  and  C_25 
REMARK       I    between atoms: N_6  and  C_23 
REMARK    4  A    between atoms: N_10  and  C_12 
REMARK    5  A    between atoms: C_11  and  C_12 
REMARK    6  A    between atoms: C_12  and  C_23 
REMARK    7  A    between atoms: C_25  and  C_26 
REMARK    8  A    between atoms: C_26  and  C_29 
REMARK    9  A    between atoms: C_32  and  O_33 
ROOT
HETATM    1  H           1     -21.582  -8.391  -3.576  0.00  0.00     0.163 HD
HETATM    2  N           1     -20.786  -8.499  -4.192  0.00  0.00    -0.344 N 
HETATM    3  O           1     -19.671  -7.777  -5.986  0.00  0.00    -0.271 OA
HETATM    4  C           1     -20.620  -7.648  -5.251  0.00  0.00     0.249 C 
ENDROOT
BRANCH   4   5
HETATM    5  C           1     -21.624  -6.548  -5.500  0.00  0.00     0.278 C 
BRANCH   5   6
HETATM    6  N           1     -22.187  -6.081  -4.191  0.00  0.00    -0.066 N 
HETATM    7  H           1     -22.171  -5.036  -4.158  0.00  0.00     0.275 HD
HETATM    8  H           1     -23.172  -6.416  -4.097  0.00  0.00     0.275 HD
HETATM    9  H           1     -21.611  -6.462  -3.407  0.00  0.00     0.275 HD
ENDBRANCH   5   6
BRANCH   5  10
HETATM   10  C           1     -20.937  -5.383  -6.201  0.00  0.00     0.083 C 
BRANCH  10  11
HETATM   11  C           1     -21.847  -4.827  -7.252  0.00  0.00    -0.028 A 
HETATM   12  C           1     -23.176  -4.506  -7.088  0.00  0.00     0.096 A 
HETATM   13  N           1     -23.642  -4.030  -8.285  0.00  0.00    -0.365 N 
HETATM   14  C           1     -22.636  -4.037  -9.224  0.00  0.00     0.042 A 
HETATM   15  H           1     -24.625  -3.708  -8.460  0.00  0.00     0.165 HD
HETATM   16  C           1     -21.493  -4.535  -8.598  0.00  0.00    -0.002 A 
HETATM   17  C           1     -22.650  -3.644 -10.568  0.00  0.00     0.030 A 
HETATM   18  C           1     -20.304  -4.647  -9.345  0.00  0.00     0.014 A 
HETATM   19  C           1     -20.302  -4.259 -10.690  0.00  0.00     0.001 A 
HETATM   20  C           1     -21.459  -3.765 -11.290  0.00  0.00     0.002 A 
ENDBRANCH  10  11
ENDBRANCH   5  10
ENDBRANCH   4   5
BRANCH   2  21
HETATM   21  C           1     -19.823  -9.555  -3.952  0.00  0.00     0.189 C 
BRANCH  21  22
HETATM   22  C           1     -20.448 -10.889  -4.276  0.00  0.00     0.197 C 
HETATM   23  O           1     -21.656 -10.953  -4.591  0.00  0.00    -0.646 OA
HETATM   24  O           1     -19.758 -11.931  -4.229  0.00  0.00    -0.646 OA
ENDBRANCH  21  22
BRANCH  21  25
HETATM   25  C           1     -19.400  -9.536  -2.489  0.00  0.00     0.074 C 
BRANCH  25  26
HETATM   26  C           1     -20.568  -9.148  -1.636  0.00  0.00    -0.056 A 
HETATM   27  C           1     -21.401 -10.133  -1.107  0.00  0.00     0.010 A 
HETATM   28  C           1     -22.489  -9.773  -0.312  0.00  0.00     0.037 A 
HETATM   29  C           1     -22.743  -8.427  -0.047  0.00  0.00     0.065 A 
HETATM   30  C           1     -21.909  -7.442  -0.576  0.00  0.00     0.037 A 
HETATM   31  C           1     -20.822  -7.803  -1.371  0.00  0.00     0.010 A 
BRANCH  29  32
HETATM   32  O           1     -23.800  -8.077   0.725  0.00  0.00    -0.361 OA
HETATM   33  H           1     -24.390  -7.517   0.191  0.00  0.00     0.217 HD
ENDBRANCH  29  32
ENDBRANCH  25  26
ENDBRANCH  21  25
ENDBRANCH   2  21
TORSDOF 9
ENDMDL
MODEL 3
REMARK VINA RESULT:      -8.6      1.442      2.394
REMARK  9 active torsions:
REMARK  status: ('A' for Active; 'I' for Inactive)
REMARK    1  A    between atoms: C_1  and  C_25 
REMARK    2  A    between atoms: C_5  and  C_11 
REMARK    3  A    between atoms: N_6  and  C_25 
REMARK       I    between atoms: N_6  and  C_23 
REMARK    4  A    between atoms: N_10  and  C_12 
REMARK    5  A    between atoms: C_11  and  C_12 
REMARK    6  A    between atoms: C_12  and  C_23 
REMARK    7  A    between atoms: C_25  and  C_26 
REMARK    8  A    between atoms: C_26  and  C_29 
REMARK    9  A    between atoms: C_32  and  O_33 
ROOT
HETATM    1  H           1     -21.874  -4.946  -5.127  0.00  0.00     0.163 HD
HETATM    2  N           1     -21.480  -5.580  -5.811  0.00  0.00    -0.344 N 
HETATM    3  O           1     -20.935  -7.676  -6.354  0.00  0.00    -0.271 OA
HETATM    4  C           1     -21.406  -6.919  -5.539  0.00  0.00     0.249 C 
ENDROOT
BRANCH   4   5
HETATM    5  C           1     -21.913  -7.451  -4.221  0.00  0.00     0.278 C 
BRANCH   5   6
HETATM    6  N           1     -21.935  -8.950  -4.262  0.00  0.00    -0.066 N 
HETATM    7  H           1     -21.378  -9.329  -3.463  0.00  0.00     0.275 HD
HETATM    8  H           1     -22.922  -9.285  -4.187  0.00  0.00     0.275 HD
HETATM    9  H           1     -21.521  -9.280  -5.163  0.00  0.00     0.275 HD
ENDBRANCH   5   6
BRANCH   5  10
HETATM   10  C           1     -20.992  -6.989  -3.098  0.00  0.00     0.083 C 
BRANCH  10  11
HETATM   11  C           1     -21.428  -7.610  -1.808  0.00  0.00    -0.028 A 
HETATM   12  C           1     -22.374  -7.108  -0.943  0.00  0.00     0.096 A 
HETATM   13  N           1     -22.476  -7.974   0.114  0.00  0.00    -0.365 N 
HETATM   14  C           1     -21.611  -9.031  -0.051  0.00  0.00     0.042 A 
HETATM   15  H           1     -23.122  -7.848   0.932  0.00  0.00     0.165 HD
HETATM   16  C           1     -20.937  -8.826  -1.256  0.00  0.00    -0.002 A 
HETATM   17  C           1     -21.375 -10.144   0.766  0.00  0.00     0.030 A 
HETATM   18  C           1     -19.982  -9.775  -1.669  0.00  0.00     0.014 A 
HETATM   19  C           1     -19.734 -10.892  -0.863  0.00  0.00     0.001 A 
HETATM   20  C           1     -20.422 -11.071   0.336  0.00  0.00     0.002 A 
ENDBRANCH  10  11
ENDBRANCH   5  10
ENDBRANCH   4   5
BRANCH   2  21
HETATM   21  C           1     -20.993  -5.069  -7.077  0.00  0.00     0.189 C 
BRANCH  21  22
HETATM   22  C           1     -19.578  -4.575  -6.909  0.00  0.00     0.197 C 
HETATM   23  O           1     -19.105  -4.409  -5.764  0.00  0.00    -0.646 OA
HETATM   24  O           1     -18.877  -4.331  -7.916  0.00  0.00    -0.646 OA
ENDBRANCH  21  22
BRANCH  21  25
HETATM   25  C           1     -21.880  -3.918  -7.536  0.00  0.00     0.074 C 
BRANCH  25  26
HETATM   26  C           1     -22.365  -4.184  -8.927  0.00  0.00    -0.056 A 
HETATM   27  C           1     -21.471  -4.140  -9.996  0.00  0.00     0.010 A 
HETATM   28  C           1     -21.922  -4.387 -11.293  0.00  0.00     0.037 A 
HETATM   29  C           1     -23.268  -4.679 -11.519  0.00  0.00     0.065 A 
HETATM   30  C           1     -24.161  -4.723 -10.449  0.00  0.00     0.037 A 
HETATM   31  C           1     -23.710  -4.475  -9.153  0.00  0.00     0.010 A 
BRANCH  29  32
HETATM   32  O           1     -23.707  -4.919 -12.778  0.00  0.00    -0.361 OA
HETATM   33  H           1     -23.104  -5.563 -13.189  0.00  0.00     0.217 HD
ENDBRANCH  29  32
ENDBRANCH  25  26
ENDBRANCH  21  25
ENDBRANCH   2  21
TORSDOF 9
ENDMDL
MODEL 4
REMARK VINA RESULT:      -8.5      2.958      8.538
REMARK  9 active torsions:
REMARK  status: ('A' for Active; 'I' for Inactive)
REMARK    1  A    between atoms: C_1  and  C_25 
REMARK    2  A    between atoms: C_5  and  C_11 
REMARK    3  A    between atoms: N_6  and  C_25 
REMARK       I    between atoms: N_6  and  C_23 
REMARK    4  A    between atoms: N_10  and  C_12 
REMARK    5  A    between atoms: C_11  and  C_12 
REMARK    6  A    between atoms: C_12  and  C_23 
REMARK    7  A    between atoms: C_25  and  C_26 
REMARK    8  A    between atoms: C_26  and  C_29 
REMARK    9  A    between atoms: C_32  and  O_33 
ROOT
HETATM    1  H           1     -20.921  -8.059  -3.190  0.00  0.00     0.163 HD
HETATM    2  N           1     -20.367  -8.329  -3.993  0.00  0.00    -0.344 N 
HETATM    3  O           1     -19.752  -7.902  -6.097  0.00  0.00    -0.271 OA
HETATM    4  C           1     -20.412  -7.580  -5.138  0.00  0.00     0.249 C 
ENDROOT
BRANCH   4   5
HETATM    5  C           1     -21.285  -6.350  -5.202  0.00  0.00     0.278 C 
BRANCH   5   6
HETATM    6  N           1     -21.458  -5.789  -3.822  0.00  0.00    -0.066 N 
HETATM    7  H           1     -20.682  -6.126  -3.209  0.00  0.00     0.275 HD
HETATM    8  H           1     -21.436  -4.745  -3.867  0.00  0.00     0.275 HD
HETATM    9  H           1     -22.373  -6.103  -3.429  0.00  0.00     0.275 HD
ENDBRANCH   5   6
BRANCH   5  10
HETATM   10  C           1     -20.628  -5.306  -6.096  0.00  0.00     0.083 C 
BRANCH  10  11
HETATM   11  C           1     -21.616  -4.831  -7.115  0.00  0.00    -0.028 A 
HETATM   12  C           1     -22.945  -4.554  -6.891  0.00  0.00     0.096 A 
HETATM   13  N           1     -23.495  -4.148  -8.078  0.00  0.00    -0.365 N 
HETATM   14  C           1     -22.542  -4.156  -9.071  0.00  0.00     0.042 A 
HETATM   15  H           1     -24.498  -3.871  -8.211  0.00  0.00     0.165 HD
HETATM   16  C           1     -21.348  -4.583  -8.490  0.00  0.00    -0.002 A 
HETATM   17  C           1     -22.645  -3.821 -10.427  0.00  0.00     0.030 A 
HETATM   18  C           1     -20.198  -4.681  -9.298  0.00  0.00     0.014 A 
HETATM   19  C           1     -20.284  -4.351 -10.655  0.00  0.00     0.001 A 
HETATM   20  C           1     -21.491  -3.927 -11.209  0.00  0.00     0.002 A 
ENDBRANCH  10  11
ENDBRANCH   5  10
ENDBRANCH   4   5
BRANCH   2  21
HETATM   21  C           1     -19.529  -9.510  -3.931  0.00  0.00     0.189 C 
BRANCH  21  22
HETATM   22  C           1     -20.259 -10.608  -3.200  0.00  0.00     0.197 C 
HETATM   23  O           1     -20.227 -11.779  -3.636  0.00  0.00    -0.646 OA
HETATM   24  O           1     -20.898 -10.347  -2.158  0.00  0.00    -0.646 OA
ENDBRANCH  21  22
BRANCH  21  25
HETATM   25  C           1     -18.239  -9.179  -3.191  0.00  0.00     0.074 C 
BRANCH  25  26
HETATM   26  C           1     -17.100  -9.926  -3.814  0.00  0.00    -0.056 A 
HETATM   27  C           1     -16.248 -10.688  -3.015  0.00  0.00     0.010 A 
HETATM   28  C           1     -15.186 -11.384  -3.594  0.00  0.00     0.037 A 
HETATM   29  C           1     -14.977 -11.315  -4.972  0.00  0.00     0.065 A 
HETATM   30  C           1     -15.829 -10.553  -5.770  0.00  0.00     0.037 A 
HETATM   31  C           1     -16.891  -9.857  -5.190  0.00  0.00     0.010 A 
BRANCH  29  32
HETATM   32  O           1     -13.946 -11.990  -5.535  0.00  0.00    -0.361 OA
HETATM   33  H           1     -13.718 -12.733  -4.949  0.00  0.00     0.217 HD
ENDBRANCH  29  32
ENDBRANCH  25  26
ENDBRANCH  21  25
ENDBRANCH   2  21
TORSDOF 9
ENDMDL
MODEL 5
REMARK VINA RESULT:      -8.1      1.822      2.331
REMARK  9 active torsions:
REMARK  status: ('A' for Active; 'I' for Inactive)
REMARK    1  A    between atoms: C_1  and  C_25 
REMARK    2  A    between atoms: C_5  and  C_11 
REMARK    3  A    between atoms: N_6  and  C_25 
REMARK       I    between atoms: N_6  and  C_23 
REMARK    4  A    between atoms: N_10  and  C_12 
REMARK    5  A    between atoms: C_11  and  C_12 
REMARK    6  A    between atoms: C_12  and  C_23 
REMARK    7  A    between atoms: C_25  and  C_26 
REMARK    8  A    between atoms: C_26  and  C_29 
REMARK    9  A    between atoms: C_32  and  O_33 
ROOT
HETATM    1  H           1     -22.749  -8.290  -4.495  0.00  0.00     0.163 HD
HETATM    2  N           1     -21.838  -7.980  -4.811  0.00  0.00    -0.344 N 
HETATM    3  O           1     -19.803  -8.531  -5.546  0.00  0.00    -0.271 OA
HETATM    4  C           1     -20.890  -8.900  -5.170  0.00  0.00     0.249 C 
ENDROOT
BRANCH   4   5
HETATM    5  C           1     -21.203 -10.375  -5.097  0.00  0.00     0.278 C 
BRANCH   5   6
HETATM    6  N           1     -20.538 -11.083  -6.239  0.00  0.00    -0.066 N 
HETATM    7  H           1     -21.232 -11.701  -6.718  0.00  0.00     0.275 HD
HETATM    8  H           1     -20.173 -10.380  -6.919  0.00  0.00     0.275 HD
HETATM    9  H           1     -19.748 -11.663  -5.877  0.00  0.00     0.275 HD
ENDBRANCH   5   6
BRANCH   5  10
HETATM   10  C           1     -20.686 -10.939  -3.780  0.00  0.00     0.083 C 
BRANCH  10  11
HETATM   11  C           1     -21.755 -10.832  -2.737  0.00  0.00    -0.028 A 
HETATM   12  C           1     -22.865 -11.639  -2.627  0.00  0.00     0.096 A 
HETATM   13  N           1     -23.588 -11.211  -1.545  0.00  0.00    -0.365 N 
HETATM   14  C           1     -22.964 -10.137  -0.951  0.00  0.00     0.042 A 
HETATM   15  H           1     -24.488 -11.639  -1.217  0.00  0.00     0.165 HD
HETATM   16  C           1     -21.806  -9.878  -1.684  0.00  0.00    -0.002 A 
HETATM   17  C           1     -23.334  -9.382   0.170  0.00  0.00     0.030 A 
HETATM   18  C           1     -20.973  -8.816  -1.282  0.00  0.00     0.014 A 
HETATM   19  C           1     -21.328  -8.051  -0.165  0.00  0.00     0.001 A 
HETATM   20  C           1     -22.492  -8.333   0.548  0.00  0.00     0.002 A 
ENDBRANCH  10  11
ENDBRANCH   5  10
ENDBRANCH   4   5
BRANCH   2  21
HETATM   21  C           1     -21.538  -6.564  -4.881  0.00  0.00     0.189 C 
BRANCH  21  22
HETATM   22  C           1     -21.513  -5.985  -3.489  0.00  0.00     0.197 C 
HETATM   23  O           1     -22.533  -6.046  -2.768  0.00  0.00    -0.646 OA
HETATM   24  O           1     -20.473  -5.445  -3.055  0.00  0.00    -0.646 OA
ENDBRANCH  21  22
BRANCH  21  25
HETATM   25  C           1     -22.608  -5.858  -5.704  0.00  0.00     0.074 C 
BRANCH  25  26
HETATM   26  C           1     -21.988  -5.273  -6.935  0.00  0.00    -0.056 A 
HETATM   27  C           1     -22.727  -4.412  -7.745  0.00  0.00     0.010 A 
HETATM   28  C           1     -22.149  -3.868  -8.893  0.00  0.00     0.037 A 
HETATM   29  C           1     -20.833  -4.186  -9.230  0.00  0.00     0.065 A 
HETATM   30  C           1     -20.095  -5.047  -8.418  0.00  0.00     0.037 A 
HETATM   31  C           1     -20.672  -5.592  -7.271  0.00  0.00     0.010 A 
BRANCH  29  32
HETATM   32  O           1     -20.273  -3.657 -10.344  0.00  0.00    -0.361 OA
HETATM   33  H           1     -20.766  -3.988 -11.114  0.00  0.00     0.217 HD
ENDBRANCH  29  32
ENDBRANCH  25  26
ENDBRANCH  21  25
ENDBRANCH   2  21
TORSDOF 9
ENDMDL
MODEL 6
REMARK VINA RESULT:      -8.0      2.721      8.592
REMARK  9 active torsions:
REMARK  status: ('A' for Active; 'I' for Inactive)
REMARK    1  A    between atoms: C_1  and  C_25 
REMARK    2  A    between atoms: C_5  and  C_11 
REMARK    3  A    between atoms: N_6  and  C_25 
REMARK       I    between atoms: N_6  and  C_23 
REMARK    4  A    between atoms: N_10  and  C_12 
REMARK    5  A    between atoms: C_11  and  C_12 
REMARK    6  A    between atoms: C_12  and  C_23 
REMARK    7  A    between atoms: C_25  and  C_26 
REMARK    8  A    between atoms: C_26  and  C_29 
REMARK    9  A    between atoms: C_32  and  O_33 
ROOT
HETATM    1  H           1     -19.883  -6.636  -3.296  0.00  0.00     0.163 HD
HETATM    2  N           1     -20.814  -6.942  -3.550  0.00  0.00    -0.344 N 
HETATM    3  O           1     -22.387  -7.108  -5.125  0.00  0.00    -0.271 OA
HETATM    4  C           1     -21.276  -6.745  -4.823  0.00  0.00     0.249 C 
ENDROOT
BRANCH   4   5
HETATM    5  C           1     -20.396  -6.074  -5.850  0.00  0.00     0.278 C 
BRANCH   5   6
HETATM    6  N           1     -20.588  -6.736  -7.181  0.00  0.00    -0.066 N 
HETATM    7  H           1     -21.246  -6.169  -7.761  0.00  0.00     0.275 HD
HETATM    8  H           1     -19.667  -6.808  -7.670  0.00  0.00     0.275 HD
HETATM    9  H           1     -20.984  -7.693  -7.041  0.00  0.00     0.275 HD
ENDBRANCH   5   6
BRANCH   5  10
HETATM   10  C           1     -20.772  -4.601  -5.957  0.00  0.00     0.083 C 
BRANCH  10  11
HETATM   11  C           1     -21.754  -4.417  -7.071  0.00  0.00    -0.028 A 
HETATM   12  C           1     -23.126  -4.431  -6.956  0.00  0.00     0.096 A 
HETATM   13  N           1     -23.653  -4.227  -8.203  0.00  0.00    -0.365 N 
HETATM   14  C           1     -22.644  -4.080  -9.128  0.00  0.00     0.042 A 
HETATM   15  H           1     -24.679  -4.188  -8.422  0.00  0.00     0.165 HD
HETATM   16  C           1     -21.437  -4.196  -8.440  0.00  0.00    -0.002 A 
HETATM   17  C           1     -22.709  -3.856 -10.509  0.00  0.00     0.030 A 
HETATM   18  C           1     -20.232  -4.082  -9.161  0.00  0.00     0.014 A 
HETATM   19  C           1     -20.278  -3.858 -10.542  0.00  0.00     0.001 A 
HETATM   20  C           1     -21.500  -3.747 -11.203  0.00  0.00     0.002 A 
ENDBRANCH  10  11
ENDBRANCH   5  10
ENDBRANCH   4   5
BRANCH   2  21
HETATM   21  C           1     -21.658  -7.586  -2.563  0.00  0.00     0.189 C 
BRANCH  21  22
HETATM   22  C           1     -22.191  -6.551  -1.604  0.00  0.00     0.197 C 
HETATM   23  O           1     -22.801  -6.910  -0.573  0.00  0.00    -0.646 OA
HETATM   24  O           1     -22.023  -5.335  -1.839  0.00  0.00    -0.646 OA
ENDBRANCH  21  22
BRANCH  21  25
HETATM   25  C           1     -20.845  -8.619  -1.794  0.00  0.00     0.074 C 
BRANCH  25  26
HETATM   26  C           1     -21.473  -9.969  -1.951  0.00  0.00    -0.056 A 
HETATM   27  C           1     -22.660 -10.267  -1.283  0.00  0.00     0.010 A 
HETATM   28  C           1     -23.245 -11.525  -1.429  0.00  0.00     0.037 A 
HETATM   29  C           1     -22.643 -12.484  -2.243  0.00  0.00     0.065 A 
HETATM   30  C           1     -21.456 -12.185  -2.912  0.00  0.00     0.037 A 
HETATM   31  C           1     -20.871 -10.927  -2.765  0.00  0.00     0.010 A 
BRANCH  29  32
HETATM   32  O           1     -23.211 -13.706  -2.385  0.00  0.00    -0.361 OA
HETATM   33  H           1     -22.921 -14.260  -1.640  0.00  0.00     0.217 HD
ENDBRANCH  29  32
ENDBRANCH  25  26
ENDBRANCH  21  25
ENDBRANCH   2  21
TORSDOF 9
ENDMDL
MODEL 7
REMARK VINA RESULT:      -7.9      4.131      5.756
REMARK  9 active torsions:
REMARK  status: ('A' for Active; 'I' for Inactive)
REMARK    1  A    between atoms: C_1  and  C_25 
REMARK    2  A    between atoms: C_5  and  C_11 
REMARK    3  A    between atoms: N_6  and  C_25 
REMARK       I    between atoms: N_6  and  C_23 
REMARK    4  A    between atoms: N_10  and  C_12 
REMARK    5  A    between atoms: C_11  and  C_12 
REMARK    6  A    between atoms: C_12  and  C_23 
REMARK    7  A    between atoms: C_25  and  C_26 
REMARK    8  A    between atoms: C_26  and  C_29 
REMARK    9  A    between atoms: C_32  and  O_33 
ROOT
HETATM    1  H           1     -18.628 -11.786  -1.530  0.00  0.00     0.163 HD
HETATM    2  N           1     -19.181 -11.470  -2.318  0.00  0.00    -0.344 N 
HETATM    3  O           1     -20.968 -11.780  -3.620  0.00  0.00    -0.271 OA
HETATM    4  C           1     -20.309 -12.155  -2.680  0.00  0.00     0.249 C 
ENDROOT
BRANCH   4   5
HETATM    5  C           1     -20.730 -13.380  -1.904  0.00  0.00     0.278 C 
BRANCH   5   6
HETATM    6  N           1     -19.619 -14.387  -1.921  0.00  0.00    -0.066 N 
HETATM    7  H           1     -20.021 -15.350  -1.860  0.00  0.00     0.275 HD
HETATM    8  H           1     -19.077 -14.293  -2.809  0.00  0.00     0.275 HD
HETATM    9  H           1     -18.986 -14.223  -1.106  0.00  0.00     0.275 HD
ENDBRANCH   5   6
BRANCH   5  10
HETATM   10  C           1     -21.038 -12.988  -0.464  0.00  0.00     0.083 C 
BRANCH  10  11
HETATM   11  C           1     -22.091 -11.925  -0.451  0.00  0.00    -0.028 A 
HETATM   12  C           1     -23.361 -12.032  -0.971  0.00  0.00     0.096 A 
HETATM   13  N           1     -24.004 -10.843  -0.754  0.00  0.00    -0.365 N 
HETATM   14  C           1     -23.171  -9.963  -0.102  0.00  0.00     0.042 A 
HETATM   15  H           1     -24.991 -10.633  -1.045  0.00  0.00     0.165 HD
HETATM   16  C           1     -21.958 -10.620   0.101  0.00  0.00    -0.002 A 
HETATM   17  C           1     -23.397  -8.646   0.320  0.00  0.00     0.030 A 
HETATM   18  C           1     -20.916  -9.936   0.758  0.00  0.00     0.014 A 
HETATM   19  C           1     -21.125  -8.620   1.185  0.00  0.00     0.001 A 
HETATM   20  C           1     -22.349  -7.987   0.969  0.00  0.00     0.002 A 
ENDBRANCH  10  11
ENDBRANCH   5  10
ENDBRANCH   4   5
BRANCH   2  21
HETATM   21  C           1     -18.777 -10.294  -3.062  0.00  0.00     0.189 C 
BRANCH  21  22
HETATM   22  C           1     -17.285 -10.329  -3.287  0.00  0.00     0.197 C 
HETATM   23  O           1     -16.563  -9.415  -2.831  0.00  0.00    -0.646 OA
HETATM   24  O           1     -16.772 -11.270  -3.928  0.00  0.00    -0.646 OA
ENDBRANCH  21  22
BRANCH  21  25
HETATM   25  C           1     -19.141  -9.043  -2.273  0.00  0.00     0.074 C 
BRANCH  25  26
HETATM   26  C           1     -20.155  -8.248  -3.036  0.00  0.00    -0.056 A 
HETATM   27  C           1     -20.277  -8.415  -4.415  0.00  0.00     0.010 A 
HETATM   28  C           1     -21.222  -7.674  -5.126  0.00  0.00     0.037 A 
HETATM   29  C           1     -22.043  -6.767  -4.457  0.00  0.00     0.065 A 
HETATM   30  C           1     -21.921  -6.600  -3.077  0.00  0.00     0.037 A 
HETATM   31  C           1     -20.976  -7.341  -2.367  0.00  0.00     0.010 A 
BRANCH  29  32
HETATM   32  O           1     -22.961  -6.047  -5.147  0.00  0.00    -0.361 OA
HETATM   33  H           1     -23.826  -6.176  -4.722  0.00  0.00     0.217 HD
ENDBRANCH  29  32
ENDBRANCH  25  26
ENDBRANCH  21  25
ENDBRANCH   2  21
TORSDOF 9
ENDMDL
MODEL 8
REMARK VINA RESULT:      -7.9      2.631      8.045
REMARK  9 active torsions:
REMARK  status: ('A' for Active; 'I' for Inactive)
REMARK    1  A    between atoms: C_1  and  C_25 
REMARK    2  A    between atoms: C_5  and  C_11 
REMARK    3  A    between atoms: N_6  and  C_25 
REMARK       I    between atoms: N_6  and  C_23 
REMARK    4  A    between atoms: N_10  and  C_12 
REMARK    5  A    between atoms: C_11  and  C_12 
REMARK    6  A    between atoms: C_12  and  C_23 
REMARK    7  A    between atoms: C_25  and  C_26 
REMARK    8  A    between atoms: C_26  and  C_29 
REMARK    9  A    between atoms: C_32  and  O_33 
ROOT
HETATM    1  H           1     -19.655  -6.177  -3.485  0.00  0.00     0.163 HD
HETATM    2  N           1     -20.400  -6.771  -3.825  0.00  0.00    -0.344 N 
HETATM    3  O           1     -21.610  -7.482  -5.562  0.00  0.00    -0.271 OA
HETATM    4  C           1     -20.720  -6.774  -5.156  0.00  0.00     0.249 C 
ENDROOT
BRANCH   4   5
HETATM    5  C           1     -19.960  -5.891  -6.116  0.00  0.00     0.278 C 
BRANCH   5   6
HETATM    6  N           1     -20.072  -6.450  -7.503  0.00  0.00    -0.066 N 
HETATM    7  H           1     -19.469  -7.300  -7.587  0.00  0.00     0.275 HD
HETATM    8  H           1     -21.066  -6.710  -7.694  0.00  0.00     0.275 HD
HETATM    9  H           1     -19.759  -5.733  -8.195  0.00  0.00     0.275 HD
ENDBRANCH   5   6
BRANCH   5  10
HETATM   10  C           1     -20.546  -4.485  -6.087  0.00  0.00     0.083 C 
BRANCH  10  11
HETATM   11  C           1     -21.616  -4.369  -7.127  0.00  0.00    -0.028 A 
HETATM   12  C           1     -22.971  -4.487  -6.916  0.00  0.00     0.096 A 
HETATM   13  N           1     -23.599  -4.316  -8.121  0.00  0.00    -0.365 N 
HETATM   14  C           1     -22.673  -4.087  -9.113  0.00  0.00     0.042 A 
HETATM   15  H           1     -24.638  -4.354  -8.266  0.00  0.00     0.165 HD
HETATM   16  C           1     -21.414  -4.116  -8.513  0.00  0.00    -0.002 A 
HETATM   17  C           1     -22.851  -3.860 -10.483  0.00  0.00     0.030 A 
HETATM   18  C           1     -20.275  -3.907  -9.315  0.00  0.00     0.014 A 
HETATM   19  C           1     -20.436  -3.678 -10.686  0.00  0.00     0.001 A 
HETATM   20  C           1     -21.707  -3.655 -11.259  0.00  0.00     0.002 A 
ENDBRANCH  10  11
ENDBRANCH   5  10
ENDBRANCH   4   5
BRANCH   2  21
HETATM   21  C           1     -21.130  -7.619  -2.902  0.00  0.00     0.189 C 
BRANCH  21  22
HETATM   22  C           1     -21.991  -6.763  -2.008  0.00  0.00     0.197 C 
HETATM   23  O           1     -22.075  -7.022  -0.787  0.00  0.00    -0.646 OA
HETATM   24  O           1     -22.622  -5.796  -2.486  0.00  0.00    -0.646 OA
ENDBRANCH  21  22
BRANCH  21  25
HETATM   25  C           1     -20.145  -8.410  -2.052  0.00  0.00     0.074 C 
BRANCH  25  26
HETATM   26  C           1     -19.370  -9.348  -2.924  0.00  0.00    -0.056 A 
HETATM   27  C           1     -20.044 -10.264  -3.731  0.00  0.00     0.010 A 
HETATM   28  C           1     -19.322 -11.139  -4.544  0.00  0.00     0.037 A 
HETATM   29  C           1     -17.928 -11.097  -4.550  0.00  0.00     0.065 A 
HETATM   30  C           1     -17.255 -10.179  -3.742  0.00  0.00     0.037 A 
HETATM   31  C           1     -17.977  -9.305  -2.929  0.00  0.00     0.010 A 
BRANCH  29  32
HETATM   32  O           1     -17.227 -11.946  -5.339  0.00  0.00    -0.361 OA
HETATM   33  H           1     -17.311 -12.840  -4.966  0.00  0.00     0.217 HD
ENDBRANCH  29  32
ENDBRANCH  25  26
ENDBRANCH  21  25
ENDBRANCH   2  21
TORSDOF 9
ENDMDL
MODEL 9
REMARK VINA RESULT:      -7.8     14.127     16.706
REMARK  9 active torsions:
REMARK  status: ('A' for Active; 'I' for Inactive)
REMARK    1  A    between atoms: C_1  and  C_25 
REMARK    2  A    between atoms: C_5  and  C_11 
REMARK    3  A    between atoms: N_6  and  C_25 
REMARK       I    between atoms: N_6  and  C_23 
REMARK    4  A    between atoms: N_10  and  C_12 
REMARK    5  A    between atoms: C_11  and  C_12 
REMARK    6  A    between atoms: C_12  and  C_23 
REMARK    7  A    between atoms: C_25  and  C_26 
REMARK    8  A    between atoms: C_26  and  C_29 
REMARK    9  A    between atoms: C_32  and  O_33 
ROOT
HETATM    1  H           1     -33.280  -2.658 -14.175  0.00  0.00     0.163 HD
HETATM    2  N           1     -33.951  -3.357 -13.881  0.00  0.00    -0.344 N 
HETATM    3  O           1     -35.060  -5.235 -14.360  0.00  0.00    -0.271 OA
HETATM    4  C           1     -34.258  -4.402 -14.710  0.00  0.00     0.249 C 
ENDROOT
BRANCH   4   5
HETATM    5  C           1     -33.594  -4.514 -16.060  0.00  0.00     0.278 C 
BRANCH   5   6
HETATM    6  N           1     -34.055  -3.390 -16.938  0.00  0.00    -0.066 N 
HETATM    7  H           1     -33.454  -3.344 -17.792  0.00  0.00     0.275 HD
HETATM    8  H           1     -35.047  -3.555 -17.222  0.00  0.00     0.275 HD
HETATM    9  H           1     -33.987  -2.488 -16.415  0.00  0.00     0.275 HD
ENDBRANCH   5   6
BRANCH   5  10
HETATM   10  C           1     -32.082  -4.438 -15.891  0.00  0.00     0.083 C 
BRANCH  10  11
HETATM   11  C           1     -31.427  -5.439 -16.791  0.00  0.00    -0.028 A 
HETATM   12  C           1     -32.046  -6.502 -17.409  0.00  0.00     0.096 A 
HETATM   13  N           1     -31.100  -7.170 -18.140  0.00  0.00    -0.365 N 
HETATM   14  C           1     -29.875  -6.556 -18.008  0.00  0.00     0.042 A 
HETATM   15  H           1     -31.284  -8.026 -18.719  0.00  0.00     0.165 HD
HETATM   16  C           1     -30.054  -5.462 -17.161  0.00  0.00    -0.002 A 
HETATM   17  C           1     -28.634  -6.884 -18.567  0.00  0.00     0.030 A 
HETATM   18  C           1     -28.943  -4.651 -16.856  0.00  0.00     0.014 A 
HETATM   19  C           1     -27.695  -4.965 -17.407  0.00  0.00     0.001 A 
HETATM   20  C           1     -27.546  -6.065 -18.249  0.00  0.00     0.002 A 
ENDBRANCH  10  11
ENDBRANCH   5  10
ENDBRANCH   4   5
BRANCH   2  21
HETATM   21  C           1     -34.589  -3.249 -12.583  0.00  0.00     0.189 C 
BRANCH  21  22
HETATM   22  C           1     -35.089  -1.839 -12.384  0.00  0.00     0.197 C 
HETATM   23  O           1     -34.454  -1.048 -11.654  0.00  0.00    -0.646 OA
HETATM   24  O           1     -36.138  -1.463 -12.949  0.00  0.00    -0.646 OA
ENDBRANCH  21  22
BRANCH  21  25
HETATM   25  C           1     -33.582  -3.587 -11.492  0.00  0.00     0.074 C 
BRANCH  25  26
HETATM   26  C           1     -33.852  -4.965 -10.972  0.00  0.00    -0.056 A 
HETATM   27  C           1     -32.924  -5.984 -11.183  0.00  0.00     0.010 A 
HETATM   28  C           1     -33.175  -7.268 -10.699  0.00  0.00     0.037 A 
HETATM   29  C           1     -34.355  -7.532 -10.003  0.00  0.00     0.065 A 
HETATM   30  C           1     -35.283  -6.512  -9.791  0.00  0.00     0.037 A 
HETATM   31  C           1     -35.031  -5.228 -10.277  0.00  0.00     0.010 A 
BRANCH  29  32
HETATM   32  O           1     -34.600  -8.778  -9.533  0.00  0.00    -0.361 OA
HETATM   33  H           1     -35.547  -8.965  -9.655  0.00  0.00     0.217 HD
ENDBRANCH  29  32
ENDBRANCH  25  26
ENDBRANCH  21  25
ENDBRANCH   2  21
TORSDOF 9
ENDMDL
