MODEL 1
REMARK VINA RESULT:      -5.9      0.000      0.000
REMARK  11 active torsions:
REMARK  status: ('A' for Active; 'I' for Inactive)
REMARK    1  A    between atoms: C_1  and  C_24 
REMARK    2  A    between atoms: C_1  and  C_3 
REMARK    3  A    between atoms: C_3  and  C_9 
REMARK    4  A    between atoms: C_7  and  C_12 
REMARK    5  A    between atoms: C_9  and  N_18 
REMARK    6  A    between atoms: N_10  and  C_24 
REMARK    7  A    between atoms: C_11  and  S_20 
REMARK    8  A    between atoms: C_11  and  C_21 
REMARK    9  A    between atoms: C_12  and  C_21 
REMARK   10  A    between atoms: C_12  and  N_17 
REMARK       I    between atoms: C_16  and  N_17 
REMARK   11  A    between atoms: C_16  and  C_24 
ROOT
HETATM    1  O           1     -24.299  -6.482 -18.540  0.00  0.00    -0.271 OA
HETATM    2  H           1     -27.399  -6.960 -18.617  0.00  0.00     0.163 HD
HETATM    3  C           1     -25.362  -6.862 -18.971  0.00  0.00     0.249 C 
HETATM    4  N           1     -26.509  -6.642 -18.256  0.00  0.00    -0.345 N 
ENDROOT
BRANCH   3   5
HETATM    5  C           1     -25.426  -7.578 -20.297  0.00  0.00     0.274 C 
BRANCH   5   6
HETATM    6  C           1     -24.809  -6.702 -21.379  0.00  0.00     0.044 C 
BRANCH   6   7
HETATM    7  C           1     -24.092  -7.580 -22.396  0.00  0.00     0.030 C 
BRANCH   7   8
HETATM    8  C           1     -23.027  -8.409 -21.692  0.00  0.00     0.230 C 
BRANCH   8   9
HETATM    9  N           1     -22.498  -9.450 -22.634  0.00  0.00    -0.079 N 
HETATM   10  H           1     -21.615  -9.854 -22.247  0.00  0.00     0.274 HD
HETATM   11  H           1     -22.303  -9.012 -23.562  0.00  0.00     0.274 HD
HETATM   12  H           1     -23.207 -10.209 -22.747  0.00  0.00     0.274 HD
ENDBRANCH   8   9
ENDBRANCH   7   8
ENDBRANCH   6   7
ENDBRANCH   5   6
BRANCH   5  13
HETATM   13  N           1     -26.857  -7.865 -20.641  0.00  0.00    -0.067 N 
HETATM   14  H           1     -27.358  -8.208 -19.791  0.00  0.00     0.275 HD
HETATM   15  H           1     -27.315  -6.991 -20.985  0.00  0.00     0.275 HD
HETATM   16  H           1     -26.896  -8.597 -21.386  0.00  0.00     0.275 HD
ENDBRANCH   5  13
ENDBRANCH   3   5
BRANCH   4  17
HETATM   17  C           1     -26.447  -5.953 -16.981  0.00  0.00     0.186 C 
BRANCH  17  18
HETATM   18  C           1     -26.408  -6.967 -15.864  0.00  0.00     0.196 C 
HETATM   19  O           1     -27.472  -7.391 -15.367  0.00  0.00    -0.646 OA
HETATM   20  O           1     -25.309  -7.383 -15.436  0.00  0.00    -0.646 OA
ENDBRANCH  17  18
BRANCH  17  21
HETATM   21  C           1     -27.678  -5.069 -16.822  0.00  0.00     0.046 C 
BRANCH  21  22
HETATM   22  C           1     -28.605  -5.270 -18.013  0.00  0.00     0.076 C 
BRANCH  22  23
HETATM   23  S           1     -30.177  -5.978 -17.445  0.00  0.00    -0.173 SA
HETATM   24  C           1     -29.972  -7.591 -18.251  0.00  0.00     0.089 C 
ENDBRANCH  22  23
ENDBRANCH  21  22
ENDBRANCH  17  21
ENDBRANCH   4  17
TORSDOF 11
ENDMDL
MODEL 2
REMARK VINA RESULT:      -5.8     11.000     12.810
REMARK  11 active torsions:
REMARK  status: ('A' for Active; 'I' for Inactive)
REMARK    1  A    between atoms: C_1  and  C_24 
REMARK    2  A    between atoms: C_1  and  C_3 
REMARK    3  A    between atoms: C_3  and  C_9 
REMARK    4  A    between atoms: C_7  and  C_12 
REMARK    5  A    between atoms: C_9  and  N_18 
REMARK    6  A    between atoms: N_10  and  C_24 
REMARK    7  A    between atoms: C_11  and  S_20 
REMARK    8  A    between atoms: C_11  and  C_21 
REMARK    9  A    between atoms: C_12  and  C_21 
REMARK   10  A    between atoms: C_12  and  N_17 
REMARK       I    between atoms: C_16  and  N_17 
REMARK   11  A    between atoms: C_16  and  C_24 
ROOT
HETATM    1  O           1     -33.615  -2.150 -11.265  0.00  0.00    -0.271 OA
HETATM    2  H           1     -36.109  -2.339 -13.159  0.00  0.00     0.163 HD
HETATM    3  C           1     -34.400  -2.651 -12.034  0.00  0.00     0.249 C 
HETATM    4  N           1     -35.452  -1.919 -12.515  0.00  0.00    -0.345 N 
ENDROOT
BRANCH   3   5
HETATM    5  C           1     -34.220  -4.086 -12.467  0.00  0.00     0.274 C 
BRANCH   5   6
HETATM    6  C           1     -33.349  -4.817 -11.454  0.00  0.00     0.044 C 
BRANCH   6   7
HETATM    7  C           1     -34.232  -5.441 -10.381  0.00  0.00     0.030 C 
BRANCH   7   8
HETATM    8  C           1     -34.366  -6.935 -10.638  0.00  0.00     0.230 C 
BRANCH   8   9
HETATM    9  N           1     -35.121  -7.572  -9.509  0.00  0.00    -0.079 N 
HETATM   10  H           1     -34.525  -7.580  -8.651  0.00  0.00     0.274 HD
HETATM   11  H           1     -35.371  -8.553  -9.768  0.00  0.00     0.274 HD
HETATM   12  H           1     -35.993  -7.027  -9.322  0.00  0.00     0.274 HD
ENDBRANCH   8   9
ENDBRANCH   7   8
ENDBRANCH   6   7
ENDBRANCH   5   6
BRANCH   5  13
HETATM   13  N           1     -33.560  -4.122 -13.813  0.00  0.00    -0.067 N 
HETATM   14  H           1     -33.131  -3.191 -14.016  0.00  0.00     0.275 HD
HETATM   15  H           1     -32.817  -4.856 -13.817  0.00  0.00     0.275 HD
HETATM   16  H           1     -34.273  -4.343 -14.545  0.00  0.00     0.275 HD
ENDBRANCH   5  13
ENDBRANCH   3   5
BRANCH   4  17
HETATM   17  C           1     -35.624  -0.540 -12.099  0.00  0.00     0.186 C 
BRANCH  17  18
HETATM   18  C           1     -36.645  -0.474 -10.989  0.00  0.00     0.196 C 
HETATM   19  O           1     -36.357   0.080  -9.907  0.00  0.00    -0.646 OA
HETATM   20  O           1     -37.779  -0.973 -11.154  0.00  0.00    -0.646 OA
ENDBRANCH  17  18
BRANCH  17  21
HETATM   21  C           1     -36.105   0.290 -13.282  0.00  0.00     0.046 C 
BRANCH  21  22
HETATM   22  C           1     -35.119   0.153 -14.434  0.00  0.00     0.076 C 
BRANCH  22  23
HETATM   23  S           1     -35.999  -0.400 -15.922  0.00  0.00    -0.173 SA
HETATM   24  C           1     -37.667  -0.005 -15.325  0.00  0.00     0.089 C 
ENDBRANCH  22  23
ENDBRANCH  21  22
ENDBRANCH  17  21
ENDBRANCH   4  17
TORSDOF 11
ENDMDL
MODEL 3
REMARK VINA RESULT:      -5.4     11.479     13.020
REMARK  11 active torsions:
REMARK  status: ('A' for Active; 'I' for Inactive)
REMARK    1  A    between atoms: C_1  and  C_24 
REMARK    2  A    between atoms: C_1  and  C_3 
REMARK    3  A    between atoms: C_3  and  C_9 
REMARK    4  A    between atoms: C_7  and  C_12 
REMARK    5  A    between atoms: C_9  and  N_18 
REMARK    6  A    between atoms: N_10  and  C_24 
REMARK    7  A    between atoms: C_11  and  S_20 
REMARK    8  A    between atoms: C_11  and  C_21 
REMARK    9  A    between atoms: C_12  and  C_21 
REMARK   10  A    between atoms: C_12  and  N_17 
REMARK       I    between atoms: C_16  and  N_17 
REMARK   11  A    between atoms: C_16  and  C_24 
ROOT
HETATM    1  O           1     -35.851  -2.957 -11.822  0.00  0.00    -0.271 OA
HETATM    2  H           1     -33.912  -1.639 -13.907  0.00  0.00     0.163 HD
HETATM    3  C           1     -34.870  -2.837 -12.518  0.00  0.00     0.249 C 
HETATM    4  N           1     -34.733  -1.739 -13.324  0.00  0.00    -0.345 N 
ENDROOT
BRANCH   3   5
HETATM    5  C           1     -33.797  -3.897 -12.499  0.00  0.00     0.274 C 
BRANCH   5   6
HETATM    6  C           1     -34.418  -5.244 -12.153  0.00  0.00     0.044 C 
BRANCH   6   7
HETATM    7  C           1     -33.670  -5.862 -10.979  0.00  0.00     0.030 C 
BRANCH   7   8
HETATM    8  C           1     -34.629  -6.704 -10.150  0.00  0.00     0.230 C 
BRANCH   8   9
HETATM    9  N           1     -34.757  -8.067 -10.761  0.00  0.00    -0.079 N 
HETATM   10  H           1     -35.246  -8.706 -10.093  0.00  0.00     0.274 HD
HETATM   11  H           1     -33.806  -8.445 -10.970  0.00  0.00     0.274 HD
HETATM   12  H           1     -35.310  -8.002 -11.646  0.00  0.00     0.274 HD
ENDBRANCH   8   9
ENDBRANCH   7   8
ENDBRANCH   6   7
ENDBRANCH   5   6
BRANCH   5  13
HETATM   13  N           1     -32.765  -3.544 -11.469  0.00  0.00    -0.067 N 
HETATM   14  H           1     -31.824  -3.492 -11.922  0.00  0.00     0.275 HD
HETATM   15  H           1     -32.998  -2.617 -11.046  0.00  0.00     0.275 HD
HETATM   16  H           1     -32.752  -4.276 -10.724  0.00  0.00     0.275 HD
ENDBRANCH   5  13
ENDBRANCH   3   5
BRANCH   4  17
HETATM   17  C           1     -35.765  -0.721 -13.342  0.00  0.00     0.186 C 
BRANCH  17  18
HETATM   18  C           1     -35.548   0.194 -14.523  0.00  0.00     0.196 C 
HETATM   19  O           1     -36.525   0.602 -15.186  0.00  0.00    -0.646 OA
HETATM   20  O           1     -34.389   0.544 -14.837  0.00  0.00    -0.646 OA
ENDBRANCH  17  18
BRANCH  17  21
HETATM   21  C           1     -35.701   0.089 -12.053  0.00  0.00     0.046 C 
BRANCH  21  22
HETATM   22  C           1     -37.079   0.124 -11.406  0.00  0.00     0.076 C 
BRANCH  22  23
HETATM   23  S           1     -36.925  -0.237  -9.634  0.00  0.00    -0.173 SA
HETATM   24  C           1     -37.577   1.353  -9.049  0.00  0.00     0.089 C 
ENDBRANCH  22  23
ENDBRANCH  21  22
ENDBRANCH  17  21
ENDBRANCH   4  17
TORSDOF 11
ENDMDL
MODEL 4
REMARK VINA RESULT:      -5.4      2.124      3.261
REMARK  11 active torsions:
REMARK  status: ('A' for Active; 'I' for Inactive)
REMARK    1  A    between atoms: C_1  and  C_24 
REMARK    2  A    between atoms: C_1  and  C_3 
REMARK    3  A    between atoms: C_3  and  C_9 
REMARK    4  A    between atoms: C_7  and  C_12 
REMARK    5  A    between atoms: C_9  and  N_18 
REMARK    6  A    between atoms: N_10  and  C_24 
REMARK    7  A    between atoms: C_11  and  S_20 
REMARK    8  A    between atoms: C_11  and  C_21 
REMARK    9  A    between atoms: C_12  and  C_21 
REMARK   10  A    between atoms: C_12  and  N_17 
REMARK       I    between atoms: C_16  and  N_17 
REMARK   11  A    between atoms: C_16  and  C_24 
ROOT
HETATM    1  O           1     -26.380  -7.402 -15.259  0.00  0.00    -0.271 OA
HETATM    2  H           1     -27.527  -6.303 -17.965  0.00  0.00     0.163 HD
HETATM    3  C           1     -26.365  -6.973 -16.389  0.00  0.00     0.249 C 
HETATM    4  N           1     -27.540  -6.662 -17.019  0.00  0.00    -0.345 N 
ENDROOT
BRANCH   3   5
HETATM    5  C           1     -25.051  -6.781 -17.105  0.00  0.00     0.274 C 
BRANCH   5   6
HETATM    6  C           1     -25.283  -6.812 -18.610  0.00  0.00     0.044 C 
BRANCH   6   7
HETATM    7  C           1     -23.980  -7.163 -19.317  0.00  0.00     0.030 C 
BRANCH   7   8
HETATM    8  C           1     -24.288  -7.883 -20.623  0.00  0.00     0.230 C 
BRANCH   8   9
HETATM    9  N           1     -23.150  -8.796 -20.972  0.00  0.00    -0.079 N 
HETATM   10  H           1     -22.418  -8.260 -21.491  0.00  0.00     0.274 HD
HETATM   11  H           1     -23.502  -9.575 -21.574  0.00  0.00     0.274 HD
HETATM   12  H           1     -22.738  -9.189 -20.096  0.00  0.00     0.274 HD
ENDBRANCH   8   9
ENDBRANCH   7   8
ENDBRANCH   6   7
ENDBRANCH   5   6
BRANCH   5  13
HETATM   13  N           1     -24.107  -7.882 -16.721  0.00  0.00    -0.067 N 
HETATM   14  H           1     -23.400  -7.515 -16.045  0.00  0.00     0.275 HD
HETATM   15  H           1     -24.643  -8.661 -16.276  0.00  0.00     0.275 HD
HETATM   16  H           1     -23.620  -8.236 -17.576  0.00  0.00     0.275 HD
ENDBRANCH   5  13
ENDBRANCH   3   5
BRANCH   4  17
HETATM   17  C           1     -28.802  -6.847 -16.330  0.00  0.00     0.186 C 
BRANCH  17  18
HETATM   18  C           1     -29.794  -7.496 -17.264  0.00  0.00     0.196 C 
HETATM   19  O           1     -29.418  -8.390 -18.051  0.00  0.00    -0.646 OA
HETATM   20  O           1     -30.992  -7.138 -17.250  0.00  0.00    -0.646 OA
ENDBRANCH  17  18
BRANCH  17  21
HETATM   21  C           1     -29.338  -5.494 -15.880  0.00  0.00     0.046 C 
BRANCH  21  22
HETATM   22  C           1     -28.637  -4.386 -16.655  0.00  0.00     0.076 C 
BRANCH  22  23
HETATM   23  S           1     -29.565  -4.027 -18.173  0.00  0.00    -0.173 SA
HETATM   24  C           1     -31.160  -3.720 -17.362  0.00  0.00     0.089 C 
ENDBRANCH  22  23
ENDBRANCH  21  22
ENDBRANCH  17  21
ENDBRANCH   4  17
TORSDOF 11
ENDMDL
MODEL 5
REMARK VINA RESULT:      -5.3      7.156      9.207
REMARK  11 active torsions:
REMARK  status: ('A' for Active; 'I' for Inactive)
REMARK    1  A    between atoms: C_1  and  C_24 
REMARK    2  A    between atoms: C_1  and  C_3 
REMARK    3  A    between atoms: C_3  and  C_9 
REMARK    4  A    between atoms: C_7  and  C_12 
REMARK    5  A    between atoms: C_9  and  N_18 
REMARK    6  A    between atoms: N_10  and  C_24 
REMARK    7  A    between atoms: C_11  and  S_20 
REMARK    8  A    between atoms: C_11  and  C_21 
REMARK    9  A    between atoms: C_12  and  C_21 
REMARK   10  A    between atoms: C_12  and  N_17 
REMARK       I    between atoms: C_16  and  N_17 
REMARK   11  A    between atoms: C_16  and  C_24 
ROOT
HETATM    1  O           1     -35.016  -5.015 -15.428  0.00  0.00    -0.271 OA
HETATM    2  H           1     -32.456  -3.544 -14.369  0.00  0.00     0.163 HD
HETATM    3  C           1     -33.923  -4.502 -15.470  0.00  0.00     0.249 C 
HETATM    4  N           1     -33.371  -3.974 -14.334  0.00  0.00    -0.345 N 
ENDROOT
BRANCH   3   5
HETATM    5  C           1     -33.166  -4.444 -16.774  0.00  0.00     0.274 C 
BRANCH   5   6
HETATM    6  C           1     -31.674  -4.581 -16.502  0.00  0.00     0.044 C 
BRANCH   6   7
HETATM    7  C           1     -30.893  -3.797 -17.549  0.00  0.00     0.030 C 
BRANCH   7   8
HETATM    8  C           1     -29.411  -4.123 -17.429  0.00  0.00     0.230 C 
BRANCH   8   9
HETATM    9  N           1     -28.950  -4.825 -18.672  0.00  0.00    -0.079 N 
HETATM   10  H           1     -29.014  -4.173 -19.486  0.00  0.00     0.274 HD
HETATM   11  H           1     -29.557  -5.659 -18.845  0.00  0.00     0.274 HD
HETATM   12  H           1     -27.959  -5.134 -18.550  0.00  0.00     0.274 HD
ENDBRANCH   8   9
ENDBRANCH   7   8
ENDBRANCH   6   7
ENDBRANCH   5   6
BRANCH   5  13
HETATM   13  N           1     -33.433  -3.130 -17.447  0.00  0.00    -0.067 N 
HETATM   14  H           1     -34.405  -3.127 -17.831  0.00  0.00     0.275 HD
HETATM   15  H           1     -33.330  -2.356 -16.754  0.00  0.00     0.275 HD
HETATM   16  H           1     -32.751  -2.994 -18.227  0.00  0.00     0.275 HD
ENDBRANCH   5  13
ENDBRANCH   3   5
BRANCH   4  17
HETATM   17  C           1     -34.099  -4.030 -13.081  0.00  0.00     0.186 C 
BRANCH  17  18
HETATM   18  C           1     -34.893  -2.759 -12.904  0.00  0.00     0.196 C 
HETATM   19  O           1     -35.623  -2.613 -11.901  0.00  0.00    -0.646 OA
HETATM   20  O           1     -34.820  -1.852 -13.762  0.00  0.00    -0.646 OA
ENDBRANCH  17  18
BRANCH  17  21
HETATM   21  C           1     -33.114  -4.178 -11.928  0.00  0.00     0.046 C 
BRANCH  21  22
HETATM   22  C           1     -33.225  -5.579 -11.342  0.00  0.00     0.076 C 
BRANCH  22  23
HETATM   23  S           1     -34.764  -5.718 -10.390  0.00  0.00    -0.173 SA
HETATM   24  C           1     -34.685  -7.514 -10.145  0.00  0.00     0.089 C 
ENDBRANCH  22  23
ENDBRANCH  21  22
ENDBRANCH  17  21
ENDBRANCH   4  17
TORSDOF 11
ENDMDL
MODEL 6
REMARK VINA RESULT:      -5.2     12.889     15.154
REMARK  11 active torsions:
REMARK  status: ('A' for Active; 'I' for Inactive)
REMARK    1  A    between atoms: C_1  and  C_24 
REMARK    2  A    between atoms: C_1  and  C_3 
REMARK    3  A    between atoms: C_3  and  C_9 
REMARK    4  A    between atoms: C_7  and  C_12 
REMARK    5  A    between atoms: C_9  and  N_18 
REMARK    6  A    between atoms: N_10  and  C_24 
REMARK    7  A    between atoms: C_11  and  S_20 
REMARK    8  A    between atoms: C_11  and  C_21 
REMARK    9  A    between atoms: C_12  and  C_21 
REMARK   10  A    between atoms: C_12  and  N_17 
REMARK       I    between atoms: C_16  and  N_17 
REMARK   11  A    between atoms: C_16  and  C_24 
ROOT
HETATM    1  O           1     -22.597  -5.692  -5.647  0.00  0.00    -0.271 OA
HETATM    2  H           1     -19.812  -6.812  -4.737  0.00  0.00     0.163 HD
HETATM    3  C           1     -21.396  -5.817  -5.622  0.00  0.00     0.249 C 
HETATM    4  N           1     -20.818  -6.708  -4.758  0.00  0.00    -0.345 N 
ENDROOT
BRANCH   3   5
HETATM    5  C           1     -20.532  -4.992  -6.545  0.00  0.00     0.274 C 
BRANCH   5   6
HETATM    6  C           1     -21.368  -3.881  -7.166  0.00  0.00     0.044 C 
BRANCH   6   7
HETATM    7  C           1     -21.453  -4.092  -8.672  0.00  0.00     0.030 C 
BRANCH   7   8
HETATM    8  C           1     -22.912  -4.087  -9.106  0.00  0.00     0.230 C 
BRANCH   8   9
HETATM    9  N           1     -23.795  -4.089  -7.894  0.00  0.00    -0.079 N 
HETATM   10  H           1     -24.234  -5.031  -7.783  0.00  0.00     0.274 HD
HETATM   11  H           1     -24.543  -3.368  -8.008  0.00  0.00     0.274 HD
HETATM   12  H           1     -23.224  -3.870  -7.046  0.00  0.00     0.274 HD
ENDBRANCH   8   9
ENDBRANCH   7   8
ENDBRANCH   6   7
ENDBRANCH   5   6
BRANCH   5  13
HETATM   13  N           1     -19.981  -5.870  -7.629  0.00  0.00    -0.067 N 
HETATM   14  H           1     -20.627  -5.857  -8.451  0.00  0.00     0.275 HD
HETATM   15  H           1     -19.042  -5.517  -7.920  0.00  0.00     0.275 HD
HETATM   16  H           1     -19.892  -6.849  -7.273  0.00  0.00     0.275 HD
ENDBRANCH   5  13
ENDBRANCH   3   5
BRANCH   4  17
HETATM   17  C           1     -21.648  -7.500  -3.872  0.00  0.00     0.186 C 
BRANCH  17  18
HETATM   18  C           1     -21.635  -6.889  -2.491  0.00  0.00     0.196 C 
HETATM   19  O           1     -22.332  -5.883  -2.246  0.00  0.00    -0.646 OA
HETATM   20  O           1     -20.925  -7.393  -1.593  0.00  0.00    -0.646 OA
ENDBRANCH  17  18
BRANCH  17  21
HETATM   21  C           1     -21.106  -8.921  -3.804  0.00  0.00     0.046 C 
BRANCH  21  22
HETATM   22  C           1     -19.776  -8.994  -4.543  0.00  0.00     0.076 C 
BRANCH  22  23
HETATM   23  S           1     -18.463  -9.468  -3.383  0.00  0.00    -0.173 SA
HETATM   24  C           1     -19.494 -10.540  -2.343  0.00  0.00     0.089 C 
ENDBRANCH  22  23
ENDBRANCH  21  22
ENDBRANCH  17  21
ENDBRANCH   4  17
TORSDOF 11
ENDMDL
MODEL 7
REMARK VINA RESULT:      -4.9      3.511      6.586
REMARK  11 active torsions:
REMARK  status: ('A' for Active; 'I' for Inactive)
REMARK    1  A    between atoms: C_1  and  C_24 
REMARK    2  A    between atoms: C_1  and  C_3 
REMARK    3  A    between atoms: C_3  and  C_9 
REMARK    4  A    between atoms: C_7  and  C_12 
REMARK    5  A    between atoms: C_9  and  N_18 
REMARK    6  A    between atoms: N_10  and  C_24 
REMARK    7  A    between atoms: C_11  and  S_20 
REMARK    8  A    between atoms: C_11  and  C_21 
REMARK    9  A    between atoms: C_12  and  C_21 
REMARK   10  A    between atoms: C_12  and  N_17 
REMARK       I    between atoms: C_16  and  N_17 
REMARK   11  A    between atoms: C_16  and  C_24 
ROOT
HETATM    1  O           1     -28.831  -5.142 -19.116  0.00  0.00    -0.271 OA
HETATM    2  H           1     -26.811  -7.427 -18.380  0.00  0.00     0.163 HD
HETATM    3  C           1     -28.182  -5.877 -18.410  0.00  0.00     0.249 C 
HETATM    4  N           1     -27.354  -6.812 -18.971  0.00  0.00    -0.345 N 
ENDROOT
BRANCH   3   5
HETATM    5  C           1     -28.284  -5.765 -16.909  0.00  0.00     0.274 C 
BRANCH   5   6
HETATM    6  C           1     -29.702  -6.107 -16.469  0.00  0.00     0.044 C 
BRANCH   6   7
HETATM    7  C           1     -30.406  -4.841 -15.998  0.00  0.00     0.030 C 
BRANCH   7   8
HETATM    8  C           1     -31.485  -4.457 -17.000  0.00  0.00     0.230 C 
BRANCH   8   9
HETATM    9  N           1     -31.080  -3.203 -17.717  0.00  0.00    -0.079 N 
HETATM   10  H           1     -31.583  -3.146 -18.631  0.00  0.00     0.274 HD
HETATM   11  H           1     -30.049  -3.218 -17.887  0.00  0.00     0.274 HD
HETATM   12  H           1     -31.327  -2.373 -17.132  0.00  0.00     0.274 HD
ENDBRANCH   8   9
ENDBRANCH   7   8
ENDBRANCH   6   7
ENDBRANCH   5   6
BRANCH   5  13
HETATM   13  N           1     -27.955  -4.363 -16.490  0.00  0.00    -0.067 N 
HETATM   14  H           1     -27.368  -3.908 -17.225  0.00  0.00     0.275 HD
HETATM   15  H           1     -28.839  -3.820 -16.365  0.00  0.00     0.275 HD
HETATM   16  H           1     -27.427  -4.384 -15.588  0.00  0.00     0.275 HD
ENDBRANCH   5  13
ENDBRANCH   3   5
BRANCH   4  17
HETATM   17  C           1     -27.256  -6.919 -20.414  0.00  0.00     0.186 C 
BRANCH  17  18
HETATM   18  C           1     -27.616  -8.322 -20.839  0.00  0.00     0.196 C 
HETATM   19  O           1     -28.622  -8.883 -20.356  0.00  0.00    -0.646 OA
HETATM   20  O           1     -26.906  -8.923 -21.675  0.00  0.00    -0.646 OA
ENDBRANCH  17  18
BRANCH  17  21
HETATM   21  C           1     -25.831  -6.606 -20.851  0.00  0.00     0.046 C 
BRANCH  21  22
HETATM   22  C           1     -24.851  -7.172 -19.832  0.00  0.00     0.076 C 
BRANCH  22  23
HETATM   23  S           1     -23.570  -8.130 -20.689  0.00  0.00    -0.173 SA
HETATM   24  C           1     -24.025  -7.611 -22.368  0.00  0.00     0.089 C 
ENDBRANCH  22  23
ENDBRANCH  21  22
ENDBRANCH  17  21
ENDBRANCH   4  17
TORSDOF 11
ENDMDL
MODEL 8
REMARK VINA RESULT:      -4.9     13.213     15.444
REMARK  11 active torsions:
REMARK  status: ('A' for Active; 'I' for Inactive)
REMARK    1  A    between atoms: C_1  and  C_24 
REMARK    2  A    between atoms: C_1  and  C_3 
REMARK    3  A    between atoms: C_3  and  C_9 
REMARK    4  A    between atoms: C_7  and  C_12 
REMARK    5  A    between atoms: C_9  and  N_18 
REMARK    6  A    between atoms: N_10  and  C_24 
REMARK    7  A    between atoms: C_11  and  S_20 
REMARK    8  A    between atoms: C_11  and  C_21 
REMARK    9  A    between atoms: C_12  and  C_21 
REMARK   10  A    between atoms: C_12  and  N_17 
REMARK       I    between atoms: C_16  and  N_17 
REMARK   11  A    between atoms: C_16  and  C_24 
ROOT
HETATM    1  O           1     -22.369  -5.903  -5.225  0.00  0.00    -0.271 OA
HETATM    2  H           1     -19.659  -7.295  -4.477  0.00  0.00     0.163 HD
HETATM    3  C           1     -21.183  -6.128  -5.252  0.00  0.00     0.249 C 
HETATM    4  N           1     -20.653  -7.107  -4.455  0.00  0.00    -0.345 N 
ENDROOT
BRANCH   3   5
HETATM    5  C           1     -20.284  -5.330  -6.165  0.00  0.00     0.274 C 
BRANCH   5   6
HETATM    6  C           1     -21.077  -4.188  -6.788  0.00  0.00     0.044 C 
BRANCH   6   7
HETATM    7  C           1     -21.366  -4.509  -8.248  0.00  0.00     0.030 C 
BRANCH   7   8
HETATM    8  C           1     -22.724  -3.940  -8.635  0.00  0.00     0.230 C 
BRANCH   8   9
HETATM    9  N           1     -23.713  -4.215  -7.542  0.00  0.00    -0.079 N 
HETATM   10  H           1     -24.622  -4.515  -7.960  0.00  0.00     0.274 HD
HETATM   11  H           1     -23.858  -3.347  -6.978  0.00  0.00     0.274 HD
HETATM   12  H           1     -23.347  -4.976  -6.925  0.00  0.00     0.274 HD
ENDBRANCH   8   9
ENDBRANCH   7   8
ENDBRANCH   6   7
ENDBRANCH   5   6
BRANCH   5  13
HETATM   13  N           1     -19.756  -6.222  -7.249  0.00  0.00    -0.067 N 
HETATM   14  H           1     -19.220  -7.011  -6.822  0.00  0.00     0.275 HD
HETATM   15  H           1     -20.554  -6.605  -7.805  0.00  0.00     0.275 HD
HETATM   16  H           1     -19.126  -5.673  -7.876  0.00  0.00     0.275 HD
ENDBRANCH   5  13
ENDBRANCH   3   5
BRANCH   4  17
HETATM   17  C           1     -21.516  -7.873  -3.577  0.00  0.00     0.186 C 
BRANCH  17  18
HETATM   18  C           1     -21.451  -7.300  -2.182  0.00  0.00     0.196 C 
HETATM   19  O           1     -22.289  -6.449  -1.817  0.00  0.00    -0.646 OA
HETATM   20  O           1     -20.559  -7.678  -1.393  0.00  0.00    -0.646 OA
ENDBRANCH  17  18
BRANCH  17  21
HETATM   21  C           1     -21.055  -9.324  -3.552  0.00  0.00     0.046 C 
BRANCH  21  22
HETATM   22  C           1     -22.231 -10.226  -3.202  0.00  0.00     0.076 C 
BRANCH  22  23
HETATM   23  S           1     -21.877 -11.112  -1.658  0.00  0.00    -0.173 SA
HETATM   24  C           1     -23.139 -10.278  -0.656  0.00  0.00     0.089 C 
ENDBRANCH  22  23
ENDBRANCH  21  22
ENDBRANCH  17  21
ENDBRANCH   4  17
TORSDOF 11
ENDMDL
MODEL 9
REMARK VINA RESULT:      -4.9      2.858      5.325
REMARK  11 active torsions:
REMARK  status: ('A' for Active; 'I' for Inactive)
REMARK    1  A    between atoms: C_1  and  C_24 
REMARK    2  A    between atoms: C_1  and  C_3 
REMARK    3  A    between atoms: C_3  and  C_9 
REMARK    4  A    between atoms: C_7  and  C_12 
REMARK    5  A    between atoms: C_9  and  N_18 
REMARK    6  A    between atoms: N_10  and  C_24 
REMARK    7  A    between atoms: C_11  and  S_20 
REMARK    8  A    between atoms: C_11  and  C_21 
REMARK    9  A    between atoms: C_12  and  C_21 
REMARK   10  A    between atoms: C_12  and  N_17 
REMARK       I    between atoms: C_16  and  N_17 
REMARK   11  A    between atoms: C_16  and  C_24 
ROOT
HETATM    1  O           1     -27.988  -7.145 -15.984  0.00  0.00    -0.271 OA
HETATM    2  H           1     -26.833  -5.168 -18.129  0.00  0.00     0.163 HD
HETATM    3  C           1     -27.930  -6.160 -16.681  0.00  0.00     0.249 C 
HETATM    4  N           1     -26.882  -5.993 -17.546  0.00  0.00    -0.345 N 
ENDROOT
BRANCH   3   5
HETATM    5  C           1     -29.013  -5.113 -16.598  0.00  0.00     0.274 C 
BRANCH   5   6
HETATM    6  C           1     -30.060  -5.378 -17.673  0.00  0.00     0.044 C 
BRANCH   6   7
HETATM    7  C           1     -30.778  -6.686 -17.369  0.00  0.00     0.030 C 
BRANCH   7   8
HETATM    8  C           1     -30.688  -7.608 -18.577  0.00  0.00     0.230 C 
BRANCH   8   9
HETATM    9  N           1     -29.530  -8.546 -18.408  0.00  0.00    -0.079 N 
HETATM   10  H           1     -29.264  -8.593 -17.398  0.00  0.00     0.274 HD
HETATM   11  H           1     -28.718  -8.200 -18.966  0.00  0.00     0.274 HD
HETATM   12  H           1     -29.803  -9.499 -18.740  0.00  0.00     0.274 HD
ENDBRANCH   8   9
ENDBRANCH   7   8
ENDBRANCH   6   7
ENDBRANCH   5   6
BRANCH   5  13
HETATM   13  N           1     -28.412  -3.755 -16.810  0.00  0.00    -0.067 N 
HETATM   14  H           1     -29.150  -3.095 -17.143  0.00  0.00     0.275 HD
HETATM   15  H           1     -28.014  -3.406 -15.909  0.00  0.00     0.275 HD
HETATM   16  H           1     -27.654  -3.818 -17.526  0.00  0.00     0.275 HD
ENDBRANCH   5  13
ENDBRANCH   3   5
BRANCH   4  17
HETATM   17  C           1     -25.841  -7.000 -17.625  0.00  0.00     0.186 C 
BRANCH  17  18
HETATM   18  C           1     -24.955  -6.903 -16.407  0.00  0.00     0.196 C 
HETATM   19  O           1     -24.827  -5.812 -15.812  0.00  0.00    -0.646 OA
HETATM   20  O           1     -24.349  -7.915 -15.993  0.00  0.00    -0.646 OA
ENDBRANCH  17  18
BRANCH  17  21
HETATM   21  C           1     -25.007  -6.770 -18.879  0.00  0.00     0.046 C 
BRANCH  21  22
HETATM   22  C           1     -25.923  -6.708 -20.094  0.00  0.00     0.076 C 
BRANCH  22  23
HETATM   23  S           1     -25.457  -8.010 -21.270  0.00  0.00    -0.173 SA
HETATM   24  C           1     -23.702  -8.073 -20.812  0.00  0.00     0.089 C 
ENDBRANCH  22  23
ENDBRANCH  21  22
ENDBRANCH  17  21
ENDBRANCH   4  17
TORSDOF 11
ENDMDL
