MODEL 1
REMARK VINA RESULT:      -9.4      0.000      0.000
REMARK  11 active torsions:
REMARK  status: ('A' for Active; 'I' for Inactive)
REMARK    1  A    between atoms: N_2  and  C_26 
REMARK       I    between atoms: N_2  and  C_3 
REMARK    2  A    between atoms: C_3  and  C_4 
REMARK    3  A    between atoms: C_4  and  C_5 
REMARK    4  A    between atoms: C_4  and  N_17 
REMARK    5  A    between atoms: C_5  and  C_6 
REMARK    6  A    between atoms: C_9  and  O_10 
REMARK    7  A    between atoms: O_10  and  P_11 
REMARK    8  A    between atoms: P_11  and  O_12 
REMARK    9  A    between atoms: C_24  and  C_26 
REMARK   10  A    between atoms: C_26  and  C_27 
REMARK   11  A    between atoms: C_27  and  C_28 
ROOT
HETATM    1  N           1     -21.223  -6.627  -2.949  0.00  0.00    -0.344 N 
HETATM    2  C           1     -21.548  -6.356  -4.251  0.00  0.00     0.249 C 
HETATM    3  O           1     -22.688  -6.086  -4.545  0.00  0.00    -0.271 OA
HETATM    4  H           1     -20.937  -5.877  -2.332  0.00  0.00     0.163 HD
ENDROOT
BRANCH   2   5
HETATM    5  C           1     -20.481  -6.392  -5.318  0.00  0.00     0.278 C 
BRANCH   5   6
HETATM    6  C           1     -20.082  -4.969  -5.686  0.00  0.00     0.081 C 
BRANCH   6   7
HETATM    7  C           1     -20.668  -4.615  -7.018  0.00  0.00    -0.056 A 
HETATM    8  C           1     -21.930  -4.025  -7.090  0.00  0.00     0.010 A 
HETATM    9  C           1     -22.476  -3.696  -8.331  0.00  0.00     0.038 A 
HETATM   10  C           1     -21.759  -3.956  -9.499  0.00  0.00     0.081 A 
HETATM   11  C           1     -20.498  -4.546  -9.427  0.00  0.00     0.038 A 
HETATM   12  C           1     -19.952  -4.875  -8.186  0.00  0.00     0.010 A 
BRANCH  10  13
HETATM   13  O           1     -22.290  -3.637 -10.705  0.00  0.00    -0.247 OA
BRANCH  13  14
HETATM   14  P           1     -23.695  -4.316 -11.119  0.00  0.00     0.411 P 
HETATM   15  O           1     -23.947  -5.492 -10.256  0.00  0.00    -0.624 OA
HETATM   16  O           1     -24.787  -3.332 -10.947  0.00  0.00    -0.624 OA
BRANCH  14  17
HETATM   17  O           1     -23.632  -4.786 -12.663  0.00  0.00    -0.300 OA
HETATM   18  H           1     -23.232  -4.066 -13.121  0.00  0.00     0.223 HD
ENDBRANCH  14  17
ENDBRANCH  13  14
ENDBRANCH  10  13
ENDBRANCH   6   7
ENDBRANCH   5   6
BRANCH   5  19
HETATM   19  N           1     -21.016  -7.090  -6.534  0.00  0.00    -0.066 N 
HETATM   20  H           1     -21.907  -6.634  -6.833  0.00  0.00     0.275 HD
HETATM   21  H           1     -20.316  -7.027  -7.308  0.00  0.00     0.275 HD
HETATM   22  H           1     -21.196  -8.095  -6.308  0.00  0.00     0.275 HD
ENDBRANCH   5  19
ENDBRANCH   2   5
BRANCH   1  23
HETATM   23  C           1     -21.287  -7.988  -2.454  0.00  0.00     0.190 C 
BRANCH  23  24
HETATM   24  C           1     -22.094  -8.022  -1.179  0.00  0.00     0.197 C 
HETATM   25  O           1     -22.371  -9.117  -0.644  0.00  0.00    -0.646 OA
HETATM   26  O           1     -22.485  -6.956  -0.659  0.00  0.00    -0.646 OA
ENDBRANCH  23  24
BRANCH  23  27
HETATM   27  C           1     -19.878  -8.495  -2.178  0.00  0.00     0.077 C 
BRANCH  27  28
HETATM   28  C           1     -19.412  -9.330  -3.330  0.00  0.00    -0.028 A 
HETATM   29  C           1     -20.209  -9.885  -4.305  0.00  0.00     0.096 A 
HETATM   30  N           1     -19.398 -10.570  -5.169  0.00  0.00    -0.365 N 
HETATM   31  H           1     -19.731 -11.097  -6.015  0.00  0.00     0.165 HD
HETATM   32  C           1     -18.084 -10.469  -4.771  0.00  0.00     0.042 A 
HETATM   33  C           1     -16.922 -11.002  -5.342  0.00  0.00     0.030 A 
HETATM   34  C           1     -18.066  -9.692  -3.613  0.00  0.00    -0.002 A 
HETATM   35  C           1     -15.707 -10.729  -4.707  0.00  0.00     0.002 A 
HETATM   36  C           1     -15.658  -9.956  -3.549  0.00  0.00     0.001 A 
HETATM   37  C           1     -16.830  -9.430  -2.992  0.00  0.00     0.014 A 
ENDBRANCH  27  28
ENDBRANCH  23  27
ENDBRANCH   1  23
TORSDOF 11
ENDMDL
MODEL 2
REMARK VINA RESULT:      -9.3      2.128      3.925
REMARK  11 active torsions:
REMARK  status: ('A' for Active; 'I' for Inactive)
REMARK    1  A    between atoms: N_2  and  C_26 
REMARK       I    between atoms: N_2  and  C_3 
REMARK    2  A    between atoms: C_3  and  C_4 
REMARK    3  A    between atoms: C_4  and  C_5 
REMARK    4  A    between atoms: C_4  and  N_17 
REMARK    5  A    between atoms: C_5  and  C_6 
REMARK    6  A    between atoms: C_9  and  O_10 
REMARK    7  A    between atoms: O_10  and  P_11 
REMARK    8  A    between atoms: P_11  and  O_12 
REMARK    9  A    between atoms: C_24  and  C_26 
REMARK   10  A    between atoms: C_26  and  C_27 
REMARK   11  A    between atoms: C_27  and  C_28 
ROOT
HETATM    1  N           1     -20.757  -8.419  -4.326  0.00  0.00    -0.344 N 
HETATM    2  C           1     -21.198  -7.520  -5.259  0.00  0.00     0.249 C 
HETATM    3  O           1     -21.422  -7.884  -6.390  0.00  0.00    -0.271 OA
HETATM    4  H           1     -21.423  -8.930  -3.760  0.00  0.00     0.163 HD
ENDROOT
BRANCH   2   5
HETATM    5  C           1     -21.408  -6.076  -4.876  0.00  0.00     0.278 C 
BRANCH   5   6
HETATM    6  C           1     -20.368  -5.209  -5.573  0.00  0.00     0.081 C 
BRANCH   6   7
HETATM    7  C           1     -20.886  -4.787  -6.913  0.00  0.00    -0.056 A 
HETATM    8  C           1     -22.208  -4.364  -7.047  0.00  0.00     0.010 A 
HETATM    9  C           1     -22.691  -3.972  -8.296  0.00  0.00     0.038 A 
HETATM   10  C           1     -21.851  -4.002  -9.409  0.00  0.00     0.081 A 
HETATM   11  C           1     -20.529  -4.425  -9.275  0.00  0.00     0.038 A 
HETATM   12  C           1     -20.047  -4.818  -8.026  0.00  0.00     0.010 A 
BRANCH  10  13
HETATM   13  O           1     -22.321  -3.621 -10.622  0.00  0.00    -0.247 OA
BRANCH  13  14
HETATM   14  P           1     -23.680  -4.308 -11.159  0.00  0.00     0.411 P 
HETATM   15  O           1     -23.970  -5.518 -10.359  0.00  0.00    -0.624 OA
HETATM   16  O           1     -24.800  -3.349 -11.029  0.00  0.00    -0.624 OA
BRANCH  14  17
HETATM   17  O           1     -23.501  -4.718 -12.711  0.00  0.00    -0.300 OA
HETATM   18  H           1     -24.340  -5.059 -12.971  0.00  0.00     0.223 HD
ENDBRANCH  14  17
ENDBRANCH  13  14
ENDBRANCH  10  13
ENDBRANCH   6   7
ENDBRANCH   5   6
BRANCH   5  19
HETATM   19  N           1     -21.265  -5.929  -3.389  0.00  0.00    -0.066 N 
HETATM   20  H           1     -21.087  -6.866  -2.963  0.00  0.00     0.275 HD
HETATM   21  H           1     -20.463  -5.293  -3.178  0.00  0.00     0.275 HD
HETATM   22  H           1     -22.144  -5.526  -2.992  0.00  0.00     0.275 HD
ENDBRANCH   5  19
ENDBRANCH   2   5
BRANCH   1  23
HETATM   23  C           1     -19.335  -8.639  -4.148  0.00  0.00     0.190 C 
BRANCH  23  24
HETATM   24  C           1     -18.875  -9.733  -5.081  0.00  0.00     0.197 C 
HETATM   25  O           1     -19.714 -10.401  -5.722  0.00  0.00    -0.646 OA
HETATM   26  O           1     -17.655  -9.971  -5.211  0.00  0.00    -0.646 OA
ENDBRANCH  23  24
BRANCH  23  27
HETATM   27  C           1     -19.061  -9.051  -2.708  0.00  0.00     0.077 C 
BRANCH  27  28
HETATM   28  C           1     -20.260  -9.753  -2.152  0.00  0.00    -0.028 A 
HETATM   29  C           1     -20.628 -11.055  -2.405  0.00  0.00     0.096 A 
HETATM   30  N           1     -21.779 -11.308  -1.707  0.00  0.00    -0.365 N 
HETATM   31  H           1     -22.293 -12.224  -1.710  0.00  0.00     0.165 HD
HETATM   32  C           1     -22.165 -10.189  -1.004  0.00  0.00     0.042 A 
HETATM   33  C           1     -23.266  -9.985  -0.162  0.00  0.00     0.030 A 
HETATM   34  C           1     -21.224  -9.194  -1.267  0.00  0.00    -0.002 A 
HETATM   35  C           1     -23.404  -8.724   0.426  0.00  0.00     0.002 A 
HETATM   36  C           1     -22.479  -7.712   0.181  0.00  0.00     0.001 A 
HETATM   37  C           1     -21.384  -7.933  -0.663  0.00  0.00     0.014 A 
ENDBRANCH  27  28
ENDBRANCH  23  27
ENDBRANCH   1  23
TORSDOF 11
ENDMDL
MODEL 3
REMARK VINA RESULT:      -8.5     14.268     16.939
REMARK  11 active torsions:
REMARK  status: ('A' for Active; 'I' for Inactive)
REMARK    1  A    between atoms: N_2  and  C_26 
REMARK       I    between atoms: N_2  and  C_3 
REMARK    2  A    between atoms: C_3  and  C_4 
REMARK    3  A    between atoms: C_4  and  C_5 
REMARK    4  A    between atoms: C_4  and  N_17 
REMARK    5  A    between atoms: C_5  and  C_6 
REMARK    6  A    between atoms: C_9  and  O_10 
REMARK    7  A    between atoms: O_10  and  P_11 
REMARK    8  A    between atoms: P_11  and  O_12 
REMARK    9  A    between atoms: C_24  and  C_26 
REMARK   10  A    between atoms: C_26  and  C_27 
REMARK   11  A    between atoms: C_27  and  C_28 
ROOT
HETATM    1  N           1     -34.678  -1.133 -15.735  0.00  0.00    -0.344 N 
HETATM    2  C           1     -34.591  -2.181 -16.613  0.00  0.00     0.249 C 
HETATM    3  O           1     -35.252  -2.177 -17.625  0.00  0.00    -0.271 OA
HETATM    4  H           1     -34.059  -0.338 -15.834  0.00  0.00     0.163 HD
ENDROOT
BRANCH   2   5
HETATM    5  C           1     -33.670  -3.339 -16.317  0.00  0.00     0.278 C 
BRANCH   5   6
HETATM    6  C           1     -32.843  -3.659 -17.556  0.00  0.00     0.081 C 
BRANCH   6   7
HETATM    7  C           1     -31.440  -3.987 -17.148  0.00  0.00    -0.056 A 
HETATM    8  C           1     -30.374  -3.247 -17.659  0.00  0.00     0.010 A 
HETATM    9  C           1     -29.067  -3.554 -17.279  0.00  0.00     0.038 A 
HETATM   10  C           1     -28.827  -4.600 -16.388  0.00  0.00     0.081 A 
HETATM   11  C           1     -29.893  -5.340 -15.877  0.00  0.00     0.038 A 
HETATM   12  C           1     -31.200  -5.033 -16.257  0.00  0.00     0.010 A 
BRANCH  10  13
HETATM   13  O           1     -27.557  -4.898 -16.019  0.00  0.00    -0.247 OA
BRANCH  13  14
HETATM   14  P           1     -26.935  -6.304 -16.512  0.00  0.00     0.411 P 
HETATM   15  O           1     -25.483  -6.143 -16.753  0.00  0.00    -0.624 OA
HETATM   16  O           1     -27.153  -7.332 -15.470  0.00  0.00    -0.624 OA
BRANCH  14  17
HETATM   17  O           1     -27.659  -6.764 -17.881  0.00  0.00    -0.300 OA
HETATM   18  H           1     -27.829  -5.964 -18.347  0.00  0.00     0.223 HD
ENDBRANCH  14  17
ENDBRANCH  13  14
ENDBRANCH  10  13
ENDBRANCH   6   7
ENDBRANCH   5   6
BRANCH   5  19
HETATM   19  N           1     -34.485  -4.540 -15.938  0.00  0.00    -0.066 N 
HETATM   20  H           1     -35.158  -4.761 -16.707  0.00  0.00     0.275 HD
HETATM   21  H           1     -33.851  -5.357 -15.786  0.00  0.00     0.275 HD
HETATM   22  H           1     -35.013  -4.340 -15.059  0.00  0.00     0.275 HD
ENDBRANCH   5  19
ENDBRANCH   2   5
BRANCH   1  23
HETATM   23  C           1     -35.654  -1.164 -14.664  0.00  0.00     0.190 C 
BRANCH  23  24
HETATM   24  C           1     -36.824  -0.281 -15.025  0.00  0.00     0.197 C 
HETATM   25  O           1     -37.941  -0.480 -14.502  0.00  0.00    -0.646 OA
HETATM   26  O           1     -36.676   0.648 -15.847  0.00  0.00    -0.646 OA
ENDBRANCH  23  24
BRANCH  23  27
HETATM   27  C           1     -35.013  -0.659 -13.379  0.00  0.00     0.077 C 
BRANCH  27  28
HETATM   28  C           1     -35.271  -1.635 -12.274  0.00  0.00    -0.028 A 
HETATM   29  C           1     -36.250  -1.531 -11.312  0.00  0.00     0.096 A 
HETATM   30  N           1     -36.150  -2.624 -10.493  0.00  0.00    -0.365 N 
HETATM   31  H           1     -36.770  -2.814  -9.666  0.00  0.00     0.165 HD
HETATM   32  C           1     -35.120  -3.438 -10.908  0.00  0.00     0.042 A 
HETATM   33  C           1     -34.655  -4.649 -10.381  0.00  0.00     0.030 A 
HETATM   34  C           1     -34.550  -2.836 -12.030  0.00  0.00    -0.002 A 
HETATM   35  C           1     -33.574  -5.260 -11.024  0.00  0.00     0.002 A 
HETATM   36  C           1     -32.985  -4.682 -12.146  0.00  0.00     0.001 A 
HETATM   37  C           1     -33.463  -3.471 -12.660  0.00  0.00     0.014 A 
ENDBRANCH  27  28
ENDBRANCH  23  27
ENDBRANCH   1  23
TORSDOF 11
ENDMDL
MODEL 4
REMARK VINA RESULT:      -8.3      4.708      9.345
REMARK  11 active torsions:
REMARK  status: ('A' for Active; 'I' for Inactive)
REMARK    1  A    between atoms: N_2  and  C_26 
REMARK       I    between atoms: N_2  and  C_3 
REMARK    2  A    between atoms: C_3  and  C_4 
REMARK    3  A    between atoms: C_4  and  C_5 
REMARK    4  A    between atoms: C_4  and  N_17 
REMARK    5  A    between atoms: C_5  and  C_6 
REMARK    6  A    between atoms: C_9  and  O_10 
REMARK    7  A    between atoms: O_10  and  P_11 
REMARK    8  A    between atoms: P_11  and  O_12 
REMARK    9  A    between atoms: C_24  and  C_26 
REMARK   10  A    between atoms: C_26  and  C_27 
REMARK   11  A    between atoms: C_27  and  C_28 
ROOT
HETATM    1  N           1     -22.457  -6.617  -4.234  0.00  0.00    -0.344 N 
HETATM    2  C           1     -21.616  -6.714  -3.158  0.00  0.00     0.249 C 
HETATM    3  O           1     -21.076  -5.725  -2.723  0.00  0.00    -0.271 OA
HETATM    4  H           1     -23.445  -6.449  -4.091  0.00  0.00     0.163 HD
ENDROOT
BRANCH   2   5
HETATM    5  C           1     -21.366  -8.056  -2.514  0.00  0.00     0.278 C 
BRANCH   5   6
HETATM    6  C           1     -21.674  -7.969  -1.024  0.00  0.00     0.081 C 
BRANCH   6   7
HETATM    7  C           1     -21.961  -9.340  -0.494  0.00  0.00    -0.056 A 
HETATM    8  C           1     -23.230  -9.897  -0.652  0.00  0.00     0.010 A 
HETATM    9  C           1     -23.498 -11.173  -0.157  0.00  0.00     0.038 A 
HETATM   10  C           1     -22.496 -11.893   0.494  0.00  0.00     0.081 A 
HETATM   11  C           1     -21.227 -11.336   0.652  0.00  0.00     0.038 A 
HETATM   12  C           1     -20.960 -10.059   0.158  0.00  0.00     0.010 A 
BRANCH  10  13
HETATM   13  O           1     -22.756 -13.133   0.975  0.00  0.00    -0.247 OA
BRANCH  13  14
HETATM   14  P           1     -22.845 -14.353  -0.080  0.00  0.00     0.411 P 
HETATM   15  O           1     -21.954 -14.075  -1.229  0.00  0.00    -0.624 OA
HETATM   16  O           1     -22.422 -15.607   0.582  0.00  0.00    -0.624 OA
BRANCH  14  17
HETATM   17  O           1     -24.366 -14.504  -0.602  0.00  0.00    -0.300 OA
HETATM   18  H           1     -24.525 -13.732  -1.116  0.00  0.00     0.223 HD
ENDBRANCH  14  17
ENDBRANCH  13  14
ENDBRANCH  10  13
ENDBRANCH   6   7
ENDBRANCH   5   6
BRANCH   5  19
HETATM   19  N           1     -19.928  -8.440  -2.704  0.00  0.00    -0.066 N 
HETATM   20  H           1     -19.593  -8.086  -3.629  0.00  0.00     0.275 HD
HETATM   21  H           1     -19.351  -8.018  -1.941  0.00  0.00     0.275 HD
HETATM   22  H           1     -19.838  -9.480  -2.675  0.00  0.00     0.275 HD
ENDBRANCH   5  19
ENDBRANCH   2   5
BRANCH   1  23
HETATM   23  C           1     -21.932  -6.757  -5.578  0.00  0.00     0.190 C 
BRANCH  23  24
HETATM   24  C           1     -20.911  -7.868  -5.607  0.00  0.00     0.197 C 
HETATM   25  O           1     -21.284  -9.059  -5.574  0.00  0.00    -0.646 OA
HETATM   26  O           1     -19.693  -7.595  -5.661  0.00  0.00    -0.646 OA
ENDBRANCH  23  24
BRANCH  23  27
HETATM   27  C           1     -21.275  -5.450  -6.004  0.00  0.00     0.077 C 
BRANCH  27  28
HETATM   28  C           1     -22.039  -4.854  -7.144  0.00  0.00    -0.028 A 
HETATM   29  C           1     -23.358  -4.460  -7.119  0.00  0.00     0.096 A 
HETATM   30  N           1     -23.672  -3.969  -8.358  0.00  0.00    -0.365 N 
HETATM   31  H           1     -24.613  -3.594  -8.634  0.00  0.00     0.165 HD
HETATM   32  C           1     -22.577  -4.039  -9.189  0.00  0.00     0.042 A 
HETATM   33  C           1     -22.432  -3.656 -10.529  0.00  0.00     0.030 A 
HETATM   34  C           1     -21.534  -4.593  -8.448  0.00  0.00    -0.002 A 
HETATM   35  C           1     -21.181  -3.848 -11.123  0.00  0.00     0.002 A 
HETATM   36  C           1     -20.122  -4.400 -10.407  0.00  0.00     0.001 A 
HETATM   37  C           1     -20.284  -4.777  -9.068  0.00  0.00     0.014 A 
ENDBRANCH  27  28
ENDBRANCH  23  27
ENDBRANCH   1  23
TORSDOF 11
ENDMDL
MODEL 5
REMARK VINA RESULT:      -8.3      4.850      8.771
REMARK  11 active torsions:
REMARK  status: ('A' for Active; 'I' for Inactive)
REMARK    1  A    between atoms: N_2  and  C_26 
REMARK       I    between atoms: N_2  and  C_3 
REMARK    2  A    between atoms: C_3  and  C_4 
REMARK    3  A    between atoms: C_4  and  C_5 
REMARK    4  A    between atoms: C_4  and  N_17 
REMARK    5  A    between atoms: C_5  and  C_6 
REMARK    6  A    between atoms: C_9  and  O_10 
REMARK    7  A    between atoms: O_10  and  P_11 
REMARK    8  A    between atoms: P_11  and  O_12 
REMARK    9  A    between atoms: C_24  and  C_26 
REMARK   10  A    between atoms: C_26  and  C_27 
REMARK   11  A    between atoms: C_27  and  C_28 
ROOT
HETATM    1  N           1     -20.313  -7.859  -3.988  0.00  0.00    -0.344 N 
HETATM    2  C           1     -20.414  -8.726  -5.043  0.00  0.00     0.249 C 
HETATM    3  O           1     -21.166  -8.481  -5.956  0.00  0.00    -0.271 OA
HETATM    4  H           1     -19.633  -7.109  -4.012  0.00  0.00     0.163 HD
ENDROOT
BRANCH   2   5
HETATM    5  C           1     -19.584  -9.987  -5.065  0.00  0.00     0.278 C 
BRANCH   5   6
HETATM    6  C           1     -18.107  -9.622  -5.127  0.00  0.00     0.081 C 
BRANCH   6   7
HETATM    7  C           1     -17.356 -10.403  -4.093  0.00  0.00    -0.056 A 
HETATM    8  C           1     -16.630  -9.735  -3.107  0.00  0.00     0.010 A 
HETATM    9  C           1     -15.930 -10.463  -2.144  0.00  0.00     0.038 A 
HETATM   10  C           1     -15.957 -11.858  -2.168  0.00  0.00     0.081 A 
HETATM   11  C           1     -16.682 -12.524  -3.155  0.00  0.00     0.038 A 
HETATM   12  C           1     -17.382 -11.796  -4.117  0.00  0.00     0.010 A 
BRANCH  10  13
HETATM   13  O           1     -15.277 -12.565  -1.233  0.00  0.00    -0.247 OA
BRANCH  13  14
HETATM   14  P           1     -16.015 -12.874   0.170  0.00  0.00     0.411 P 
HETATM   15  O           1     -17.447 -13.152  -0.078  0.00  0.00    -0.624 OA
HETATM   16  O           1     -15.385 -14.052   0.808  0.00  0.00    -0.624 OA
BRANCH  14  17
HETATM   17  O           1     -15.875 -11.595   1.146  0.00  0.00    -0.300 OA
HETATM   18  H           1     -16.059 -11.925   2.008  0.00  0.00     0.223 HD
ENDBRANCH  14  17
ENDBRANCH  13  14
ENDBRANCH  10  13
ENDBRANCH   6   7
ENDBRANCH   5   6
BRANCH   5  19
HETATM   19  N           1     -19.947 -10.801  -6.272  0.00  0.00    -0.066 N 
HETATM   20  H           1     -19.088 -10.990  -6.835  0.00  0.00     0.275 HD
HETATM   21  H           1     -20.369 -11.708  -5.966  0.00  0.00     0.275 HD
HETATM   22  H           1     -20.637 -10.274  -6.853  0.00  0.00     0.275 HD
ENDBRANCH   5  19
ENDBRANCH   2   5
BRANCH   1  23
HETATM   23  C           1     -21.180  -8.015  -2.836  0.00  0.00     0.190 C 
BRANCH  23  24
HETATM   24  C           1     -21.937  -6.732  -2.599  0.00  0.00     0.197 C 
HETATM   25  O           1     -22.293  -6.421  -1.442  0.00  0.00    -0.646 OA
HETATM   26  O           1     -22.209  -5.980  -3.559  0.00  0.00    -0.646 OA
ENDBRANCH  23  24
BRANCH  23  27
HETATM   27  C           1     -20.339  -8.344  -1.610  0.00  0.00     0.077 C 
BRANCH  27  28
HETATM   28  C           1     -20.542  -9.777  -1.233  0.00  0.00    -0.028 A 
HETATM   29  C           1     -19.598 -10.777  -1.304  0.00  0.00     0.096 A 
HETATM   30  N           1     -20.183 -11.937  -0.870  0.00  0.00    -0.365 N 
HETATM   31  H           1     -19.700 -12.868  -0.814  0.00  0.00     0.165 HD
HETATM   32  C           1     -21.494 -11.706  -0.518  0.00  0.00     0.042 A 
HETATM   33  C           1     -22.467 -12.586  -0.027  0.00  0.00     0.030 A 
HETATM   34  C           1     -21.745 -10.352  -0.738  0.00  0.00    -0.002 A 
HETATM   35  C           1     -23.733 -12.061   0.247  0.00  0.00     0.002 A 
HETATM   36  C           1     -24.012 -10.712   0.037  0.00  0.00     0.001 A 
HETATM   37  C           1     -23.028  -9.846  -0.454  0.00  0.00     0.014 A 
ENDBRANCH  27  28
ENDBRANCH  23  27
ENDBRANCH   1  23
TORSDOF 11
ENDMDL
MODEL 6
REMARK VINA RESULT:      -8.2      3.968      5.727
REMARK  11 active torsions:
REMARK  status: ('A' for Active; 'I' for Inactive)
REMARK    1  A    between atoms: N_2  and  C_26 
REMARK       I    between atoms: N_2  and  C_3 
REMARK    2  A    between atoms: C_3  and  C_4 
REMARK    3  A    between atoms: C_4  and  C_5 
REMARK    4  A    between atoms: C_4  and  N_17 
REMARK    5  A    between atoms: C_5  and  C_6 
REMARK    6  A    between atoms: C_9  and  O_10 
REMARK    7  A    between atoms: O_10  and  P_11 
REMARK    8  A    between atoms: P_11  and  O_12 
REMARK    9  A    between atoms: C_24  and  C_26 
REMARK   10  A    between atoms: C_26  and  C_27 
REMARK   11  A    between atoms: C_27  and  C_28 
ROOT
HETATM    1  N           1     -20.439 -11.331   0.421  0.00  0.00    -0.344 N 
HETATM    2  C           1     -21.796 -11.515   0.404  0.00  0.00     0.249 C 
HETATM    3  O           1     -22.286 -12.450   0.992  0.00  0.00    -0.271 OA
HETATM    4  H           1     -20.014 -10.770   1.148  0.00  0.00     0.163 HD
ENDROOT
BRANCH   2   5
HETATM    5  C           1     -22.679 -10.549  -0.347  0.00  0.00     0.278 C 
BRANCH   5   6
HETATM    6  C           1     -22.441  -9.136   0.170  0.00  0.00     0.081 C 
BRANCH   6   7
HETATM    7  C           1     -22.059  -8.245  -0.971  0.00  0.00    -0.056 A 
HETATM    8  C           1     -21.430  -8.782  -2.094  0.00  0.00     0.010 A 
HETATM    9  C           1     -21.074  -7.951  -3.157  0.00  0.00     0.038 A 
HETATM   10  C           1     -21.348  -6.585  -3.097  0.00  0.00     0.081 A 
HETATM   11  C           1     -21.977  -6.048  -1.974  0.00  0.00     0.038 A 
HETATM   12  C           1     -22.333  -6.879  -0.911  0.00  0.00     0.010 A 
BRANCH  10  13
HETATM   13  O           1     -21.002  -5.778  -4.129  0.00  0.00    -0.247 OA
BRANCH  13  14
HETATM   14  P           1     -21.748  -5.995  -5.545  0.00  0.00     0.411 P 
HETATM   15  O           1     -23.199  -6.178  -5.314  0.00  0.00    -0.624 OA
HETATM   16  O           1     -21.530  -4.809  -6.403  0.00  0.00    -0.624 OA
BRANCH  14  17
HETATM   17  O           1     -21.150  -7.305  -6.275  0.00  0.00    -0.300 OA
HETATM   18  H           1     -21.824  -7.580  -6.873  0.00  0.00     0.223 HD
ENDBRANCH  14  17
ENDBRANCH  13  14
ENDBRANCH  10  13
ENDBRANCH   6   7
ENDBRANCH   5   6
BRANCH   5  19
HETATM   19  N           1     -24.117 -10.921  -0.136  0.00  0.00    -0.066 N 
HETATM   20  H           1     -24.224 -11.383   0.795  0.00  0.00     0.275 HD
HETATM   21  H           1     -24.708 -10.059  -0.167  0.00  0.00     0.275 HD
HETATM   22  H           1     -24.421 -11.580  -0.888  0.00  0.00     0.275 HD
ENDBRANCH   5  19
ENDBRANCH   2   5
BRANCH   1  23
HETATM   23  C           1     -19.613 -11.939  -0.603  0.00  0.00     0.190 C 
BRANCH  23  24
HETATM   24  C           1     -18.725 -12.987   0.023  0.00  0.00     0.197 C 
HETATM   25  O           1     -19.034 -14.194  -0.055  0.00  0.00    -0.646 OA
HETATM   26  O           1     -17.682 -12.646   0.620  0.00  0.00    -0.646 OA
ENDBRANCH  23  24
BRANCH  23  27
HETATM   27  C           1     -18.752 -10.869  -1.261  0.00  0.00     0.077 C 
BRANCH  27  28
HETATM   28  C           1     -18.707 -11.101  -2.738  0.00  0.00    -0.028 A 
HETATM   29  C           1     -19.636 -11.796  -3.479  0.00  0.00     0.096 A 
HETATM   30  N           1     -19.228 -11.777  -4.787  0.00  0.00    -0.365 N 
HETATM   31  H           1     -19.743 -12.230  -5.582  0.00  0.00     0.165 HD
HETATM   32  C           1     -18.047 -11.079  -4.907  0.00  0.00     0.042 A 
HETATM   33  C           1     -17.270 -10.805  -6.039  0.00  0.00     0.030 A 
HETATM   34  C           1     -17.697 -10.643  -3.629  0.00  0.00    -0.002 A 
HETATM   35  C           1     -16.101 -10.061  -5.855  0.00  0.00     0.002 A 
HETATM   36  C           1     -15.727  -9.612  -4.590  0.00  0.00     0.001 A 
HETATM   37  C           1     -16.515  -9.895  -3.469  0.00  0.00     0.014 A 
ENDBRANCH  27  28
ENDBRANCH  23  27
ENDBRANCH   1  23
TORSDOF 11
ENDMDL
MODEL 7
REMARK VINA RESULT:      -8.2      4.748      9.403
REMARK  11 active torsions:
REMARK  status: ('A' for Active; 'I' for Inactive)
REMARK    1  A    between atoms: N_2  and  C_26 
REMARK       I    between atoms: N_2  and  C_3 
REMARK    2  A    between atoms: C_3  and  C_4 
REMARK    3  A    between atoms: C_4  and  C_5 
REMARK    4  A    between atoms: C_4  and  N_17 
REMARK    5  A    between atoms: C_5  and  C_6 
REMARK    6  A    between atoms: C_9  and  O_10 
REMARK    7  A    between atoms: O_10  and  P_11 
REMARK    8  A    between atoms: P_11  and  O_12 
REMARK    9  A    between atoms: C_24  and  C_26 
REMARK   10  A    between atoms: C_26  and  C_27 
REMARK   11  A    between atoms: C_27  and  C_28 
ROOT
HETATM    1  N           1     -22.581  -6.763  -3.980  0.00  0.00    -0.344 N 
HETATM    2  C           1     -22.000  -6.667  -2.744  0.00  0.00     0.249 C 
HETATM    3  O           1     -21.875  -5.587  -2.217  0.00  0.00    -0.271 OA
HETATM    4  H           1     -23.582  -6.890  -4.060  0.00  0.00     0.163 HD
ENDROOT
BRANCH   2   5
HETATM    5  C           1     -21.519  -7.911  -2.038  0.00  0.00     0.278 C 
BRANCH   5   6
HETATM    6  C           1     -22.147  -7.985  -0.652  0.00  0.00     0.081 C 
BRANCH   6   7
HETATM    7  C           1     -22.242  -9.416  -0.223  0.00  0.00    -0.056 A 
HETATM    8  C           1     -21.152 -10.033   0.391  0.00  0.00     0.010 A 
HETATM    9  C           1     -21.240 -11.367   0.790  0.00  0.00     0.038 A 
HETATM   10  C           1     -22.419 -12.082   0.577  0.00  0.00     0.081 A 
HETATM   11  C           1     -23.508 -11.465  -0.036  0.00  0.00     0.038 A 
HETATM   12  C           1     -23.420 -10.131  -0.436  0.00  0.00     0.010 A 
BRANCH  10  13
HETATM   13  O           1     -22.504 -13.378   0.966  0.00  0.00    -0.247 OA
BRANCH  13  14
HETATM   14  P           1     -21.744 -14.489   0.073  0.00  0.00     0.411 P 
HETATM   15  O           1     -22.488 -15.766   0.138  0.00  0.00    -0.624 OA
HETATM   16  O           1     -21.673 -14.028  -1.331  0.00  0.00    -0.624 OA
BRANCH  14  17
HETATM   17  O           1     -20.249 -14.708   0.644  0.00  0.00    -0.300 OA
HETATM   18  H           1     -19.965 -15.527   0.275  0.00  0.00     0.223 HD
ENDBRANCH  14  17
ENDBRANCH  13  14
ENDBRANCH  10  13
ENDBRANCH   6   7
ENDBRANCH   5   6
BRANCH   5  19
HETATM   19  N           1     -20.025  -7.862  -1.905  0.00  0.00    -0.066 N 
HETATM   20  H           1     -19.590  -7.928  -2.853  0.00  0.00     0.275 HD
HETATM   21  H           1     -19.745  -6.961  -1.456  0.00  0.00     0.275 HD
HETATM   22  H           1     -19.701  -8.662  -1.316  0.00  0.00     0.275 HD
ENDBRANCH   5  19
ENDBRANCH   2   5
BRANCH   1  23
HETATM   23  C           1     -21.762  -6.682  -5.173  0.00  0.00     0.190 C 
BRANCH  23  24
HETATM   24  C           1     -20.882  -7.906  -5.262  0.00  0.00     0.197 C 
HETATM   25  O           1     -21.355  -8.986  -5.673  0.00  0.00    -0.646 OA
HETATM   26  O           1     -19.681  -7.837  -4.925  0.00  0.00    -0.646 OA
ENDBRANCH  23  24
BRANCH  23  27
HETATM   27  C           1     -20.892  -5.434  -5.108  0.00  0.00     0.077 C 
BRANCH  27  28
HETATM   28  C           1     -20.575  -4.972  -6.496  0.00  0.00    -0.028 A 
HETATM   29  C           1     -19.318  -4.850  -7.043  0.00  0.00     0.096 A 
HETATM   30  N           1     -19.463  -4.399  -8.328  0.00  0.00    -0.365 N 
HETATM   31  H           1     -18.670  -4.213  -8.992  0.00  0.00     0.165 HD
HETATM   32  C           1     -20.796  -4.226  -8.625  0.00  0.00     0.042 A 
HETATM   33  C           1     -21.411  -3.787  -9.804  0.00  0.00     0.030 A 
HETATM   34  C           1     -21.519  -4.581  -7.485  0.00  0.00    -0.002 A 
HETATM   35  C           1     -22.807  -3.710  -9.814  0.00  0.00     0.002 A 
HETATM   36  C           1     -23.554  -4.057  -8.691  0.00  0.00     0.001 A 
HETATM   37  C           1     -22.923  -4.495  -7.520  0.00  0.00     0.014 A 
ENDBRANCH  27  28
ENDBRANCH  23  27
ENDBRANCH   1  23
TORSDOF 11
ENDMDL
MODEL 8
REMARK VINA RESULT:      -7.9      4.875      9.202
REMARK  11 active torsions:
REMARK  status: ('A' for Active; 'I' for Inactive)
REMARK    1  A    between atoms: N_2  and  C_26 
REMARK       I    between atoms: N_2  and  C_3 
REMARK    2  A    between atoms: C_3  and  C_4 
REMARK    3  A    between atoms: C_4  and  C_5 
REMARK    4  A    between atoms: C_4  and  N_17 
REMARK    5  A    between atoms: C_5  and  C_6 
REMARK    6  A    between atoms: C_9  and  O_10 
REMARK    7  A    between atoms: O_10  and  P_11 
REMARK    8  A    between atoms: P_11  and  O_12 
REMARK    9  A    between atoms: C_24  and  C_26 
REMARK   10  A    between atoms: C_26  and  C_27 
REMARK   11  A    between atoms: C_27  and  C_28 
ROOT
HETATM    1  N           1     -19.977  -7.661  -3.862  0.00  0.00    -0.344 N 
HETATM    2  C           1     -19.853  -8.500  -4.936  0.00  0.00     0.249 C 
HETATM    3  O           1     -20.235  -8.146  -6.026  0.00  0.00    -0.271 OA
HETATM    4  H           1     -19.230  -7.017  -3.634  0.00  0.00     0.163 HD
ENDROOT
BRANCH   2   5
HETATM    5  C           1     -19.239  -9.867  -4.759  0.00  0.00     0.278 C 
BRANCH   5   6
HETATM    6  C           1     -17.784  -9.719  -4.334  0.00  0.00     0.081 C 
BRANCH   6   7
HETATM    7  C           1     -17.568 -10.432  -3.035  0.00  0.00    -0.056 A 
HETATM    8  C           1     -16.274 -10.609  -2.543  0.00  0.00     0.010 A 
HETATM    9  C           1     -16.073 -11.274  -1.333  0.00  0.00     0.038 A 
HETATM   10  C           1     -17.166 -11.761  -0.616  0.00  0.00     0.081 A 
HETATM   11  C           1     -18.459 -11.585  -1.108  0.00  0.00     0.038 A 
HETATM   12  C           1     -18.659 -10.920  -2.318  0.00  0.00     0.010 A 
BRANCH  10  13
HETATM   13  O           1     -16.970 -12.408   0.559  0.00  0.00    -0.247 OA
BRANCH  13  14
HETATM   14  P           1     -16.412 -13.923   0.508  0.00  0.00     0.411 P 
HETATM   15  O           1     -16.911 -14.671   1.683  0.00  0.00    -0.624 OA
HETATM   16  O           1     -16.882 -14.579  -0.733  0.00  0.00    -0.624 OA
BRANCH  14  17
HETATM   17  O           1     -14.797 -13.903   0.527  0.00  0.00    -0.300 OA
HETATM   18  H           1     -14.545 -14.794   0.698  0.00  0.00     0.223 HD
ENDBRANCH  14  17
ENDBRANCH  13  14
ENDBRANCH  10  13
ENDBRANCH   6   7
ENDBRANCH   5   6
BRANCH   5  19
HETATM   19  N           1     -19.305 -10.616  -6.058  0.00  0.00    -0.066 N 
HETATM   20  H           1     -18.764 -11.506  -5.974  0.00  0.00     0.275 HD
HETATM   21  H           1     -20.302 -10.835  -6.282  0.00  0.00     0.275 HD
HETATM   22  H           1     -18.896 -10.029  -6.819  0.00  0.00     0.275 HD
ENDBRANCH   5  19
ENDBRANCH   2   5
BRANCH   1  23
HETATM   23  C           1     -21.178  -7.695  -3.050  0.00  0.00     0.190 C 
BRANCH  23  24
HETATM   24  C           1     -21.948  -6.410  -3.237  0.00  0.00     0.197 C 
HETATM   25  O           1     -22.501  -6.167  -4.331  0.00  0.00    -0.646 OA
HETATM   26  O           1     -22.031  -5.589  -2.299  0.00  0.00    -0.646 OA
ENDBRANCH  23  24
BRANCH  23  27
HETATM   27  C           1     -20.795  -7.849  -1.584  0.00  0.00     0.077 C 
BRANCH  27  28
HETATM   28  C           1     -21.928  -8.478  -0.835  0.00  0.00    -0.028 A 
HETATM   29  C           1     -22.649  -7.897   0.183  0.00  0.00     0.096 A 
HETATM   30  N           1     -23.592  -8.800   0.597  0.00  0.00    -0.365 N 
HETATM   31  H           1     -24.289  -8.631   1.364  0.00  0.00     0.165 HD
HETATM   32  C           1     -23.494  -9.960  -0.137  0.00  0.00     0.042 A 
HETATM   33  C           1     -24.242 -11.142  -0.065  0.00  0.00     0.030 A 
HETATM   34  C           1     -22.452  -9.783  -1.047  0.00  0.00    -0.002 A 
HETATM   35  C           1     -23.911 -12.171  -0.952  0.00  0.00     0.002 A 
HETATM   36  C           1     -22.875 -12.021  -1.872  0.00  0.00     0.001 A 
HETATM   37  C           1     -22.138 -10.833  -1.931  0.00  0.00     0.014 A 
ENDBRANCH  27  28
ENDBRANCH  23  27
ENDBRANCH   1  23
TORSDOF 11
ENDMDL
MODEL 9
REMARK VINA RESULT:      -7.9      5.432      9.412
REMARK  11 active torsions:
REMARK  status: ('A' for Active; 'I' for Inactive)
REMARK    1  A    between atoms: N_2  and  C_26 
REMARK       I    between atoms: N_2  and  C_3 
REMARK    2  A    between atoms: C_3  and  C_4 
REMARK    3  A    between atoms: C_4  and  C_5 
REMARK    4  A    between atoms: C_4  and  N_17 
REMARK    5  A    between atoms: C_5  and  C_6 
REMARK    6  A    between atoms: C_9  and  O_10 
REMARK    7  A    between atoms: O_10  and  P_11 
REMARK    8  A    between atoms: P_11  and  O_12 
REMARK    9  A    between atoms: C_24  and  C_26 
REMARK   10  A    between atoms: C_26  and  C_27 
REMARK   11  A    between atoms: C_27  and  C_28 
ROOT
HETATM    1  N           1     -18.526 -10.048  -5.876  0.00  0.00    -0.344 N 
HETATM    2  C           1     -18.176 -11.170  -6.578  0.00  0.00     0.249 C 
HETATM    3  O           1     -18.813 -11.497  -7.551  0.00  0.00    -0.271 OA
HETATM    4  H           1     -18.128  -9.151  -6.125  0.00  0.00     0.163 HD
ENDROOT
BRANCH   2   5
HETATM    5  C           1     -16.993 -11.997  -6.138  0.00  0.00     0.278 C 
BRANCH   5   6
HETATM    6  C           1     -15.944 -11.089  -5.508  0.00  0.00     0.081 C 
BRANCH   6   7
HETATM    7  C           1     -15.783 -11.441  -4.061  0.00  0.00    -0.056 A 
HETATM    8  C           1     -16.004 -10.474  -3.081  0.00  0.00     0.010 A 
HETATM    9  C           1     -15.853 -10.801  -1.733  0.00  0.00     0.038 A 
HETATM   10  C           1     -15.483 -12.095  -1.367  0.00  0.00     0.081 A 
HETATM   11  C           1     -15.263 -13.062  -2.348  0.00  0.00     0.038 A 
HETATM   12  C           1     -15.413 -12.734  -3.696  0.00  0.00     0.010 A 
BRANCH  10  13
HETATM   13  O           1     -15.337 -12.413  -0.058  0.00  0.00    -0.247 OA
BRANCH  13  14
HETATM   14  P           1     -16.622 -12.992   0.731  0.00  0.00     0.411 P 
HETATM   15  O           1     -16.266 -13.223   2.149  0.00  0.00    -0.624 OA
HETATM   16  O           1     -17.729 -12.014   0.651  0.00  0.00    -0.624 OA
BRANCH  14  17
HETATM   17  O           1     -17.085 -14.385   0.058  0.00  0.00    -0.300 OA
HETATM   18  H           1     -17.745 -14.145  -0.569  0.00  0.00     0.223 HD
ENDBRANCH  14  17
ENDBRANCH  13  14
ENDBRANCH  10  13
ENDBRANCH   6   7
ENDBRANCH   5   6
BRANCH   5  19
HETATM   19  N           1     -16.401 -12.693  -7.328  0.00  0.00    -0.066 N 
HETATM   20  H           1     -15.382 -12.470  -7.389  0.00  0.00     0.275 HD
HETATM   21  H           1     -16.525 -13.726  -7.224  0.00  0.00     0.275 HD
HETATM   22  H           1     -16.882 -12.369  -8.196  0.00  0.00     0.275 HD
ENDBRANCH   5  19
ENDBRANCH   2   5
BRANCH   1  23
HETATM   23  C           1     -19.467 -10.145  -4.777  0.00  0.00     0.190 C 
BRANCH  23  24
HETATM   24  C           1     -20.875 -10.045  -5.310  0.00  0.00     0.197 C 
HETATM   25  O           1     -21.251  -9.005  -5.891  0.00  0.00    -0.646 OA
HETATM   26  O           1     -21.666 -11.002  -5.170  0.00  0.00    -0.646 OA
ENDBRANCH  23  24
BRANCH  23  27
HETATM   27  C           1     -19.214  -9.011  -3.792  0.00  0.00     0.077 C 
BRANCH  27  28
HETATM   28  C           1     -19.807  -9.361  -2.464  0.00  0.00    -0.028 A 
HETATM   29  C           1     -19.533 -10.490  -1.725  0.00  0.00     0.096 A 
HETATM   30  N           1     -20.279 -10.431  -0.578  0.00  0.00    -0.365 N 
HETATM   31  H           1     -20.275 -11.159   0.179  0.00  0.00     0.165 HD
HETATM   32  C           1     -21.034  -9.279  -0.559  0.00  0.00     0.042 A 
HETATM   33  C           1     -21.934  -8.803   0.402  0.00  0.00     0.030 A 
HETATM   34  C           1     -20.754  -8.587  -1.738  0.00  0.00    -0.002 A 
HETATM   35  C           1     -22.565  -7.582   0.147  0.00  0.00     0.002 A 
HETATM   36  C           1     -22.305  -6.869  -1.022  0.00  0.00     0.001 A 
HETATM   37  C           1     -21.402  -7.360  -1.972  0.00  0.00     0.014 A 
ENDBRANCH  27  28
ENDBRANCH  23  27
ENDBRANCH   1  23
TORSDOF 11
ENDMDL
