MODEL 1
REMARK VINA RESULT:      -6.4      0.000      0.000
REMARK  9 active torsions:
REMARK  status: ('A' for Active; 'I' for Inactive)
REMARK       I    between atoms: C_1  and  N_17 
REMARK    1  A    between atoms: C_1  and  C_2 
REMARK    2  A    between atoms: C_2  and  C_3 
REMARK    3  A    between atoms: C_2  and  N_7 
REMARK    4  A    between atoms: C_3  and  C_4 
REMARK    5  A    between atoms: C_13  and  C_22 
REMARK    6  A    between atoms: C_15  and  C_22 
REMARK    7  A    between atoms: C_15  and  C_21 
REMARK    8  A    between atoms: N_17  and  C_21 
REMARK    9  A    between atoms: C_20  and  C_21 
ROOT
HETATM    1  C           1     -26.317  -6.431 -18.552  0.00  0.00     0.249 C 
HETATM    2  O           1     -26.195  -6.120 -17.391  0.00  0.00    -0.271 OA
HETATM    3  H           1     -27.664  -6.946 -20.037  0.00  0.00     0.163 HD
HETATM    4  N           1     -27.561  -6.685 -19.064  0.00  0.00    -0.345 N 
ENDROOT
BRANCH   1   5
HETATM    5  C           1     -25.100  -6.537 -19.438  0.00  0.00     0.284 C 
BRANCH   5   6
HETATM    6  C           1     -25.528  -6.491 -20.899  0.00  0.00     0.155 C 
BRANCH   6   7
HETATM    7  C           1     -25.459  -7.879 -21.488  0.00  0.00     0.175 C 
HETATM    8  O           1     -26.425  -8.661 -21.359  0.00  0.00    -0.648 OA
HETATM    9  O           1     -24.436  -8.245 -22.107  0.00  0.00    -0.648 OA
ENDBRANCH   6   7
ENDBRANCH   5   6
BRANCH   5  10
HETATM   10  N           1     -24.396  -7.833 -19.165  0.00  0.00    -0.066 N 
HETATM   11  H           1     -24.500  -8.466 -19.990  0.00  0.00     0.275 HD
HETATM   12  H           1     -23.383  -7.649 -18.994  0.00  0.00     0.275 HD
HETATM   13  H           1     -24.816  -8.288 -18.323  0.00  0.00     0.275 HD
ENDBRANCH   5  10
ENDBRANCH   1   5
BRANCH   4  14
HETATM   14  C           1     -28.731  -6.583 -18.213  0.00  0.00     0.186 C 
BRANCH  14  15
HETATM   15  C           1     -29.412  -5.240 -18.448  0.00  0.00     0.046 C 
BRANCH  15  16
HETATM   16  C           1     -29.795  -4.624 -17.109  0.00  0.00     0.116 C 
BRANCH  16  17
HETATM   17  C           1     -31.214  -4.113 -17.177  0.00  0.00     0.172 C 
HETATM   18  O           1     -31.443  -2.964 -17.612  0.00  0.00    -0.648 OA
HETATM   19  O           1     -32.158  -4.839 -16.800  0.00  0.00    -0.648 OA
ENDBRANCH  16  17
ENDBRANCH  15  16
ENDBRANCH  14  15
BRANCH  14  20
HETATM   20  C           1     -29.691  -7.700 -18.542  0.00  0.00     0.196 C 
HETATM   21  O           1     -30.809  -7.745 -17.987  0.00  0.00    -0.646 OA
HETATM   22  O           1     -29.367  -8.578 -19.369  0.00  0.00    -0.646 OA
ENDBRANCH  14  20
ENDBRANCH   4  14
TORSDOF 9
ENDMDL
MODEL 2
REMARK VINA RESULT:      -6.0      1.938      6.232
REMARK  9 active torsions:
REMARK  status: ('A' for Active; 'I' for Inactive)
REMARK       I    between atoms: C_1  and  N_17 
REMARK    1  A    between atoms: C_1  and  C_2 
REMARK    2  A    between atoms: C_2  and  C_3 
REMARK    3  A    between atoms: C_2  and  N_7 
REMARK    4  A    between atoms: C_3  and  C_4 
REMARK    5  A    between atoms: C_13  and  C_22 
REMARK    6  A    between atoms: C_15  and  C_22 
REMARK    7  A    between atoms: C_15  and  C_21 
REMARK    8  A    between atoms: N_17  and  C_21 
REMARK    9  A    between atoms: C_20  and  C_21 
ROOT
HETATM    1  C           1     -28.633  -6.620 -17.338  0.00  0.00     0.249 C 
HETATM    2  O           1     -28.740  -7.672 -16.753  0.00  0.00    -0.271 OA
HETATM    3  H           1     -27.314  -5.313 -18.250  0.00  0.00     0.163 HD
HETATM    4  N           1     -27.404  -6.194 -17.761  0.00  0.00    -0.345 N 
ENDROOT
BRANCH   1   5
HETATM    5  C           1     -29.856  -5.777 -17.603  0.00  0.00     0.284 C 
BRANCH   5   6
HETATM    6  C           1     -29.454  -4.523 -18.367  0.00  0.00     0.155 C 
BRANCH   6   7
HETATM    7  C           1     -29.210  -3.396 -17.393  0.00  0.00     0.175 C 
HETATM    8  O           1     -28.142  -3.349 -16.746  0.00  0.00    -0.648 OA
HETATM    9  O           1     -30.076  -2.509 -17.234  0.00  0.00    -0.648 OA
ENDBRANCH   6   7
ENDBRANCH   5   6
BRANCH   5  10
HETATM   10  N           1     -30.486  -5.387 -16.299  0.00  0.00    -0.066 N 
HETATM   11  H           1     -29.912  -4.640 -15.845  0.00  0.00     0.275 HD
HETATM   12  H           1     -31.450  -5.026 -16.472  0.00  0.00     0.275 HD
HETATM   13  H           1     -30.532  -6.220 -15.670  0.00  0.00     0.275 HD
ENDBRANCH   5  10
ENDBRANCH   1   5
BRANCH   4  14
HETATM   14  C           1     -26.228  -7.005 -17.506  0.00  0.00     0.186 C 
BRANCH  14  15
HETATM   15  C           1     -25.172  -6.712 -18.564  0.00  0.00     0.046 C 
BRANCH  15  16
HETATM   16  C           1     -25.812  -6.750 -19.945  0.00  0.00     0.116 C 
BRANCH  16  17
HETATM   17  C           1     -25.133  -7.802 -20.787  0.00  0.00     0.172 C 
HETATM   18  O           1     -25.777  -8.406 -21.672  0.00  0.00    -0.648 OA
HETATM   19  O           1     -23.927  -8.071 -20.599  0.00  0.00    -0.648 OA
ENDBRANCH  16  17
ENDBRANCH  15  16
ENDBRANCH  14  15
BRANCH  14  20
HETATM   20  C           1     -25.677  -6.676 -16.139  0.00  0.00     0.196 C 
HETATM   21  O           1     -25.099  -5.585 -15.945  0.00  0.00    -0.646 OA
HETATM   22  O           1     -25.800  -7.494 -15.204  0.00  0.00    -0.646 OA
ENDBRANCH  14  20
ENDBRANCH   4  14
TORSDOF 9
ENDMDL
MODEL 3
REMARK VINA RESULT:      -5.8     12.777     14.579
REMARK  9 active torsions:
REMARK  status: ('A' for Active; 'I' for Inactive)
REMARK       I    between atoms: C_1  and  N_17 
REMARK    1  A    between atoms: C_1  and  C_2 
REMARK    2  A    between atoms: C_2  and  C_3 
REMARK    3  A    between atoms: C_2  and  N_7 
REMARK    4  A    between atoms: C_3  and  C_4 
REMARK    5  A    between atoms: C_13  and  C_22 
REMARK    6  A    between atoms: C_15  and  C_22 
REMARK    7  A    between atoms: C_15  and  C_21 
REMARK    8  A    between atoms: N_17  and  C_21 
REMARK    9  A    between atoms: C_20  and  C_21 
ROOT
HETATM    1  C           1     -21.131  -6.207  -6.044  0.00  0.00     0.249 C 
HETATM    2  O           1     -21.109  -7.183  -6.755  0.00  0.00    -0.271 OA
HETATM    3  H           1     -21.353  -4.151  -5.994  0.00  0.00     0.163 HD
HETATM    4  N           1     -21.334  -4.968  -6.589  0.00  0.00    -0.345 N 
ENDROOT
BRANCH   1   5
HETATM    5  C           1     -20.937  -6.354  -4.555  0.00  0.00     0.284 C 
BRANCH   5   6
HETATM    6  C           1     -20.353  -7.727  -4.251  0.00  0.00     0.155 C 
BRANCH   6   7
HETATM    7  C           1     -20.881  -8.216  -2.924  0.00  0.00     0.175 C 
HETATM    8  O           1     -20.476  -7.698  -1.861  0.00  0.00    -0.648 OA
HETATM    9  O           1     -21.724  -9.139  -2.888  0.00  0.00    -0.648 OA
ENDBRANCH   6   7
ENDBRANCH   5   6
BRANCH   5  10
HETATM   10  N           1     -22.260  -6.209  -3.862  0.00  0.00    -0.066 N 
HETATM   11  H           1     -22.590  -7.147  -3.543  0.00  0.00     0.275 HD
HETATM   12  H           1     -22.152  -5.579  -3.037  0.00  0.00     0.275 HD
HETATM   13  H           1     -22.957  -5.801  -4.525  0.00  0.00     0.275 HD
ENDBRANCH   5  10
ENDBRANCH   1   5
BRANCH   4  14
HETATM   14  C           1     -21.521  -4.828  -8.021  0.00  0.00     0.186 C 
BRANCH  14  15
HETATM   15  C           1     -22.478  -3.675  -8.296  0.00  0.00     0.046 C 
BRANCH  15  16
HETATM   16  C           1     -23.721  -4.203  -8.999  0.00  0.00     0.116 C 
BRANCH  16  17
HETATM   17  C           1     -23.885  -3.503 -10.326  0.00  0.00     0.172 C 
HETATM   18  O           1     -22.879  -3.203 -11.003  0.00  0.00    -0.648 OA
HETATM   19  O           1     -25.028  -3.222 -10.746  0.00  0.00    -0.648 OA
ENDBRANCH  16  17
ENDBRANCH  15  16
ENDBRANCH  14  15
BRANCH  14  20
HETATM   20  C           1     -20.190  -4.546  -8.676  0.00  0.00     0.196 C 
HETATM   21  O           1     -19.240  -4.105  -7.995  0.00  0.00    -0.646 OA
HETATM   22  O           1     -20.040  -4.754  -9.899  0.00  0.00    -0.646 OA
ENDBRANCH  14  20
ENDBRANCH   4  14
TORSDOF 9
ENDMDL
MODEL 4
REMARK VINA RESULT:      -5.7      1.761      6.205
REMARK  9 active torsions:
REMARK  status: ('A' for Active; 'I' for Inactive)
REMARK       I    between atoms: C_1  and  N_17 
REMARK    1  A    between atoms: C_1  and  C_2 
REMARK    2  A    between atoms: C_2  and  C_3 
REMARK    3  A    between atoms: C_2  and  N_7 
REMARK    4  A    between atoms: C_3  and  C_4 
REMARK    5  A    between atoms: C_13  and  C_22 
REMARK    6  A    between atoms: C_15  and  C_22 
REMARK    7  A    between atoms: C_15  and  C_21 
REMARK    8  A    between atoms: N_17  and  C_21 
REMARK    9  A    between atoms: C_20  and  C_21 
ROOT
HETATM    1  C           1     -29.420  -6.797 -17.542  0.00  0.00     0.249 C 
HETATM    2  O           1     -29.406  -7.977 -17.283  0.00  0.00    -0.271 OA
HETATM    3  H           1     -28.258  -5.143 -17.984  0.00  0.00     0.163 HD
HETATM    4  N           1     -28.246  -6.131 -17.768  0.00  0.00    -0.345 N 
ENDROOT
BRANCH   1   5
HETATM    5  C           1     -30.733  -6.057 -17.616  0.00  0.00     0.284 C 
BRANCH   5   6
HETATM    6  C           1     -30.731  -4.913 -16.611  0.00  0.00     0.155 C 
BRANCH   6   7
HETATM    7  C           1     -30.542  -3.604 -17.339  0.00  0.00     0.175 C 
HETATM    8  O           1     -29.391  -3.191 -17.594  0.00  0.00    -0.648 OA
HETATM    9  O           1     -31.538  -2.933 -17.688  0.00  0.00    -0.648 OA
ENDBRANCH   6   7
ENDBRANCH   5   6
BRANCH   5  10
HETATM   10  N           1     -31.856  -6.999 -17.297  0.00  0.00    -0.066 N 
HETATM   11  H           1     -31.994  -7.038 -16.262  0.00  0.00     0.275 HD
HETATM   12  H           1     -32.733  -6.662 -17.752  0.00  0.00     0.275 HD
HETATM   13  H           1     -31.622  -7.954 -17.653  0.00  0.00     0.275 HD
ENDBRANCH   5  10
ENDBRANCH   1   5
BRANCH   4  14
HETATM   14  C           1     -26.984  -6.843 -17.696  0.00  0.00     0.186 C 
BRANCH  14  15
HETATM   15  C           1     -26.072  -6.370 -18.821  0.00  0.00     0.046 C 
BRANCH  15  16
HETATM   16  C           1     -26.745  -6.627 -20.163  0.00  0.00     0.116 C 
BRANCH  16  17
HETATM   17  C           1     -26.096  -7.813 -20.833  0.00  0.00     0.172 C 
HETATM   18  O           1     -24.854  -7.949 -20.796  0.00  0.00    -0.648 OA
HETATM   19  O           1     -26.800  -8.659 -21.425  0.00  0.00    -0.648 OA
ENDBRANCH  16  17
ENDBRANCH  15  16
ENDBRANCH  14  15
BRANCH  14  20
HETATM   20  C           1     -26.327  -6.567 -16.365  0.00  0.00     0.196 C 
HETATM   21  O           1     -26.532  -7.331 -15.398  0.00  0.00    -0.646 OA
HETATM   22  O           1     -25.579  -5.576 -16.232  0.00  0.00    -0.646 OA
ENDBRANCH  14  20
ENDBRANCH   4  14
TORSDOF 9
ENDMDL
MODEL 5
REMARK VINA RESULT:      -5.5     13.185     14.836
REMARK  9 active torsions:
REMARK  status: ('A' for Active; 'I' for Inactive)
REMARK       I    between atoms: C_1  and  N_17 
REMARK    1  A    between atoms: C_1  and  C_2 
REMARK    2  A    between atoms: C_2  and  C_3 
REMARK    3  A    between atoms: C_2  and  N_7 
REMARK    4  A    between atoms: C_3  and  C_4 
REMARK    5  A    between atoms: C_13  and  C_22 
REMARK    6  A    between atoms: C_15  and  C_22 
REMARK    7  A    between atoms: C_15  and  C_21 
REMARK    8  A    between atoms: N_17  and  C_21 
REMARK    9  A    between atoms: C_20  and  C_21 
ROOT
HETATM    1  C           1     -21.351  -4.469  -7.171  0.00  0.00     0.249 C 
HETATM    2  O           1     -20.240  -4.083  -6.893  0.00  0.00    -0.271 OA
HETATM    3  H           1     -22.851  -5.810  -6.686  0.00  0.00     0.163 HD
HETATM    4  N           1     -21.921  -5.486  -6.454  0.00  0.00    -0.345 N 
ENDROOT
BRANCH   1   5
HETATM    5  C           1     -22.110  -3.829  -8.307  0.00  0.00     0.284 C 
BRANCH   5   6
HETATM    6  C           1     -23.560  -4.295  -8.275  0.00  0.00     0.155 C 
BRANCH   6   7
HETATM    7  C           1     -24.238  -3.917  -9.570  0.00  0.00     0.175 C 
HETATM    8  O           1     -24.945  -2.888  -9.628  0.00  0.00    -0.648 OA
HETATM    9  O           1     -24.093  -4.634 -10.584  0.00  0.00    -0.648 OA
ENDBRANCH   6   7
ENDBRANCH   5   6
BRANCH   5  10
HETATM   10  N           1     -21.486  -4.227  -9.611  0.00  0.00    -0.066 N 
HETATM   11  H           1     -20.988  -5.138  -9.495  0.00  0.00     0.275 HD
HETATM   12  H           1     -22.231  -4.328 -10.336  0.00  0.00     0.275 HD
HETATM   13  H           1     -20.804  -3.494  -9.909  0.00  0.00     0.275 HD
ENDBRANCH   5  10
ENDBRANCH   1   5
BRANCH   4  14
HETATM   14  C           1     -21.190  -6.101  -5.362  0.00  0.00     0.186 C 
BRANCH  14  15
HETATM   15  C           1     -22.136  -6.339  -4.191  0.00  0.00     0.046 C 
BRANCH  15  16
HETATM   16  C           1     -21.393  -6.107  -2.882  0.00  0.00     0.116 C 
BRANCH  16  17
HETATM   17  C           1     -21.903  -7.066  -1.835  0.00  0.00     0.172 C 
HETATM   18  O           1     -22.664  -6.657  -0.932  0.00  0.00    -0.648 OA
HETATM   19  O           1     -21.565  -8.268  -1.871  0.00  0.00    -0.648 OA
ENDBRANCH  16  17
ENDBRANCH  15  16
ENDBRANCH  14  15
BRANCH  14  20
HETATM   20  C           1     -20.615  -7.419  -5.821  0.00  0.00     0.196 C 
HETATM   21  O           1     -19.465  -7.462  -6.307  0.00  0.00    -0.646 OA
HETATM   22  O           1     -21.289  -8.465  -5.715  0.00  0.00    -0.646 OA
ENDBRANCH  14  20
ENDBRANCH   4  14
TORSDOF 9
ENDMDL
MODEL 6
REMARK VINA RESULT:      -5.5     13.407     14.989
REMARK  9 active torsions:
REMARK  status: ('A' for Active; 'I' for Inactive)
REMARK       I    between atoms: C_1  and  N_17 
REMARK    1  A    between atoms: C_1  and  C_2 
REMARK    2  A    between atoms: C_2  and  C_3 
REMARK    3  A    between atoms: C_2  and  N_7 
REMARK    4  A    between atoms: C_3  and  C_4 
REMARK    5  A    between atoms: C_13  and  C_22 
REMARK    6  A    between atoms: C_15  and  C_22 
REMARK    7  A    between atoms: C_15  and  C_21 
REMARK    8  A    between atoms: N_17  and  C_21 
REMARK    9  A    between atoms: C_20  and  C_21 
ROOT
HETATM    1  C           1     -21.644  -4.891  -7.087  0.00  0.00     0.249 C 
HETATM    2  O           1     -20.813  -4.090  -6.730  0.00  0.00    -0.271 OA
HETATM    3  H           1     -22.557  -6.696  -6.651  0.00  0.00     0.163 HD
HETATM    4  N           1     -21.861  -6.025  -6.353  0.00  0.00    -0.345 N 
ENDROOT
BRANCH   1   5
HETATM    5  C           1     -22.444  -4.640  -8.341  0.00  0.00     0.284 C 
BRANCH   5   6
HETATM    6  C           1     -21.677  -3.691  -9.252  0.00  0.00     0.155 C 
BRANCH   6   7
HETATM    7  C           1     -22.249  -3.760 -10.648  0.00  0.00     0.175 C 
HETATM    8  O           1     -23.115  -4.617 -10.926  0.00  0.00    -0.648 OA
HETATM    9  O           1     -21.857  -2.960 -11.524  0.00  0.00    -0.648 OA
ENDBRANCH   6   7
ENDBRANCH   5   6
BRANCH   5  10
HETATM   10  N           1     -23.764  -4.026  -7.978  0.00  0.00    -0.066 N 
HETATM   11  H           1     -23.662  -3.484  -7.090  0.00  0.00     0.275 HD
HETATM   12  H           1     -24.072  -3.386  -8.743  0.00  0.00     0.275 HD
HETATM   13  H           1     -24.474  -4.781  -7.845  0.00  0.00     0.275 HD
ENDBRANCH   5  10
ENDBRANCH   1   5
BRANCH   4  14
HETATM   14  C           1     -21.092  -6.266  -5.146  0.00  0.00     0.186 C 
BRANCH  14  15
HETATM   15  C           1     -22.029  -6.701  -4.027  0.00  0.00     0.046 C 
BRANCH  15  16
HETATM   16  C           1     -21.575  -6.077  -2.714  0.00  0.00     0.116 C 
BRANCH  16  17
HETATM   17  C           1     -21.853  -7.032  -1.579  0.00  0.00     0.172 C 
HETATM   18  O           1     -22.756  -6.776  -0.753  0.00  0.00    -0.648 OA
HETATM   19  O           1     -21.180  -8.079  -1.465  0.00  0.00    -0.648 OA
ENDBRANCH  16  17
ENDBRANCH  15  16
ENDBRANCH  14  15
BRANCH  14  20
HETATM   20  C           1     -20.078  -7.354  -5.406  0.00  0.00     0.196 C 
HETATM   21  O           1     -19.385  -7.327  -6.445  0.00  0.00    -0.646 OA
HETATM   22  O           1     -19.932  -8.281  -4.581  0.00  0.00    -0.646 OA
ENDBRANCH  14  20
ENDBRANCH   4  14
TORSDOF 9
ENDMDL
MODEL 7
REMARK VINA RESULT:      -5.4     12.154     13.948
REMARK  9 active torsions:
REMARK  status: ('A' for Active; 'I' for Inactive)
REMARK       I    between atoms: C_1  and  N_17 
REMARK    1  A    between atoms: C_1  and  C_2 
REMARK    2  A    between atoms: C_2  and  C_3 
REMARK    3  A    between atoms: C_2  and  N_7 
REMARK    4  A    between atoms: C_3  and  C_4 
REMARK    5  A    between atoms: C_13  and  C_22 
REMARK    6  A    between atoms: C_15  and  C_22 
REMARK    7  A    between atoms: C_15  and  C_21 
REMARK    8  A    between atoms: N_17  and  C_21 
REMARK    9  A    between atoms: C_20  and  C_21 
ROOT
HETATM    1  C           1     -22.866  -4.702  -8.253  0.00  0.00     0.249 C 
HETATM    2  O           1     -23.586  -4.233  -7.404  0.00  0.00    -0.271 OA
HETATM    3  H           1     -21.073  -5.671  -8.611  0.00  0.00     0.163 HD
HETATM    4  N           1     -21.676  -5.278  -7.900  0.00  0.00    -0.345 N 
ENDROOT
BRANCH   1   5
HETATM    5  C           1     -23.280  -4.653  -9.703  0.00  0.00     0.284 C 
BRANCH   5   6
HETATM    6  C           1     -22.616  -3.462 -10.382  0.00  0.00     0.155 C 
BRANCH   6   7
HETATM    7  C           1     -21.548  -3.953 -11.330  0.00  0.00     0.175 C 
HETATM    8  O           1     -20.529  -4.520 -10.882  0.00  0.00    -0.648 OA
HETATM    9  O           1     -21.685  -3.793 -12.562  0.00  0.00    -0.648 OA
ENDBRANCH   6   7
ENDBRANCH   5   6
BRANCH   5  10
HETATM   10  N           1     -24.771  -4.513  -9.793  0.00  0.00    -0.066 N 
HETATM   11  H           1     -25.013  -3.884 -10.592  0.00  0.00     0.275 HD
HETATM   12  H           1     -25.200  -5.452  -9.947  0.00  0.00     0.275 HD
HETATM   13  H           1     -25.136  -4.102  -8.904  0.00  0.00     0.275 HD
ENDBRANCH   5  10
ENDBRANCH   1   5
BRANCH   4  14
HETATM   14  C           1     -21.279  -5.324  -6.506  0.00  0.00     0.186 C 
BRANCH  14  15
HETATM   15  C           1     -21.302  -6.768  -6.020  0.00  0.00     0.046 C 
BRANCH  15  16
HETATM   16  C           1     -22.369  -6.925  -4.944  0.00  0.00     0.116 C 
BRANCH  16  17
HETATM   17  C           1     -21.745  -6.731  -3.584  0.00  0.00     0.172 C 
HETATM   18  O           1     -22.261  -5.936  -2.769  0.00  0.00    -0.648 OA
HETATM   19  O           1     -20.714  -7.363  -3.273  0.00  0.00    -0.648 OA
ENDBRANCH  16  17
ENDBRANCH  15  16
ENDBRANCH  14  15
BRANCH  14  20
HETATM   20  C           1     -19.884  -4.767  -6.362  0.00  0.00     0.196 C 
HETATM   21  O           1     -19.152  -4.647  -7.368  0.00  0.00    -0.646 OA
HETATM   22  O           1     -19.461  -4.426  -5.237  0.00  0.00    -0.646 OA
ENDBRANCH  14  20
ENDBRANCH   4  14
TORSDOF 9
ENDMDL
MODEL 8
REMARK VINA RESULT:      -5.3     14.830     16.261
REMARK  9 active torsions:
REMARK  status: ('A' for Active; 'I' for Inactive)
REMARK       I    between atoms: C_1  and  N_17 
REMARK    1  A    between atoms: C_1  and  C_2 
REMARK    2  A    between atoms: C_2  and  C_3 
REMARK    3  A    between atoms: C_2  and  N_7 
REMARK    4  A    between atoms: C_3  and  C_4 
REMARK    5  A    between atoms: C_13  and  C_22 
REMARK    6  A    between atoms: C_15  and  C_22 
REMARK    7  A    between atoms: C_15  and  C_21 
REMARK    8  A    between atoms: N_17  and  C_21 
REMARK    9  A    between atoms: C_20  and  C_21 
ROOT
HETATM    1  C           1     -20.705  -7.452  -5.450  0.00  0.00     0.249 C 
HETATM    2  O           1     -19.598  -7.893  -5.648  0.00  0.00    -0.271 OA
HETATM    3  H           1     -22.451  -7.678  -4.364  0.00  0.00     0.163 HD
HETATM    4  N           1     -21.524  -8.047  -4.530  0.00  0.00    -0.345 N 
ENDROOT
BRANCH   1   5
HETATM    5  C           1     -21.184  -6.245  -6.218  0.00  0.00     0.284 C 
BRANCH   5   6
HETATM    6  C           1     -20.107  -5.168  -6.197  0.00  0.00     0.155 C 
BRANCH   6   7
HETATM    7  C           1     -20.404  -4.138  -7.260  0.00  0.00     0.175 C 
HETATM    8  O           1     -21.438  -3.442  -7.184  0.00  0.00    -0.648 OA
HETATM    9  O           1     -19.614  -3.982  -8.217  0.00  0.00    -0.648 OA
ENDBRANCH   6   7
ENDBRANCH   5   6
BRANCH   5  10
HETATM   10  N           1     -22.434  -5.713  -5.581  0.00  0.00    -0.066 N 
HETATM   11  H           1     -22.264  -5.549  -4.563  0.00  0.00     0.275 HD
HETATM   12  H           1     -22.701  -4.813  -6.038  0.00  0.00     0.275 HD
HETATM   13  H           1     -23.207  -6.407  -5.697  0.00  0.00     0.275 HD
ENDBRANCH   5  10
ENDBRANCH   1   5
BRANCH   4  14
HETATM   14  C           1     -21.063  -9.208  -3.792  0.00  0.00     0.186 C 
BRANCH  14  15
HETATM   15  C           1     -21.439  -9.057  -2.324  0.00  0.00     0.046 C 
BRANCH  15  16
HETATM   16  C           1     -20.945  -7.712  -1.809  0.00  0.00     0.116 C 
BRANCH  16  17
HETATM   17  C           1     -22.123  -6.798  -1.576  0.00  0.00     0.172 C 
HETATM   18  O           1     -22.438  -5.953  -2.442  0.00  0.00    -0.648 OA
HETATM   19  O           1     -22.782  -6.885  -0.519  0.00  0.00    -0.648 OA
ENDBRANCH  16  17
ENDBRANCH  15  16
ENDBRANCH  14  15
BRANCH  14  20
HETATM   20  C           1     -21.711 -10.450  -4.354  0.00  0.00     0.196 C 
HETATM   21  O           1     -22.674 -10.977  -3.756  0.00  0.00    -0.646 OA
HETATM   22  O           1     -21.284 -10.951  -5.415  0.00  0.00    -0.646 OA
ENDBRANCH  14  20
ENDBRANCH   4  14
TORSDOF 9
ENDMDL
MODEL 9
REMARK VINA RESULT:      -5.2     12.625     14.486
REMARK  9 active torsions:
REMARK  status: ('A' for Active; 'I' for Inactive)
REMARK       I    between atoms: C_1  and  N_17 
REMARK    1  A    between atoms: C_1  and  C_2 
REMARK    2  A    between atoms: C_2  and  C_3 
REMARK    3  A    between atoms: C_2  and  N_7 
REMARK    4  A    between atoms: C_3  and  C_4 
REMARK    5  A    between atoms: C_13  and  C_22 
REMARK    6  A    between atoms: C_15  and  C_22 
REMARK    7  A    between atoms: C_15  and  C_21 
REMARK    8  A    between atoms: N_17  and  C_21 
REMARK    9  A    between atoms: C_20  and  C_21 
ROOT
HETATM    1  C           1     -21.882  -4.011  -7.690  0.00  0.00     0.249 C 
HETATM    2  O           1     -21.210  -3.166  -7.148  0.00  0.00    -0.271 OA
HETATM    3  H           1     -22.531  -5.974  -7.603  0.00  0.00     0.163 HD
HETATM    4  N           1     -21.968  -5.266  -7.150  0.00  0.00    -0.345 N 
ENDROOT
BRANCH   1   5
HETATM    5  C           1     -22.628  -3.683  -8.959  0.00  0.00     0.284 C 
BRANCH   5   6
HETATM    6  C           1     -24.094  -4.065  -8.802  0.00  0.00     0.155 C 
BRANCH   6   7
HETATM    7  C           1     -24.911  -3.381  -9.871  0.00  0.00     0.175 C 
HETATM    8  O           1     -26.144  -3.243  -9.722  0.00  0.00    -0.648 OA
HETATM    9  O           1     -24.354  -2.951 -10.904  0.00  0.00    -0.648 OA
ENDBRANCH   6   7
ENDBRANCH   5   6
BRANCH   5  10
HETATM   10  N           1     -22.032  -4.451 -10.101  0.00  0.00    -0.066 N 
HETATM   11  H           1     -22.591  -4.278 -10.967  0.00  0.00     0.275 HD
HETATM   12  H           1     -21.048  -4.137 -10.255  0.00  0.00     0.275 HD
HETATM   13  H           1     -22.043  -5.472  -9.878  0.00  0.00     0.275 HD
ENDBRANCH   5  10
ENDBRANCH   1   5
BRANCH   4  14
HETATM   14  C           1     -21.251  -5.581  -5.929  0.00  0.00     0.186 C 
BRANCH  14  15
HETATM   15  C           1     -22.108  -6.492  -5.059  0.00  0.00     0.046 C 
BRANCH  15  16
HETATM   16  C           1     -21.746  -6.284  -3.595  0.00  0.00     0.116 C 
BRANCH  16  17
HETATM   17  C           1     -21.495  -7.621  -2.943  0.00  0.00     0.172 C 
HETATM   18  O           1     -21.613  -8.673  -3.608  0.00  0.00    -0.648 OA
HETATM   19  O           1     -21.170  -7.678  -1.737  0.00  0.00    -0.648 OA
ENDBRANCH  16  17
ENDBRANCH  15  16
ENDBRANCH  14  15
BRANCH  14  20
HETATM   20  C           1     -19.959  -6.281  -6.272  0.00  0.00     0.196 C 
HETATM   21  O           1     -18.994  -5.626  -6.721  0.00  0.00    -0.646 OA
HETATM   22  O           1     -19.855  -7.515  -6.107  0.00  0.00    -0.646 OA
ENDBRANCH  14  20
ENDBRANCH   4  14
TORSDOF 9
ENDMDL
