MODEL 1
REMARK VINA RESULT:      -5.3      0.000      0.000
REMARK  12 active torsions:
REMARK  status: ('A' for Active; 'I' for Inactive)
REMARK    1  A    between atoms: C_4  and  C_11 
REMARK    2  A    between atoms: C_4  and  C_22 
REMARK    3  A    between atoms: C_5  and  C_22 
REMARK    4  A    between atoms: C_7  and  C_9 
REMARK    5  A    between atoms: C_7  and  N_10 
REMARK    6  A    between atoms: C_9  and  C_21 
REMARK    7  A    between atoms: C_11  and  Se_15 
REMARK       I    between atoms: C_18  and  N_19 
REMARK    8  A    between atoms: C_18  and  C_23 
REMARK    9  A    between atoms: N_19  and  C_22 
REMARK   10  A    between atoms: N_20  and  C_23 
REMARK   11  A    between atoms: C_21  and  C_24 
REMARK   12  A    between atoms: C_23  and  C_24 
ROOT
HETATM    1  C           1     -20.647  -4.417  -6.546  0.00  0.00     0.274 C 
ENDROOT
BRANCH   1   2
HETATM    2  C           1     -21.455  -5.417  -5.756  0.00  0.00     0.249 C 
HETATM    3  O           1     -22.654  -5.469  -5.895  0.00  0.00    -0.271 OA
HETATM    4  N           1     -20.829  -6.264  -4.881  0.00  0.00    -0.345 N 
HETATM    5  H           1     -19.825  -6.221  -4.765  0.00  0.00     0.163 HD
BRANCH   4   6
HETATM    6  C           1     -21.606  -7.225  -4.122  0.00  0.00     0.185 C 
BRANCH   6   7
HETATM    7  C           1     -20.976  -8.606  -4.257  0.00  0.00     0.036 C 
BRANCH   7   8
HETATM    8  C           1     -19.648  -8.488  -4.994  0.00  0.00     0.003 C 
BRANCH   8   9
HETATM    9 Se           1     -18.294  -9.540  -4.068  0.00  0.00     0.000 Se
HETATM   10  C           1     -17.396 -10.120  -5.698  0.00  0.00     0.000 C 
ENDBRANCH   8   9
ENDBRANCH   7   8
ENDBRANCH   6   7
BRANCH   6  11
HETATM   11  C           1     -21.623  -6.820  -2.668  0.00  0.00     0.196 C 
HETATM   12  O           1     -20.855  -7.378  -1.855  0.00  0.00    -0.646 OA
HETATM   13  O           1     -22.404  -5.927  -2.278  0.00  0.00    -0.646 OA
ENDBRANCH   6  11
ENDBRANCH   4   6
ENDBRANCH   1   2
BRANCH   1  14
HETATM   14  N           1     -19.539  -5.128  -7.266  0.00  0.00    -0.067 N 
HETATM   15  H           1     -19.594  -4.915  -8.288  0.00  0.00     0.275 HD
HETATM   16  H           1     -18.619  -4.806  -6.893  0.00  0.00     0.275 HD
HETATM   17  H           1     -19.635  -6.158  -7.121  0.00  0.00     0.275 HD
ENDBRANCH   1  14
BRANCH   1  18
HETATM   18  C           1     -21.547  -3.723  -7.559  0.00  0.00     0.042 C 
BRANCH  18  19
HETATM   19  C           1     -21.209  -4.214  -8.960  0.00  0.00     0.004 C 
BRANCH  19  20
HETATM   20  C           1     -22.492  -4.383  -9.763  0.00  0.00     0.027 C 
BRANCH  20  21
HETATM   21  C           1     -23.687  -3.997  -8.900  0.00  0.00     0.229 C 
BRANCH  21  22
HETATM   22  N           1     -24.955  -4.261  -9.655  0.00  0.00    -0.079 N 
HETATM   23  H           1     -24.733  -4.755 -10.548  0.00  0.00     0.274 HD
HETATM   24  H           1     -25.588  -4.858  -9.075  0.00  0.00     0.274 HD
HETATM   25  H           1     -25.430  -3.355  -9.867  0.00  0.00     0.274 HD
ENDBRANCH  21  22
ENDBRANCH  20  21
ENDBRANCH  19  20
ENDBRANCH  18  19
ENDBRANCH   1  18
TORSDOF 12
ENDMDL
MODEL 2
REMARK VINA RESULT:      -5.2      2.574      3.349
REMARK  12 active torsions:
REMARK  status: ('A' for Active; 'I' for Inactive)
REMARK    1  A    between atoms: C_4  and  C_11 
REMARK    2  A    between atoms: C_4  and  C_22 
REMARK    3  A    between atoms: C_5  and  C_22 
REMARK    4  A    between atoms: C_7  and  C_9 
REMARK    5  A    between atoms: C_7  and  N_10 
REMARK    6  A    between atoms: C_9  and  C_21 
REMARK    7  A    between atoms: C_11  and  Se_15 
REMARK       I    between atoms: C_18  and  N_19 
REMARK    8  A    between atoms: C_18  and  C_23 
REMARK    9  A    between atoms: N_19  and  C_22 
REMARK   10  A    between atoms: N_20  and  C_23 
REMARK   11  A    between atoms: C_21  and  C_24 
REMARK   12  A    between atoms: C_23  and  C_24 
ROOT
HETATM    1  C           1     -21.255  -4.801  -7.880  0.00  0.00     0.274 C 
ENDROOT
BRANCH   1   2
HETATM    2  C           1     -20.786  -5.356  -6.558  0.00  0.00     0.249 C 
HETATM    3  O           1     -20.195  -4.645  -5.780  0.00  0.00    -0.271 OA
HETATM    4  N           1     -21.030  -6.665  -6.239  0.00  0.00    -0.345 N 
HETATM    5  H           1     -21.525  -7.261  -6.890  0.00  0.00     0.163 HD
BRANCH   4   6
HETATM    6  C           1     -20.580  -7.198  -4.967  0.00  0.00     0.185 C 
BRANCH   6   7
HETATM    7  C           1     -21.745  -7.220  -3.986  0.00  0.00     0.036 C 
BRANCH   7   8
HETATM    8  C           1     -21.487  -6.217  -2.869  0.00  0.00     0.003 C 
BRANCH   8   9
HETATM    9 Se           1     -22.228  -6.898  -1.200  0.00  0.00     0.000 Se
HETATM   10  C           1     -21.612  -8.726  -1.482  0.00  0.00     0.000 C 
ENDBRANCH   8   9
ENDBRANCH   7   8
ENDBRANCH   6   7
BRANCH   6  11
HETATM   11  C           1     -20.062  -8.601  -5.166  0.00  0.00     0.196 C 
HETATM   12  O           1     -20.795  -9.468  -5.691  0.00  0.00    -0.646 OA
HETATM   13  O           1     -18.903  -8.896  -4.808  0.00  0.00    -0.646 OA
ENDBRANCH   6  11
ENDBRANCH   4   6
ENDBRANCH   1   2
BRANCH   1  14
HETATM   14  N           1     -22.278  -3.731  -7.639  0.00  0.00    -0.067 N 
HETATM   15  H           1     -22.907  -4.020  -6.856  0.00  0.00     0.275 HD
HETATM   16  H           1     -21.796  -2.840  -7.387  0.00  0.00     0.275 HD
HETATM   17  H           1     -22.844  -3.590  -8.506  0.00  0.00     0.275 HD
ENDBRANCH   1  14
BRANCH   1  18
HETATM   18  C           1     -20.070  -4.211  -8.633  0.00  0.00     0.042 C 
BRANCH  18  19
HETATM   19  C           1     -20.104  -4.680 -10.081  0.00  0.00     0.004 C 
BRANCH  19  20
HETATM   20  C           1     -20.346  -3.488 -10.996  0.00  0.00     0.027 C 
BRANCH  20  21
HETATM   21  C           1     -21.826  -3.407 -11.347  0.00  0.00     0.229 C 
BRANCH  21  22
HETATM   22  N           1     -22.250  -4.676 -12.024  0.00  0.00    -0.079 N 
HETATM   23  H           1     -21.720  -4.789 -12.917  0.00  0.00     0.274 HD
HETATM   24  H           1     -22.052  -5.489 -11.397  0.00  0.00     0.274 HD
HETATM   25  H           1     -23.274  -4.636 -12.230  0.00  0.00     0.274 HD
ENDBRANCH  21  22
ENDBRANCH  20  21
ENDBRANCH  19  20
ENDBRANCH  18  19
ENDBRANCH   1  18
TORSDOF 12
ENDMDL
MODEL 3
REMARK VINA RESULT:      -5.1      1.571      2.308
REMARK  12 active torsions:
REMARK  status: ('A' for Active; 'I' for Inactive)
REMARK    1  A    between atoms: C_4  and  C_11 
REMARK    2  A    between atoms: C_4  and  C_22 
REMARK    3  A    between atoms: C_5  and  C_22 
REMARK    4  A    between atoms: C_7  and  C_9 
REMARK    5  A    between atoms: C_7  and  N_10 
REMARK    6  A    between atoms: C_9  and  C_21 
REMARK    7  A    between atoms: C_11  and  Se_15 
REMARK       I    between atoms: C_18  and  N_19 
REMARK    8  A    between atoms: C_18  and  C_23 
REMARK    9  A    between atoms: N_19  and  C_22 
REMARK   10  A    between atoms: N_20  and  C_23 
REMARK   11  A    between atoms: C_21  and  C_24 
REMARK   12  A    between atoms: C_23  and  C_24 
ROOT
HETATM    1  C           1     -21.084  -5.105  -6.688  0.00  0.00     0.274 C 
ENDROOT
BRANCH   1   2
HETATM    2  C           1     -21.748  -5.959  -5.636  0.00  0.00     0.249 C 
HETATM    3  O           1     -22.947  -5.916  -5.492  0.00  0.00    -0.271 OA
HETATM    4  N           1     -20.992  -6.782  -4.845  0.00  0.00    -0.345 N 
HETATM    5  H           1     -19.988  -6.819  -4.966  0.00  0.00     0.163 HD
BRANCH   4   6
HETATM    6  C           1     -21.631  -7.604  -3.834  0.00  0.00     0.185 C 
BRANCH   6   7
HETATM    7  C           1     -20.943  -8.961  -3.776  0.00  0.00     0.036 C 
BRANCH   7   8
HETATM    8  C           1     -21.987 -10.051  -3.573  0.00  0.00     0.003 C 
BRANCH   8   9
HETATM    9 Se           1     -21.569 -11.060  -1.958  0.00  0.00     0.000 Se
HETATM   10  C           1     -22.832 -10.094  -0.831  0.00  0.00     0.000 C 
ENDBRANCH   8   9
ENDBRANCH   7   8
ENDBRANCH   6   7
BRANCH   6  11
HETATM   11  C           1     -21.519  -6.925  -2.492  0.00  0.00     0.196 C 
HETATM   12  O           1     -22.243  -5.940  -2.228  0.00  0.00    -0.646 OA
HETATM   13  O           1     -20.704  -7.347  -1.644  0.00  0.00    -0.646 OA
ENDBRANCH   6  11
ENDBRANCH   4   6
ENDBRANCH   1   2
BRANCH   1  14
HETATM   14  N           1     -20.180  -5.959  -7.527  0.00  0.00    -0.067 N 
HETATM   15  H           1     -20.434  -6.965  -7.400  0.00  0.00     0.275 HD
HETATM   16  H           1     -20.289  -5.697  -8.532  0.00  0.00     0.275 HD
HETATM   17  H           1     -19.189  -5.810  -7.232  0.00  0.00     0.275 HD
ENDBRANCH   1  14
BRANCH   1  18
HETATM   18  C           1     -22.148  -4.468  -7.572  0.00  0.00     0.042 C 
BRANCH  18  19
HETATM   19  C           1     -21.698  -4.522  -9.026  0.00  0.00     0.004 C 
BRANCH  19  20
HETATM   20  C           1     -22.854  -4.118  -9.931  0.00  0.00     0.027 C 
BRANCH  20  21
HETATM   21  C           1     -23.992  -3.562  -9.085  0.00  0.00     0.229 C 
BRANCH  21  22
HETATM   22  N           1     -25.293  -3.753  -9.808  0.00  0.00    -0.079 N 
HETATM   23  H           1     -25.697  -2.820 -10.048  0.00  0.00     0.274 HD
HETATM   24  H           1     -25.127  -4.297 -10.684  0.00  0.00     0.274 HD
HETATM   25  H           1     -25.959  -4.273  -9.194  0.00  0.00     0.274 HD
ENDBRANCH  21  22
ENDBRANCH  20  21
ENDBRANCH  19  20
ENDBRANCH  18  19
ENDBRANCH   1  18
TORSDOF 12
ENDMDL
MODEL 4
REMARK VINA RESULT:      -4.9      2.833      3.658
REMARK  12 active torsions:
REMARK  status: ('A' for Active; 'I' for Inactive)
REMARK    1  A    between atoms: C_4  and  C_11 
REMARK    2  A    between atoms: C_4  and  C_22 
REMARK    3  A    between atoms: C_5  and  C_22 
REMARK    4  A    between atoms: C_7  and  C_9 
REMARK    5  A    between atoms: C_7  and  N_10 
REMARK    6  A    between atoms: C_9  and  C_21 
REMARK    7  A    between atoms: C_11  and  Se_15 
REMARK       I    between atoms: C_18  and  N_19 
REMARK    8  A    between atoms: C_18  and  C_23 
REMARK    9  A    between atoms: N_19  and  C_22 
REMARK   10  A    between atoms: N_20  and  C_23 
REMARK   11  A    between atoms: C_21  and  C_24 
REMARK   12  A    between atoms: C_23  and  C_24 
ROOT
HETATM    1  C           1     -21.314  -6.398  -5.823  0.00  0.00     0.274 C 
ENDROOT
BRANCH   1   2
HETATM    2  C           1     -20.639  -7.500  -5.044  0.00  0.00     0.249 C 
HETATM    3  O           1     -19.658  -8.044  -5.494  0.00  0.00    -0.271 OA
HETATM    4  N           1     -21.137  -7.884  -3.828  0.00  0.00    -0.345 N 
HETATM    5  H           1     -21.959  -7.428  -3.451  0.00  0.00     0.163 HD
BRANCH   4   6
HETATM    6  C           1     -20.488  -8.943  -3.079  0.00  0.00     0.185 C 
BRANCH   6   7
HETATM    7  C           1     -20.367  -8.529  -1.618  0.00  0.00     0.036 C 
BRANCH   7   8
HETATM    8  C           1     -21.510  -7.588  -1.261  0.00  0.00     0.003 C 
BRANCH   8   9
HETATM    9 Se           1     -22.462  -8.281   0.292  0.00  0.00     0.000 Se
HETATM   10  C           1     -21.185  -9.711   0.641  0.00  0.00     0.000 C 
ENDBRANCH   8   9
ENDBRANCH   7   8
ENDBRANCH   6   7
BRANCH   6  11
HETATM   11  C           1     -21.310 -10.204  -3.179  0.00  0.00     0.196 C 
HETATM   12  O           1     -20.933 -11.243  -2.594  0.00  0.00    -0.646 OA
HETATM   13  O           1     -22.367 -10.211  -3.845  0.00  0.00    -0.646 OA
ENDBRANCH   6  11
ENDBRANCH   4   6
ENDBRANCH   1   2
BRANCH   1  14
HETATM   14  N           1     -22.651  -6.100  -5.211  0.00  0.00    -0.067 N 
HETATM   15  H           1     -23.253  -5.611  -5.910  0.00  0.00     0.275 HD
HETATM   16  H           1     -23.108  -6.994  -4.923  0.00  0.00     0.275 HD
HETATM   17  H           1     -22.521  -5.488  -4.374  0.00  0.00     0.275 HD
ENDBRANCH   1  14
BRANCH   1  18
HETATM   18  C           1     -20.448  -5.145  -5.786  0.00  0.00     0.042 C 
BRANCH  18  19
HETATM   19  C           1     -20.345  -4.559  -7.187  0.00  0.00     0.004 C 
BRANCH  19  20
HETATM   20  C           1     -21.417  -3.493  -7.372  0.00  0.00     0.027 C 
BRANCH  20  21
HETATM   21  C           1     -22.355  -3.907  -8.499  0.00  0.00     0.229 C 
BRANCH  21  22
HETATM   22  N           1     -23.743  -4.080  -7.957  0.00  0.00    -0.079 N 
HETATM   23  H           1     -24.349  -4.521  -8.686  0.00  0.00     0.274 HD
HETATM   24  H           1     -23.712  -4.694  -7.112  0.00  0.00     0.274 HD
HETATM   25  H           1     -24.135  -3.147  -7.697  0.00  0.00     0.274 HD
ENDBRANCH  21  22
ENDBRANCH  20  21
ENDBRANCH  19  20
ENDBRANCH  18  19
ENDBRANCH   1  18
TORSDOF 12
ENDMDL
MODEL 5
REMARK VINA RESULT:      -4.8      3.368      6.993
REMARK  12 active torsions:
REMARK  status: ('A' for Active; 'I' for Inactive)
REMARK    1  A    between atoms: C_4  and  C_11 
REMARK    2  A    between atoms: C_4  and  C_22 
REMARK    3  A    between atoms: C_5  and  C_22 
REMARK    4  A    between atoms: C_7  and  C_9 
REMARK    5  A    between atoms: C_7  and  N_10 
REMARK    6  A    between atoms: C_9  and  C_21 
REMARK    7  A    between atoms: C_11  and  Se_15 
REMARK       I    between atoms: C_18  and  N_19 
REMARK    8  A    between atoms: C_18  and  C_23 
REMARK    9  A    between atoms: N_19  and  C_22 
REMARK   10  A    between atoms: N_20  and  C_23 
REMARK   11  A    between atoms: C_21  and  C_24 
REMARK   12  A    between atoms: C_23  and  C_24 
ROOT
HETATM    1  C           1     -21.245  -6.455  -2.616  0.00  0.00     0.274 C 
ENDROOT
BRANCH   1   2
HETATM    2  C           1     -21.432  -6.499  -4.113  0.00  0.00     0.249 C 
HETATM    3  O           1     -21.964  -7.454  -4.627  0.00  0.00    -0.271 OA
HETATM    4  N           1     -21.000  -5.456  -4.887  0.00  0.00    -0.345 N 
HETATM    5  H           1     -20.555  -4.656  -4.457  0.00  0.00     0.163 HD
BRANCH   4   6
HETATM    6  C           1     -21.181  -5.497  -6.326  0.00  0.00     0.185 C 
BRANCH   6   7
HETATM    7  C           1     -21.697  -4.148  -6.810  0.00  0.00     0.036 C 
BRANCH   7   8
HETATM    8  C           1     -22.855  -4.365  -7.775  0.00  0.00     0.003 C 
BRANCH   8   9
HETATM    9 Se           1     -22.247  -4.061  -9.601  0.00  0.00     0.000 Se
HETATM   10  C           1     -23.919  -4.627 -10.427  0.00  0.00     0.000 C 
ENDBRANCH   8   9
ENDBRANCH   7   8
ENDBRANCH   6   7
BRANCH   6  11
HETATM   11  C           1     -19.860  -5.799  -6.989  0.00  0.00     0.196 C 
HETATM   12  O           1     -19.393  -6.958  -6.951  0.00  0.00    -0.646 OA
HETATM   13  O           1     -19.234  -4.892  -7.577  0.00  0.00    -0.646 OA
ENDBRANCH   6  11
ENDBRANCH   4   6
ENDBRANCH   1   2
BRANCH   1  14
HETATM   14  N           1     -22.387  -5.712  -1.991  0.00  0.00    -0.067 N 
HETATM   15  H           1     -22.344  -5.815  -0.951  0.00  0.00     0.275 HD
HETATM   16  H           1     -22.324  -4.701  -2.242  0.00  0.00     0.275 HD
HETATM   17  H           1     -23.291  -6.104  -2.341  0.00  0.00     0.275 HD
ENDBRANCH   1  14
BRANCH   1  18
HETATM   18  C           1     -21.202  -7.875  -2.068  0.00  0.00     0.042 C 
BRANCH  18  19
HETATM   19  C           1     -22.158  -7.994  -0.889  0.00  0.00     0.004 C 
BRANCH  19  20
HETATM   20  C           1     -21.943  -9.330  -0.192  0.00  0.00     0.027 C 
BRANCH  20  21
HETATM   21  C           1     -21.038 -10.210  -1.046  0.00  0.00     0.229 C 
BRANCH  21  22
HETATM   22  N           1     -21.763 -11.472  -1.407  0.00  0.00    -0.079 N 
HETATM   23  H           1     -21.888 -11.517  -2.444  0.00  0.00     0.274 HD
HETATM   24  H           1     -21.207 -12.297  -1.087  0.00  0.00     0.274 HD
HETATM   25  H           1     -22.700 -11.481  -0.944  0.00  0.00     0.274 HD
ENDBRANCH  21  22
ENDBRANCH  20  21
ENDBRANCH  19  20
ENDBRANCH  18  19
ENDBRANCH   1  18
TORSDOF 12
ENDMDL
MODEL 6
REMARK VINA RESULT:      -4.8      2.689      3.645
REMARK  12 active torsions:
REMARK  status: ('A' for Active; 'I' for Inactive)
REMARK    1  A    between atoms: C_4  and  C_11 
REMARK    2  A    between atoms: C_4  and  C_22 
REMARK    3  A    between atoms: C_5  and  C_22 
REMARK    4  A    between atoms: C_7  and  C_9 
REMARK    5  A    between atoms: C_7  and  N_10 
REMARK    6  A    between atoms: C_9  and  C_21 
REMARK    7  A    between atoms: C_11  and  Se_15 
REMARK       I    between atoms: C_18  and  N_19 
REMARK    8  A    between atoms: C_18  and  C_23 
REMARK    9  A    between atoms: N_19  and  C_22 
REMARK   10  A    between atoms: N_20  and  C_23 
REMARK   11  A    between atoms: C_21  and  C_24 
REMARK   12  A    between atoms: C_23  and  C_24 
ROOT
HETATM    1  C           1     -20.059  -7.331  -5.291  0.00  0.00     0.274 C 
ENDROOT
BRANCH   1   2
HETATM    2  C           1     -20.996  -7.858  -4.232  0.00  0.00     0.249 C 
HETATM    3  O           1     -21.948  -8.531  -4.549  0.00  0.00    -0.271 OA
HETATM    4  N           1     -20.767  -7.575  -2.913  0.00  0.00    -0.345 N 
HETATM    5  H           1     -19.969  -7.011  -2.647  0.00  0.00     0.163 HD
BRANCH   4   6
HETATM    6  C           1     -21.666  -8.082  -1.895  0.00  0.00     0.185 C 
BRANCH   6   7
HETATM    7  C           1     -20.867  -8.845  -0.847  0.00  0.00     0.036 C 
BRANCH   7   8
HETATM    8  C           1     -20.906 -10.335  -1.163  0.00  0.00     0.003 C 
BRANCH   8   9
HETATM    9 Se           1     -21.815 -11.282   0.277  0.00  0.00     0.000 Se
HETATM   10  C           1     -23.608 -10.809  -0.322  0.00  0.00     0.000 C 
ENDBRANCH   8   9
ENDBRANCH   7   8
ENDBRANCH   6   7
BRANCH   6  11
HETATM   11  C           1     -22.384  -6.928  -1.239  0.00  0.00     0.196 C 
HETATM   12  O           1     -22.401  -5.808  -1.793  0.00  0.00    -0.646 OA
HETATM   13  O           1     -22.961  -7.093  -0.143  0.00  0.00    -0.646 OA
ENDBRANCH   6  11
ENDBRANCH   4   6
ENDBRANCH   1   2
BRANCH   1  14
HETATM   14  N           1     -19.298  -8.472  -5.898  0.00  0.00    -0.067 N 
HETATM   15  H           1     -19.516  -8.533  -6.918  0.00  0.00     0.275 HD
HETATM   16  H           1     -18.273  -8.313  -5.771  0.00  0.00     0.275 HD
HETATM   17  H           1     -19.575  -9.363  -5.429  0.00  0.00     0.275 HD
ENDBRANCH   1  14
BRANCH   1  18
HETATM   18  C           1     -20.863  -6.623  -6.374  0.00  0.00     0.042 C 
BRANCH  18  19
HETATM   19  C           1     -19.962  -5.647  -7.119  0.00  0.00     0.004 C 
BRANCH  19  20
HETATM   20  C           1     -20.779  -4.896  -8.161  0.00  0.00     0.027 C 
BRANCH  20  21
HETATM   21  C           1     -21.528  -3.750  -7.491  0.00  0.00     0.229 C 
BRANCH  21  22
HETATM   22  N           1     -22.886  -3.610  -8.111  0.00  0.00    -0.079 N 
HETATM   23  H           1     -23.028  -4.369  -8.816  0.00  0.00     0.274 HD
HETATM   24  H           1     -23.618  -3.683  -7.369  0.00  0.00     0.274 HD
HETATM   25  H           1     -22.960  -2.680  -8.583  0.00  0.00     0.274 HD
ENDBRANCH  21  22
ENDBRANCH  20  21
ENDBRANCH  19  20
ENDBRANCH  18  19
ENDBRANCH   1  18
TORSDOF 12
ENDMDL
MODEL 7
REMARK VINA RESULT:      -4.5      4.144      6.233
REMARK  12 active torsions:
REMARK  status: ('A' for Active; 'I' for Inactive)
REMARK    1  A    between atoms: C_4  and  C_11 
REMARK    2  A    between atoms: C_4  and  C_22 
REMARK    3  A    between atoms: C_5  and  C_22 
REMARK    4  A    between atoms: C_7  and  C_9 
REMARK    5  A    between atoms: C_7  and  N_10 
REMARK    6  A    between atoms: C_9  and  C_21 
REMARK    7  A    between atoms: C_11  and  Se_15 
REMARK       I    between atoms: C_18  and  N_19 
REMARK    8  A    between atoms: C_18  and  C_23 
REMARK    9  A    between atoms: N_19  and  C_22 
REMARK   10  A    between atoms: N_20  and  C_23 
REMARK   11  A    between atoms: C_21  and  C_24 
REMARK   12  A    between atoms: C_23  and  C_24 
ROOT
HETATM    1  C           1     -21.236  -6.706  -2.276  0.00  0.00     0.274 C 
ENDROOT
BRANCH   1   2
HETATM    2  C           1     -20.983  -7.294  -3.642  0.00  0.00     0.249 C 
HETATM    3  O           1     -21.357  -6.708  -4.630  0.00  0.00    -0.271 OA
HETATM    4  N           1     -20.330  -8.491  -3.762  0.00  0.00    -0.345 N 
HETATM    5  H           1     -20.017  -8.982  -2.935  0.00  0.00     0.163 HD
BRANCH   4   6
HETATM    6  C           1     -20.087  -9.056  -5.076  0.00  0.00     0.185 C 
BRANCH   6   7
HETATM    7  C           1     -18.635  -9.507  -5.172  0.00  0.00     0.036 C 
BRANCH   7   8
HETATM    8  C           1     -18.067  -9.694  -3.771  0.00  0.00     0.003 C 
BRANCH   8   9
HETATM    9 Se           1     -16.126  -9.837  -3.869  0.00  0.00     0.000 Se
HETATM   10  C           1     -16.069  -9.955  -5.813  0.00  0.00     0.000 C 
ENDBRANCH   8   9
ENDBRANCH   7   8
ENDBRANCH   6   7
BRANCH   6  11
HETATM   11  C           1     -20.997 -10.241  -5.289  0.00  0.00     0.196 C 
HETATM   12  O           1     -21.080 -10.769  -6.419  0.00  0.00    -0.646 OA
HETATM   13  O           1     -21.666 -10.694  -4.337  0.00  0.00    -0.646 OA
ENDBRANCH   6  11
ENDBRANCH   4   6
ENDBRANCH   1   2
BRANCH   1  14
HETATM   14  N           1     -22.531  -5.950  -2.289  0.00  0.00    -0.067 N 
HETATM   15  H           1     -23.309  -6.595  -2.553  0.00  0.00     0.275 HD
HETATM   16  H           1     -22.713  -5.555  -1.339  0.00  0.00     0.275 HD
HETATM   17  H           1     -22.473  -5.173  -2.985  0.00  0.00     0.275 HD
ENDBRANCH   1  14
BRANCH   1  18
HETATM   18  C           1     -21.312  -7.826  -1.247  0.00  0.00     0.042 C 
BRANCH  18  19
HETATM   19  C           1     -22.303  -7.446  -0.155  0.00  0.00     0.004 C 
BRANCH  19  20
HETATM   20  C           1     -23.125  -8.667   0.233  0.00  0.00     0.027 C 
BRANCH  20  21
HETATM   21  C           1     -22.741  -9.843  -0.657  0.00  0.00     0.229 C 
BRANCH  21  22
HETATM   22  N           1     -22.232 -10.969   0.193  0.00  0.00    -0.079 N 
HETATM   23  H           1     -21.187 -10.963   0.191  0.00  0.00     0.274 HD
HETATM   24  H           1     -22.580 -10.851   1.172  0.00  0.00     0.274 HD
HETATM   25  H           1     -22.575 -11.878  -0.192  0.00  0.00     0.274 HD
ENDBRANCH  21  22
ENDBRANCH  20  21
ENDBRANCH  19  20
ENDBRANCH  18  19
ENDBRANCH   1  18
TORSDOF 12
ENDMDL
MODEL 8
REMARK VINA RESULT:      -4.4      2.334      3.398
REMARK  12 active torsions:
REMARK  status: ('A' for Active; 'I' for Inactive)
REMARK    1  A    between atoms: C_4  and  C_11 
REMARK    2  A    between atoms: C_4  and  C_22 
REMARK    3  A    between atoms: C_5  and  C_22 
REMARK    4  A    between atoms: C_7  and  C_9 
REMARK    5  A    between atoms: C_7  and  N_10 
REMARK    6  A    between atoms: C_9  and  C_21 
REMARK    7  A    between atoms: C_11  and  Se_15 
REMARK       I    between atoms: C_18  and  N_19 
REMARK    8  A    between atoms: C_18  and  C_23 
REMARK    9  A    between atoms: N_19  and  C_22 
REMARK   10  A    between atoms: N_20  and  C_23 
REMARK   11  A    between atoms: C_21  and  C_24 
REMARK   12  A    between atoms: C_23  and  C_24 
ROOT
HETATM    1  C           1     -21.657  -6.840  -5.216  0.00  0.00     0.274 C 
ENDROOT
BRANCH   1   2
HETATM    2  C           1     -20.997  -8.153  -4.873  0.00  0.00     0.249 C 
HETATM    3  O           1     -21.672  -9.108  -4.572  0.00  0.00    -0.271 OA
HETATM    4  N           1     -19.632  -8.260  -4.901  0.00  0.00    -0.345 N 
HETATM    5  H           1     -19.066  -7.460  -5.153  0.00  0.00     0.163 HD
BRANCH   4   6
HETATM    6  C           1     -18.997  -9.522  -4.571  0.00  0.00     0.185 C 
BRANCH   6   7
HETATM    7  C           1     -17.844  -9.775  -5.533  0.00  0.00     0.036 C 
BRANCH   7   8
HETATM    8  C           1     -18.142 -11.014  -6.368  0.00  0.00     0.003 C 
BRANCH   8   9
HETATM    9 Se           1     -16.553 -12.139  -6.452  0.00  0.00     0.000 Se
HETATM   10  C           1     -15.419 -10.895  -5.470  0.00  0.00     0.000 C 
ENDBRANCH   8   9
ENDBRANCH   7   8
ENDBRANCH   6   7
BRANCH   6  11
HETATM   11  C           1     -18.471  -9.464  -3.158  0.00  0.00     0.196 C 
HETATM   12  O           1     -19.245  -9.656  -2.195  0.00  0.00    -0.646 OA
HETATM   13  O           1     -17.263  -9.226  -2.951  0.00  0.00    -0.646 OA
ENDBRANCH   6  11
ENDBRANCH   4   6
ENDBRANCH   1   2
BRANCH   1  14
HETATM   14  N           1     -21.533  -5.899  -4.055  0.00  0.00    -0.067 N 
HETATM   15  H           1     -22.112  -5.047  -4.233  0.00  0.00     0.275 HD
HETATM   16  H           1     -21.867  -6.372  -3.187  0.00  0.00     0.275 HD
HETATM   17  H           1     -20.532  -5.620  -3.940  0.00  0.00     0.275 HD
ENDBRANCH   1  14
BRANCH   1  18
HETATM   18  C           1     -20.978  -6.234  -6.437  0.00  0.00     0.042 C 
BRANCH  18  19
HETATM   19  C           1     -20.463  -4.843  -6.093  0.00  0.00     0.004 C 
BRANCH  19  20
HETATM   20  C           1     -21.086  -3.823  -7.036  0.00  0.00     0.027 C 
BRANCH  20  21
HETATM   21  C           1     -21.973  -4.539  -8.047  0.00  0.00     0.229 C 
BRANCH  21  22
HETATM   22  N           1     -23.149  -3.672  -8.384  0.00  0.00    -0.079 N 
HETATM   23  H           1     -23.412  -3.814  -9.385  0.00  0.00     0.274 HD
HETATM   24  H           1     -23.957  -3.928  -7.772  0.00  0.00     0.274 HD
HETATM   25  H           1     -22.899  -2.669  -8.229  0.00  0.00     0.274 HD
ENDBRANCH  21  22
ENDBRANCH  20  21
ENDBRANCH  19  20
ENDBRANCH  18  19
ENDBRANCH   1  18
TORSDOF 12
ENDMDL
MODEL 9
REMARK VINA RESULT:      -4.4      2.974      4.102
REMARK  12 active torsions:
REMARK  status: ('A' for Active; 'I' for Inactive)
REMARK    1  A    between atoms: C_4  and  C_11 
REMARK    2  A    between atoms: C_4  and  C_22 
REMARK    3  A    between atoms: C_5  and  C_22 
REMARK    4  A    between atoms: C_7  and  C_9 
REMARK    5  A    between atoms: C_7  and  N_10 
REMARK    6  A    between atoms: C_9  and  C_21 
REMARK    7  A    between atoms: C_11  and  Se_15 
REMARK       I    between atoms: C_18  and  N_19 
REMARK    8  A    between atoms: C_18  and  C_23 
REMARK    9  A    between atoms: N_19  and  C_22 
REMARK   10  A    between atoms: N_20  and  C_23 
REMARK   11  A    between atoms: C_21  and  C_24 
REMARK   12  A    between atoms: C_23  and  C_24 
ROOT
HETATM    1  C           1     -21.515  -6.723  -5.252  0.00  0.00     0.274 C 
ENDROOT
BRANCH   1   2
HETATM    2  C           1     -20.878  -8.064  -4.985  0.00  0.00     0.249 C 
HETATM    3  O           1     -19.675  -8.164  -4.947  0.00  0.00    -0.271 OA
HETATM    4  N           1     -21.663  -9.168  -4.786  0.00  0.00    -0.345 N 
HETATM    5  H           1     -22.672  -9.085  -4.818  0.00  0.00     0.163 HD
BRANCH   4   6
HETATM    6  C           1     -21.051 -10.457  -4.529  0.00  0.00     0.185 C 
BRANCH   6   7
HETATM    7  C           1     -21.864 -11.204  -3.479  0.00  0.00     0.036 C 
BRANCH   7   8
HETATM    8  C           1     -22.132 -10.284  -2.295  0.00  0.00     0.003 C 
BRANCH   8   9
HETATM    9 Se           1     -20.447  -9.835  -1.425  0.00  0.00     0.000 Se
HETATM   10  C           1     -21.119  -8.202  -0.602  0.00  0.00     0.000 C 
ENDBRANCH   8   9
ENDBRANCH   7   8
ENDBRANCH   6   7
BRANCH   6  11
HETATM   11  C           1     -21.018 -11.261  -5.805  0.00  0.00     0.196 C 
HETATM   12  O           1     -20.115 -11.061  -6.646  0.00  0.00    -0.646 OA
HETATM   13  O           1     -21.892 -12.126  -6.022  0.00  0.00    -0.646 OA
ENDBRANCH   6  11
ENDBRANCH   4   6
ENDBRANCH   1   2
BRANCH   1  14
HETATM   14  N           1     -21.443  -5.880  -4.014  0.00  0.00    -0.067 N 
HETATM   15  H           1     -22.277  -6.070  -3.413  0.00  0.00     0.275 HD
HETATM   16  H           1     -20.573  -6.112  -3.485  0.00  0.00     0.275 HD
HETATM   17  H           1     -21.431  -4.870  -4.281  0.00  0.00     0.275 HD
ENDBRANCH   1  14
BRANCH   1  18
HETATM   18  C           1     -20.776  -6.025  -6.386  0.00  0.00     0.042 C 
BRANCH  18  19
HETATM   19  C           1     -20.572  -4.558  -6.032  0.00  0.00     0.004 C 
BRANCH  19  20
HETATM   20  C           1     -21.214  -3.684  -7.101  0.00  0.00     0.027 C 
BRANCH  20  21
HETATM   21  C           1     -22.190  -4.518  -7.921  0.00  0.00     0.229 C 
BRANCH  21  22
HETATM   22  N           1     -23.594  -4.217  -7.487  0.00  0.00    -0.079 N 
HETATM   23  H           1     -24.189  -5.067  -7.618  0.00  0.00     0.274 HD
HETATM   24  H           1     -23.595  -3.943  -6.479  0.00  0.00     0.274 HD
HETATM   25  H           1     -23.977  -3.433  -8.062  0.00  0.00     0.274 HD
ENDBRANCH  21  22
ENDBRANCH  20  21
ENDBRANCH  19  20
ENDBRANCH  18  19
ENDBRANCH   1  18
TORSDOF 12
ENDMDL
