MODEL 1
REMARK VINA RESULT:      -5.6      0.000      0.000
REMARK  10 active torsions:
REMARK  status: ('A' for Active; 'I' for Inactive)
REMARK    1  A    between atoms: C_4  and  C_23 
REMARK    2  A    between atoms: N_11  and  C_14 
REMARK    3  A    between atoms: Se_12  and  C_13 
REMARK    4  A    between atoms: C_13  and  C_14 
REMARK    5  A    between atoms: C_14  and  C_15 
REMARK       I    between atoms: C_15  and  N_16 
REMARK    6  A    between atoms: N_16  and  C_23 
REMARK    7  A    between atoms: O_18  and  P_20 
REMARK    8  A    between atoms: P_20  and  O_21 
REMARK    9  A    between atoms: O_21  and  C_22 
REMARK   10  A    between atoms: C_22  and  C_23 
ROOT
HETATM    1  H           1     -21.300  -4.195  -5.888  0.00  0.00     0.163 HD
HETATM    2  O           1     -21.231  -7.233  -6.667  0.00  0.00    -0.271 OA
HETATM    3  C           1     -21.190  -6.261  -5.951  0.00  0.00     0.249 C 
HETATM    4  N           1     -21.334  -5.009  -6.489  0.00  0.00    -0.343 N 
ENDROOT
BRANCH   4   5
HETATM    5  C           1     -21.534  -4.851  -7.915  0.00  0.00     0.210 C 
BRANCH   5   6
HETATM    6  C           1     -20.204  -4.599  -8.584  0.00  0.00     0.198 C 
HETATM    7  O           1     -19.201  -4.321  -7.893  0.00  0.00    -0.646 OA
HETATM    8  O           1     -20.107  -4.670  -9.828  0.00  0.00    -0.646 OA
ENDBRANCH   5   6
BRANCH   5   9
HETATM    9  C           1     -22.462  -3.671  -8.170  0.00  0.00     0.217 C 
BRANCH   9  10
HETATM   10  O           1     -23.657  -4.130  -8.740  0.00  0.00    -0.287 OA
BRANCH  10  11
HETATM   11  P           1     -23.784  -3.974 -10.342  0.00  0.00     0.406 P 
HETATM   12  O           1     -23.825  -5.316 -10.966  0.00  0.00    -0.624 OA
HETATM   13  O           1     -25.026  -3.240 -10.671  0.00  0.00    -0.624 OA
BRANCH  11  14
HETATM   14  O           1     -22.511  -3.156 -10.906  0.00  0.00    -0.300 OA
HETATM   15  H           1     -22.519  -2.338 -10.438  0.00  0.00     0.223 HD
ENDBRANCH  11  14
ENDBRANCH  10  11
ENDBRANCH   9  10
ENDBRANCH   5   9
ENDBRANCH   4   5
BRANCH   3  16
HETATM   16  C           1     -20.983  -6.425  -4.466  0.00  0.00     0.274 C 
BRANCH  16  17
HETATM   17  N           1     -22.269  -6.144  -3.748  0.00  0.00    -0.067 N 
HETATM   18  H           1     -22.076  -5.553  -2.908  0.00  0.00     0.275 HD
HETATM   19  H           1     -22.705  -7.045  -3.448  0.00  0.00     0.275 HD
HETATM   20  H           1     -22.921  -5.638  -4.388  0.00  0.00     0.275 HD
ENDBRANCH  16  17
BRANCH  16  21
HETATM   21  C           1     -20.536  -7.851  -4.170  0.00  0.00     0.045 C 
BRANCH  21  22
HETATM   22 Se           1     -20.606  -8.168  -2.248  0.00  0.00     0.000 Se
HETATM   23  H           1     -21.124  -6.828  -1.929  0.00  0.00     0.000 HD
ENDBRANCH  21  22
ENDBRANCH  16  21
ENDBRANCH   3  16
TORSDOF 10
ENDMDL
MODEL 2
REMARK VINA RESULT:      -4.6      3.203      4.509
REMARK  10 active torsions:
REMARK  status: ('A' for Active; 'I' for Inactive)
REMARK    1  A    between atoms: C_4  and  C_23 
REMARK    2  A    between atoms: N_11  and  C_14 
REMARK    3  A    between atoms: Se_12  and  C_13 
REMARK    4  A    between atoms: C_13  and  C_14 
REMARK    5  A    between atoms: C_14  and  C_15 
REMARK       I    between atoms: C_15  and  N_16 
REMARK    6  A    between atoms: N_16  and  C_23 
REMARK    7  A    between atoms: O_18  and  P_20 
REMARK    8  A    between atoms: P_20  and  O_21 
REMARK    9  A    between atoms: O_21  and  C_22 
REMARK   10  A    between atoms: C_22  and  C_23 
ROOT
HETATM    1  H           1     -21.538  -8.088  -6.664  0.00  0.00     0.163 HD
HETATM    2  O           1     -20.299  -9.253  -4.028  0.00  0.00    -0.271 OA
HETATM    3  C           1     -20.812  -9.261  -5.122  0.00  0.00     0.249 C 
HETATM    4  N           1     -21.108  -8.079  -5.748  0.00  0.00    -0.343 N 
ENDROOT
BRANCH   4   5
HETATM    5  C           1     -20.806  -6.819  -5.099  0.00  0.00     0.210 C 
BRANCH   5   6
HETATM    6  C           1     -22.018  -6.346  -4.334  0.00  0.00     0.198 C 
HETATM    7  O           1     -23.132  -6.296  -4.898  0.00  0.00    -0.646 OA
HETATM    8  O           1     -21.908  -6.003  -3.137  0.00  0.00    -0.646 OA
ENDBRANCH   5   6
BRANCH   5   9
HETATM    9  C           1     -20.433  -5.783  -6.151  0.00  0.00     0.217 C 
BRANCH   9  10
HETATM   10  O           1     -21.327  -5.865  -7.227  0.00  0.00    -0.287 OA
BRANCH  10  11
HETATM   11  P           1     -21.972  -4.470  -7.720  0.00  0.00     0.406 P 
HETATM   12  O           1     -21.205  -3.342  -7.144  0.00  0.00    -0.624 OA
HETATM   13  O           1     -21.922  -4.396  -9.197  0.00  0.00    -0.624 OA
BRANCH  11  14
HETATM   14  O           1     -23.508  -4.383  -7.230  0.00  0.00    -0.300 OA
HETATM   15  H           1     -23.963  -5.036  -7.734  0.00  0.00     0.223 HD
ENDBRANCH  11  14
ENDBRANCH  10  11
ENDBRANCH   9  10
ENDBRANCH   5   9
ENDBRANCH   4   5
BRANCH   3  16
HETATM   16  C           1     -21.125 -10.573  -5.798  0.00  0.00     0.274 C 
BRANCH  16  17
HETATM   17  N           1     -19.884 -11.110  -6.446  0.00  0.00    -0.067 N 
HETATM   18  H           1     -20.115 -11.463  -7.402  0.00  0.00     0.275 HD
HETATM   19  H           1     -19.500 -11.891  -5.868  0.00  0.00     0.275 HD
HETATM   20  H           1     -19.172 -10.348  -6.518  0.00  0.00     0.275 HD
ENDBRANCH  16  17
BRANCH  16  21
HETATM   21  C           1     -21.631 -11.570  -4.764  0.00  0.00     0.045 C 
BRANCH  21  22
HETATM   22 Se           1     -22.732 -12.917  -5.644  0.00  0.00     0.000 Se
HETATM   23  H           1     -22.080 -12.761  -6.954  0.00  0.00     0.000 HD
ENDBRANCH  21  22
ENDBRANCH  16  21
ENDBRANCH   3  16
TORSDOF 10
ENDMDL
MODEL 3
REMARK VINA RESULT:      -4.5      4.152      6.635
REMARK  10 active torsions:
REMARK  status: ('A' for Active; 'I' for Inactive)
REMARK    1  A    between atoms: C_4  and  C_23 
REMARK    2  A    between atoms: N_11  and  C_14 
REMARK    3  A    between atoms: Se_12  and  C_13 
REMARK    4  A    between atoms: C_13  and  C_14 
REMARK    5  A    between atoms: C_14  and  C_15 
REMARK       I    between atoms: C_15  and  N_16 
REMARK    6  A    between atoms: N_16  and  C_23 
REMARK    7  A    between atoms: O_18  and  P_20 
REMARK    8  A    between atoms: P_20  and  O_21 
REMARK    9  A    between atoms: O_21  and  C_22 
REMARK   10  A    between atoms: C_22  and  C_23 
ROOT
HETATM    1  H           1     -20.086  -6.099  -5.215  0.00  0.00     0.163 HD
HETATM    2  O           1     -22.926  -5.186  -6.188  0.00  0.00    -0.271 OA
HETATM    3  C           1     -21.720  -5.202  -6.114  0.00  0.00     0.249 C 
HETATM    4  N           1     -21.096  -6.087  -5.275  0.00  0.00    -0.343 N 
ENDROOT
BRANCH   4   5
HETATM    5  C           1     -21.883  -7.004  -4.475  0.00  0.00     0.210 C 
BRANCH   5   6
HETATM    6  C           1     -21.644  -6.725  -3.011  0.00  0.00     0.198 C 
HETATM    7  O           1     -22.351  -5.886  -2.412  0.00  0.00    -0.646 OA
HETATM    8  O           1     -20.740  -7.332  -2.398  0.00  0.00    -0.646 OA
ENDBRANCH   5   6
BRANCH   5   9
HETATM    9  C           1     -21.472  -8.435  -4.793  0.00  0.00     0.217 C 
BRANCH   9  10
HETATM   10  O           1     -20.334  -8.425  -5.612  0.00  0.00    -0.287 OA
BRANCH  10  11
HETATM   11  P           1     -19.145  -9.431  -5.186  0.00  0.00     0.406 P 
HETATM   12  O           1     -19.668 -10.816  -5.133  0.00  0.00    -0.624 OA
HETATM   13  O           1     -18.053  -9.355  -6.182  0.00  0.00    -0.624 OA
BRANCH  11  14
HETATM   14  O           1     -18.579  -9.012  -3.734  0.00  0.00    -0.300 OA
HETATM   15  H           1     -17.878  -8.407  -3.909  0.00  0.00     0.223 HD
ENDBRANCH  11  14
ENDBRANCH  10  11
ENDBRANCH   9  10
ENDBRANCH   5   9
ENDBRANCH   4   5
BRANCH   3  16
HETATM   16  C           1     -20.901  -4.247  -6.948  0.00  0.00     0.274 C 
BRANCH  16  17
HETATM   17  N           1     -19.575  -4.871  -7.264  0.00  0.00    -0.067 N 
HETATM   18  H           1     -19.525  -5.084  -8.286  0.00  0.00     0.275 HD
HETATM   19  H           1     -19.466  -5.755  -6.717  0.00  0.00     0.275 HD
HETATM   20  H           1     -18.809  -4.208  -7.008  0.00  0.00     0.275 HD
ENDBRANCH  16  17
BRANCH  16  21
HETATM   21  C           1     -21.641  -3.941  -8.244  0.00  0.00     0.045 C 
BRANCH  21  22
HETATM   22 Se           1     -20.478  -4.323  -9.761  0.00  0.00     0.000 Se
HETATM   23  H           1     -19.249  -4.380  -8.953  0.00  0.00     0.000 HD
ENDBRANCH  21  22
ENDBRANCH  16  21
ENDBRANCH   3  16
TORSDOF 10
ENDMDL
MODEL 4
REMARK VINA RESULT:      -4.5      4.744      7.040
REMARK  10 active torsions:
REMARK  status: ('A' for Active; 'I' for Inactive)
REMARK    1  A    between atoms: C_4  and  C_23 
REMARK    2  A    between atoms: N_11  and  C_14 
REMARK    3  A    between atoms: Se_12  and  C_13 
REMARK    4  A    between atoms: C_13  and  C_14 
REMARK    5  A    between atoms: C_14  and  C_15 
REMARK       I    between atoms: C_15  and  N_16 
REMARK    6  A    between atoms: N_16  and  C_23 
REMARK    7  A    between atoms: O_18  and  P_20 
REMARK    8  A    between atoms: P_20  and  O_21 
REMARK    9  A    between atoms: O_21  and  C_22 
REMARK   10  A    between atoms: C_22  and  C_23 
ROOT
HETATM    1  H           1     -21.809  -7.155  -6.643  0.00  0.00     0.163 HD
HETATM    2  O           1     -19.929  -4.787  -5.806  0.00  0.00    -0.271 OA
HETATM    3  C           1     -20.722  -5.401  -6.479  0.00  0.00     0.249 C 
HETATM    4  N           1     -21.144  -6.642  -6.079  0.00  0.00    -0.343 N 
ENDROOT
BRANCH   4   5
HETATM    5  C           1     -20.637  -7.217  -4.849  0.00  0.00     0.210 C 
BRANCH   5   6
HETATM    6  C           1     -20.433  -8.701  -5.036  0.00  0.00     0.198 C 
HETATM    7  O           1     -19.395  -9.123  -5.588  0.00  0.00    -0.646 OA
HETATM    8  O           1     -21.302  -9.507  -4.639  0.00  0.00    -0.646 OA
ENDBRANCH   5   6
BRANCH   5   9
HETATM    9  C           1     -21.640  -6.980  -3.728  0.00  0.00     0.217 C 
BRANCH   9  10
HETATM   10  O           1     -20.974  -6.987  -2.494  0.00  0.00    -0.287 OA
BRANCH  10  11
HETATM   11  P           1     -21.696  -7.803  -1.303  0.00  0.00     0.406 P 
HETATM   12  O           1     -20.699  -8.136  -0.260  0.00  0.00    -0.624 OA
HETATM   13  O           1     -22.768  -6.972  -0.713  0.00  0.00    -0.624 OA
BRANCH  11  14
HETATM   14  O           1     -22.334  -9.164  -1.893  0.00  0.00    -0.300 OA
HETATM   15  H           1     -21.827  -9.859  -1.508  0.00  0.00     0.223 HD
ENDBRANCH  11  14
ENDBRANCH  10  11
ENDBRANCH   9  10
ENDBRANCH   5   9
ENDBRANCH   4   5
BRANCH   3  16
HETATM   16  C           1     -21.250  -4.801  -7.759  0.00  0.00     0.274 C 
BRANCH  16  17
HETATM   17  N           1     -21.968  -3.521  -7.451  0.00  0.00    -0.067 N 
HETATM   18  H           1     -21.780  -3.246  -6.461  0.00  0.00     0.275 HD
HETATM   19  H           1     -22.995  -3.656  -7.587  0.00  0.00     0.275 HD
HETATM   20  H           1     -21.628  -2.769  -8.092  0.00  0.00     0.275 HD
ENDBRANCH  16  17
BRANCH  16  21
HETATM   21  C           1     -20.090  -4.518  -8.704  0.00  0.00     0.045 C 
BRANCH  21  22
HETATM   22 Se           1     -20.781  -4.138 -10.486  0.00  0.00     0.000 Se
HETATM   23  H           1     -19.457  -3.868 -11.069  0.00  0.00     0.000 HD
ENDBRANCH  21  22
ENDBRANCH  16  21
ENDBRANCH   3  16
TORSDOF 10
ENDMDL
MODEL 5
REMARK VINA RESULT:      -4.4      4.240      5.948
REMARK  10 active torsions:
REMARK  status: ('A' for Active; 'I' for Inactive)
REMARK    1  A    between atoms: C_4  and  C_23 
REMARK    2  A    between atoms: N_11  and  C_14 
REMARK    3  A    between atoms: Se_12  and  C_13 
REMARK    4  A    between atoms: C_13  and  C_14 
REMARK    5  A    between atoms: C_14  and  C_15 
REMARK       I    between atoms: C_15  and  N_16 
REMARK    6  A    between atoms: N_16  and  C_23 
REMARK    7  A    between atoms: O_18  and  P_20 
REMARK    8  A    between atoms: P_20  and  O_21 
REMARK    9  A    between atoms: O_21  and  C_22 
REMARK   10  A    between atoms: C_22  and  C_23 
ROOT
HETATM    1  H           1     -21.841  -8.582  -3.985  0.00  0.00     0.163 HD
HETATM    2  O           1     -18.900  -9.000  -2.977  0.00  0.00    -0.271 OA
HETATM    3  C           1     -19.891  -9.184  -3.642  0.00  0.00     0.249 C 
HETATM    4  N           1     -21.011  -8.427  -3.426  0.00  0.00    -0.343 N 
ENDROOT
BRANCH   4   5
HETATM    5  C           1     -21.008  -7.404  -2.399  0.00  0.00     0.210 C 
BRANCH   5   6
HETATM    6  C           1     -22.033  -7.746  -1.346  0.00  0.00     0.198 C 
HETATM    7  O           1     -22.220  -8.938  -1.020  0.00  0.00    -0.646 OA
HETATM    8  O           1     -22.696  -6.838  -0.801  0.00  0.00    -0.646 OA
ENDBRANCH   5   6
BRANCH   5   9
HETATM    9  C           1     -21.350  -6.058  -3.023  0.00  0.00     0.217 C 
BRANCH   9  10
HETATM   10  O           1     -22.171  -6.255  -4.142  0.00  0.00    -0.287 OA
BRANCH  10  11
HETATM   11  P           1     -21.541  -5.831  -5.567  0.00  0.00     0.406 P 
HETATM   12  O           1     -21.116  -7.046  -6.299  0.00  0.00    -0.624 OA
HETATM   13  O           1     -22.559  -5.109  -6.362  0.00  0.00    -0.624 OA
BRANCH  11  14
HETATM   14  O           1     -20.265  -4.871  -5.328  0.00  0.00    -0.300 OA
HETATM   15  H           1     -19.556  -5.454  -5.118  0.00  0.00     0.223 HD
ENDBRANCH  11  14
ENDBRANCH  10  11
ENDBRANCH   9  10
ENDBRANCH   5   9
ENDBRANCH   4   5
BRANCH   3  16
HETATM   16  C           1     -19.894 -10.249  -4.712  0.00  0.00     0.274 C 
BRANCH  16  17
HETATM   17  N           1     -20.972  -9.950  -5.711  0.00  0.00    -0.067 N 
HETATM   18  H           1     -21.012  -8.920  -5.882  0.00  0.00     0.275 HD
HETATM   19  H           1     -21.892 -10.278  -5.339  0.00  0.00     0.275 HD
HETATM   20  H           1     -20.763 -10.445  -6.607  0.00  0.00     0.275 HD
ENDBRANCH  16  17
BRANCH  16  21
HETATM   21  C           1     -18.543 -10.269  -5.413  0.00  0.00     0.045 C 
BRANCH  21  22
HETATM   22 Se           1     -17.567 -11.876  -4.898  0.00  0.00     0.000 Se
HETATM   23  H           1     -16.271 -11.190  -4.776  0.00  0.00     0.000 HD
ENDBRANCH  21  22
ENDBRANCH  16  21
ENDBRANCH   3  16
TORSDOF 10
ENDMDL
MODEL 6
REMARK VINA RESULT:      -4.4      5.679      8.520
REMARK  10 active torsions:
REMARK  status: ('A' for Active; 'I' for Inactive)
REMARK    1  A    between atoms: C_4  and  C_23 
REMARK    2  A    between atoms: N_11  and  C_14 
REMARK    3  A    between atoms: Se_12  and  C_13 
REMARK    4  A    between atoms: C_13  and  C_14 
REMARK    5  A    between atoms: C_14  and  C_15 
REMARK       I    between atoms: C_15  and  N_16 
REMARK    6  A    between atoms: N_16  and  C_23 
REMARK    7  A    between atoms: O_18  and  P_20 
REMARK    8  A    between atoms: P_20  and  O_21 
REMARK    9  A    between atoms: O_21  and  C_22 
REMARK   10  A    between atoms: C_22  and  C_23 
ROOT
HETATM    1  H           1     -19.902  -6.425  -3.062  0.00  0.00     0.163 HD
HETATM    2  O           1     -22.219  -7.458  -4.908  0.00  0.00    -0.271 OA
HETATM    3  C           1     -21.211  -6.864  -4.603  0.00  0.00     0.249 C 
HETATM    4  N           1     -20.746  -6.922  -3.316  0.00  0.00    -0.343 N 
ENDROOT
BRANCH   4   5
HETATM    5  C           1     -21.462  -7.694  -2.321  0.00  0.00     0.210 C 
BRANCH   5   6
HETATM    6  C           1     -22.283  -6.766  -1.460  0.00  0.00     0.198 C 
HETATM    7  O           1     -22.380  -5.557  -1.762  0.00  0.00    -0.646 OA
HETATM    8  O           1     -22.866  -7.205  -0.445  0.00  0.00    -0.646 OA
ENDBRANCH   5   6
BRANCH   5   9
HETATM    9  C           1     -20.465  -8.446  -1.449  0.00  0.00     0.217 C 
BRANCH   9  10
HETATM   10  O           1     -20.874  -9.780  -1.313  0.00  0.00    -0.287 OA
BRANCH  10  11
HETATM   11  P           1     -21.057 -10.316   0.198  0.00  0.00     0.406 P 
HETATM   12  O           1     -22.315 -11.090   0.298  0.00  0.00    -0.624 OA
HETATM   13  O           1     -19.914 -11.185   0.557  0.00  0.00    -0.624 OA
BRANCH  11  14
HETATM   14  O           1     -21.114  -9.060   1.212  0.00  0.00    -0.300 OA
HETATM   15  H           1     -21.008  -9.433   2.070  0.00  0.00     0.223 HD
ENDBRANCH  11  14
ENDBRANCH  10  11
ENDBRANCH   9  10
ENDBRANCH   5   9
ENDBRANCH   4   5
BRANCH   3  16
HETATM   16  C           1     -20.466  -6.061  -5.640  0.00  0.00     0.274 C 
BRANCH  16  17
HETATM   17  N           1     -19.820  -6.991  -6.623  0.00  0.00    -0.067 N 
HETATM   18  H           1     -20.039  -6.677  -7.595  0.00  0.00     0.275 HD
HETATM   19  H           1     -20.184  -7.959  -6.478  0.00  0.00     0.275 HD
HETATM   20  H           1     -18.785  -6.984  -6.479  0.00  0.00     0.275 HD
ENDBRANCH  16  17
BRANCH  16  21
HETATM   21  C           1     -21.439  -5.146  -6.371  0.00  0.00     0.045 C 
BRANCH  21  22
HETATM   22 Se           1     -20.491  -4.171  -7.767  0.00  0.00     0.000 Se
HETATM   23  H           1     -19.712  -5.337  -8.213  0.00  0.00     0.000 HD
ENDBRANCH  21  22
ENDBRANCH  16  21
ENDBRANCH   3  16
TORSDOF 10
ENDMDL
MODEL 7
REMARK VINA RESULT:      -4.3      5.269      7.758
REMARK  10 active torsions:
REMARK  status: ('A' for Active; 'I' for Inactive)
REMARK    1  A    between atoms: C_4  and  C_23 
REMARK    2  A    between atoms: N_11  and  C_14 
REMARK    3  A    between atoms: Se_12  and  C_13 
REMARK    4  A    between atoms: C_13  and  C_14 
REMARK    5  A    between atoms: C_14  and  C_15 
REMARK       I    between atoms: C_15  and  N_16 
REMARK    6  A    between atoms: N_16  and  C_23 
REMARK    7  A    between atoms: O_18  and  P_20 
REMARK    8  A    between atoms: P_20  and  O_21 
REMARK    9  A    between atoms: O_21  and  C_22 
REMARK   10  A    between atoms: C_22  and  C_23 
ROOT
HETATM    1  H           1     -22.222  -7.889  -3.590  0.00  0.00     0.163 HD
HETATM    2  O           1     -20.033  -8.261  -5.806  0.00  0.00    -0.271 OA
HETATM    3  C           1     -20.945  -7.737  -5.211  0.00  0.00     0.249 C 
HETATM    4  N           1     -21.458  -8.329  -4.088  0.00  0.00    -0.343 N 
ENDROOT
BRANCH   4   5
HETATM    5  C           1     -20.909  -9.583  -3.613  0.00  0.00     0.210 C 
BRANCH   5   6
HETATM    6  C           1     -21.895 -10.695  -3.875  0.00  0.00     0.198 C 
HETATM    7  O           1     -22.806 -10.928  -3.053  0.00  0.00    -0.646 OA
HETATM    8  O           1     -21.801 -11.383  -4.915  0.00  0.00    -0.646 OA
ENDBRANCH   5   6
BRANCH   5   9
HETATM    9  C           1     -20.639  -9.485  -2.118  0.00  0.00     0.217 C 
BRANCH   9  10
HETATM   10  O           1     -21.060  -8.233  -1.647  0.00  0.00    -0.287 OA
BRANCH  10  11
HETATM   11  P           1     -22.074  -8.252  -0.391  0.00  0.00     0.406 P 
HETATM   12  O           1     -21.297  -8.280   0.869  0.00  0.00    -0.624 OA
HETATM   13  O           1     -22.920  -7.039  -0.421  0.00  0.00    -0.624 OA
BRANCH  11  14
HETATM   14  O           1     -23.012  -9.564  -0.476  0.00  0.00    -0.300 OA
HETATM   15  H           1     -22.433 -10.289  -0.316  0.00  0.00     0.223 HD
ENDBRANCH  11  14
ENDBRANCH  10  11
ENDBRANCH   9  10
ENDBRANCH   5   9
ENDBRANCH   4   5
BRANCH   3  16
HETATM   16  C           1     -21.516  -6.431  -5.705  0.00  0.00     0.274 C 
BRANCH  16  17
HETATM   17  N           1     -22.803  -6.147  -4.989  0.00  0.00    -0.067 N 
HETATM   18  H           1     -22.842  -6.707  -4.108  0.00  0.00     0.275 HD
HETATM   19  H           1     -23.608  -6.404  -5.603  0.00  0.00     0.275 HD
HETATM   20  H           1     -22.854  -5.129  -4.757  0.00  0.00     0.275 HD
ENDBRANCH  16  17
BRANCH  16  21
HETATM   21  C           1     -20.525  -5.308  -5.436  0.00  0.00     0.045 C 
BRANCH  21  22
HETATM   22 Se           1     -19.643  -4.806  -7.100  0.00  0.00     0.000 Se
HETATM   23  H           1     -18.613  -3.985  -6.442  0.00  0.00     0.000 HD
ENDBRANCH  21  22
ENDBRANCH  16  21
ENDBRANCH   3  16
TORSDOF 10
ENDMDL
MODEL 8
REMARK VINA RESULT:      -4.3      4.467      6.364
REMARK  10 active torsions:
REMARK  status: ('A' for Active; 'I' for Inactive)
REMARK    1  A    between atoms: C_4  and  C_23 
REMARK    2  A    between atoms: N_11  and  C_14 
REMARK    3  A    between atoms: Se_12  and  C_13 
REMARK    4  A    between atoms: C_13  and  C_14 
REMARK    5  A    between atoms: C_14  and  C_15 
REMARK       I    between atoms: C_15  and  N_16 
REMARK    6  A    between atoms: N_16  and  C_23 
REMARK    7  A    between atoms: O_18  and  P_20 
REMARK    8  A    between atoms: P_20  and  O_21 
REMARK    9  A    between atoms: O_21  and  C_22 
REMARK   10  A    between atoms: C_22  and  C_23 
ROOT
HETATM    1  H           1     -22.709  -9.328  -1.763  0.00  0.00     0.163 HD
HETATM    2  O           1     -19.603  -9.768  -1.750  0.00  0.00    -0.271 OA
HETATM    3  C           1     -20.771 -10.032  -1.588  0.00  0.00     0.249 C 
HETATM    4  N           1     -21.731  -9.106  -1.899  0.00  0.00    -0.343 N 
ENDROOT
BRANCH   4   5
HETATM    5  C           1     -21.347  -7.811  -2.422  0.00  0.00     0.210 C 
BRANCH   5   6
HETATM    6  C           1     -22.115  -6.730  -1.702  0.00  0.00     0.198 C 
HETATM    7  O           1     -22.102  -5.559  -2.137  0.00  0.00    -0.646 OA
HETATM    8  O           1     -22.764  -7.006  -0.670  0.00  0.00    -0.646 OA
ENDBRANCH   5   6
BRANCH   5   9
HETATM    9  C           1     -21.662  -7.752  -3.911  0.00  0.00     0.217 C 
BRANCH   9  10
HETATM   10  O           1     -20.600  -7.139  -4.591  0.00  0.00    -0.287 OA
BRANCH  10  11
HETATM   11  P           1     -21.004  -5.985  -5.644  0.00  0.00     0.406 P 
HETATM   12  O           1     -22.458  -5.724  -5.556  0.00  0.00    -0.624 OA
HETATM   13  O           1     -20.261  -4.745  -5.328  0.00  0.00    -0.624 OA
BRANCH  11  14
HETATM   14  O           1     -20.632  -6.467  -7.140  0.00  0.00    -0.300 OA
HETATM   15  H           1     -20.230  -7.312  -7.032  0.00  0.00     0.223 HD
ENDBRANCH  11  14
ENDBRANCH  10  11
ENDBRANCH   9  10
ENDBRANCH   5   9
ENDBRANCH   4   5
BRANCH   3  16
HETATM   16  C           1     -21.171 -11.381  -1.043  0.00  0.00     0.274 C 
BRANCH  16  17
HETATM   17  N           1     -21.225 -11.319   0.454  0.00  0.00    -0.067 N 
HETATM   18  H           1     -20.314 -11.646   0.849  0.00  0.00     0.275 HD
HETATM   19  H           1     -21.997 -11.932   0.801  0.00  0.00     0.275 HD
HETATM   20  H           1     -21.402 -10.334   0.756  0.00  0.00     0.275 HD
ENDBRANCH  16  17
BRANCH  16  21
HETATM   21  C           1     -22.542 -11.762  -1.586  0.00  0.00     0.045 C 
BRANCH  21  22
HETATM   22 Se           1     -22.341 -12.565  -3.351  0.00  0.00     0.000 Se
HETATM   23  H           1     -22.422 -11.283  -4.070  0.00  0.00     0.000 HD
ENDBRANCH  21  22
ENDBRANCH  16  21
ENDBRANCH   3  16
TORSDOF 10
ENDMDL
MODEL 9
REMARK VINA RESULT:      -4.3      4.904      6.735
REMARK  10 active torsions:
REMARK  status: ('A' for Active; 'I' for Inactive)
REMARK    1  A    between atoms: C_4  and  C_23 
REMARK    2  A    between atoms: N_11  and  C_14 
REMARK    3  A    between atoms: Se_12  and  C_13 
REMARK    4  A    between atoms: C_13  and  C_14 
REMARK    5  A    between atoms: C_14  and  C_15 
REMARK       I    between atoms: C_15  and  N_16 
REMARK    6  A    between atoms: N_16  and  C_23 
REMARK    7  A    between atoms: O_18  and  P_20 
REMARK    8  A    between atoms: P_20  and  O_21 
REMARK    9  A    between atoms: O_21  and  C_22 
REMARK   10  A    between atoms: C_22  and  C_23 
ROOT
HETATM    1  H           1     -22.463  -9.109  -3.115  0.00  0.00     0.163 HD
HETATM    2  O           1     -19.712  -8.540  -1.719  0.00  0.00    -0.271 OA
HETATM    3  C           1     -20.789  -9.056  -1.900  0.00  0.00     0.249 C 
HETATM    4  N           1     -21.561  -8.675  -2.964  0.00  0.00    -0.343 N 
ENDROOT
BRANCH   4   5
HETATM    5  C           1     -21.087  -7.651  -3.874  0.00  0.00     0.210 C 
BRANCH   5   6
HETATM    6  C           1     -22.044  -6.485  -3.860  0.00  0.00     0.198 C 
HETATM    7  O           1     -22.507  -6.044  -4.934  0.00  0.00    -0.646 OA
HETATM    8  O           1     -22.374  -5.959  -2.775  0.00  0.00    -0.646 OA
ENDBRANCH   5   6
BRANCH   5   9
HETATM    9  C           1     -21.004  -8.224  -5.283  0.00  0.00     0.217 C 
BRANCH   9  10
HETATM   10  O           1     -19.662  -8.298  -5.680  0.00  0.00    -0.287 OA
BRANCH  10  11
HETATM   11  P           1     -18.873  -9.643  -5.265  0.00  0.00     0.406 P 
HETATM   12  O           1     -19.850 -10.694  -4.900  0.00  0.00    -0.624 OA
HETATM   13  O           1     -18.053 -10.108  -6.406  0.00  0.00    -0.624 OA
BRANCH  11  14
HETATM   14  O           1     -17.913  -9.337  -4.003  0.00  0.00    -0.300 OA
HETATM   15  H           1     -18.471  -8.929  -3.364  0.00  0.00     0.223 HD
ENDBRANCH  11  14
ENDBRANCH  10  11
ENDBRANCH   9  10
ENDBRANCH   5   9
ENDBRANCH   4   5
BRANCH   3  16
HETATM   16  C           1     -21.282 -10.123  -0.953  0.00  0.00     0.274 C 
BRANCH  16  17
HETATM   17  N           1     -20.292 -11.248  -0.909  0.00  0.00    -0.067 N 
HETATM   18  H           1     -19.325 -10.858  -0.847  0.00  0.00     0.275 HD
HETATM   19  H           1     -20.382 -11.825  -1.775  0.00  0.00     0.275 HD
HETATM   20  H           1     -20.481 -11.846  -0.073  0.00  0.00     0.275 HD
ENDBRANCH  16  17
BRANCH  16  21
HETATM   21  C           1     -21.440  -9.531   0.441  0.00  0.00     0.045 C 
BRANCH  21  22
HETATM   22 Se           1     -22.811  -8.145   0.407  0.00  0.00     0.000 Se
HETATM   23  H           1     -22.219  -7.426  -0.732  0.00  0.00     0.000 HD
ENDBRANCH  21  22
ENDBRANCH  16  21
ENDBRANCH   3  16
TORSDOF 10
ENDMDL
