MODEL 1
REMARK VINA RESULT:      -6.6      0.000      0.000
REMARK  6 active torsions:
REMARK  status: ('A' for Active; 'I' for Inactive)
REMARK    1  A    between atoms: C_2  and  C_3 
REMARK    2  A    between atoms: C_3  and  C_14 
REMARK    3  A    between atoms: C_3  and  N_13 
REMARK       I    between atoms: N_8  and  C_10 
REMARK    4  A    between atoms: C_10  and  C_17 
REMARK       I    between atoms: N_13  and  C_20 
REMARK    5  A    between atoms: C_14  and  C_17 
REMARK    6  A    between atoms: C_20  and  C_21 
ROOT
HETATM    1  C           1     -26.541  -6.919 -20.147  0.00  0.00     0.186 C 
ENDROOT
BRANCH   1   2
HETATM    2  C           1     -26.373  -8.010 -21.176  0.00  0.00     0.196 C 
HETATM    3  O           1     -25.258  -8.202 -21.706  0.00  0.00    -0.646 OA
HETATM    4  O           1     -27.349  -8.721 -21.498  0.00  0.00    -0.646 OA
ENDBRANCH   1   2
BRANCH   1   5
HETATM    5  C           1     -25.228  -6.719 -19.402  0.00  0.00     0.045 C 
BRANCH   5   6
HETATM    6  C           1     -25.500  -6.638 -17.906  0.00  0.00     0.105 C 
BRANCH   6   7
HETATM    7  C           1     -24.388  -7.326 -17.153  0.00  0.00     0.215 C 
HETATM    8  N           1     -23.137  -7.407 -17.705  0.00  0.00    -0.370 N 
HETATM    9  H           1     -22.391  -7.868 -17.200  0.00  0.00     0.159 HD
HETATM   10  H           1     -22.959  -7.006 -18.617  0.00  0.00     0.159 HD
HETATM   11  O           1     -24.600  -7.805 -16.065  0.00  0.00    -0.274 OA
ENDBRANCH   6   7
ENDBRANCH   5   6
ENDBRANCH   1   5
BRANCH   1  12
HETATM   12  N           1     -27.579  -7.298 -19.208  0.00  0.00    -0.345 N 
HETATM   13  H           1     -27.642  -8.253 -18.881  0.00  0.00     0.163 HD
HETATM   14  C           1     -28.474  -6.362 -18.762  0.00  0.00     0.251 C 
HETATM   15  O           1     -28.399  -5.221 -19.152  0.00  0.00    -0.271 OA
BRANCH  14  16
HETATM   16  C           1     -29.553  -6.756 -17.784  0.00  0.00     0.311 C 
HETATM   17  N           1     -29.050  -7.730 -16.819  0.00  0.00     0.097 N 
HETATM   18  C           1     -28.284  -6.944 -15.855  0.00  0.00     0.271 C 
HETATM   19  H           1     -29.821  -8.197 -16.342  0.00  0.00     0.317 HD
HETATM   20  C           1     -29.123  -5.694 -15.657  0.00  0.00     0.033 C 
HETATM   21  C           1     -29.962  -5.573 -16.924  0.00  0.00     0.047 C 
ENDBRANCH  14  16
ENDBRANCH   1  12
TORSDOF 6
ENDMDL
MODEL 2
REMARK VINA RESULT:      -6.4      1.892      3.814
REMARK  6 active torsions:
REMARK  status: ('A' for Active; 'I' for Inactive)
REMARK    1  A    between atoms: C_2  and  C_3 
REMARK    2  A    between atoms: C_3  and  C_14 
REMARK    3  A    between atoms: C_3  and  N_13 
REMARK       I    between atoms: N_8  and  C_10 
REMARK    4  A    between atoms: C_10  and  C_17 
REMARK       I    between atoms: N_13  and  C_20 
REMARK    5  A    between atoms: C_14  and  C_17 
REMARK    6  A    between atoms: C_20  and  C_21 
ROOT
HETATM    1  C           1     -25.671  -7.053 -17.385  0.00  0.00     0.186 C 
ENDROOT
BRANCH   1   2
HETATM    2  C           1     -24.825  -7.449 -16.200  0.00  0.00     0.196 C 
HETATM    3  O           1     -25.103  -7.015 -15.062  0.00  0.00    -0.646 OA
HETATM    4  O           1     -23.846  -8.209 -16.358  0.00  0.00    -0.646 OA
ENDBRANCH   1   2
BRANCH   1   5
HETATM    5  C           1     -24.767  -6.719 -18.565  0.00  0.00     0.045 C 
BRANCH   5   6
HETATM    6  C           1     -25.581  -6.744 -19.851  0.00  0.00     0.105 C 
BRANCH   6   7
HETATM    7  C           1     -25.120  -7.890 -20.718  0.00  0.00     0.215 C 
HETATM    8  N           1     -23.823  -8.324 -20.645  0.00  0.00    -0.370 N 
HETATM    9  H           1     -23.514  -9.093 -21.225  0.00  0.00     0.159 HD
HETATM   10  H           1     -23.175  -7.876 -20.010  0.00  0.00     0.159 HD
HETATM   11  O           1     -25.894  -8.426 -21.475  0.00  0.00    -0.274 OA
ENDBRANCH   6   7
ENDBRANCH   5   6
ENDBRANCH   1   5
BRANCH   1  12
HETATM   12  N           1     -26.468  -5.891 -17.042  0.00  0.00    -0.345 N 
HETATM   13  H           1     -26.081  -4.962 -17.144  0.00  0.00     0.163 HD
HETATM   14  C           1     -27.748  -6.051 -16.580  0.00  0.00     0.251 C 
HETATM   15  O           1     -28.211  -7.160 -16.458  0.00  0.00    -0.271 OA
BRANCH  14  16
HETATM   16  C           1     -28.577  -4.843 -16.222  0.00  0.00     0.311 C 
HETATM   17  N           1     -28.607  -3.888 -17.327  0.00  0.00     0.097 N 
HETATM   18  C           1     -29.577  -4.435 -18.272  0.00  0.00     0.271 C 
HETATM   19  H           1     -28.923  -2.973 -17.005  0.00  0.00     0.317 HD
HETATM   20  C           1     -30.692  -4.960 -17.384  0.00  0.00     0.033 C 
HETATM   21  C           1     -30.035  -5.223 -16.035  0.00  0.00     0.047 C 
ENDBRANCH  14  16
ENDBRANCH   1  12
TORSDOF 6
ENDMDL
MODEL 3
REMARK VINA RESULT:      -6.3      1.779      3.237
REMARK  6 active torsions:
REMARK  status: ('A' for Active; 'I' for Inactive)
REMARK    1  A    between atoms: C_2  and  C_3 
REMARK    2  A    between atoms: C_3  and  C_14 
REMARK    3  A    between atoms: C_3  and  N_13 
REMARK       I    between atoms: N_8  and  C_10 
REMARK    4  A    between atoms: C_10  and  C_17 
REMARK       I    between atoms: N_13  and  C_20 
REMARK    5  A    between atoms: C_14  and  C_17 
REMARK    6  A    between atoms: C_20  and  C_21 
ROOT
HETATM    1  C           1     -26.076  -6.935 -19.009  0.00  0.00     0.186 C 
ENDROOT
BRANCH   1   2
HETATM    2  C           1     -24.878  -6.739 -18.112  0.00  0.00     0.196 C 
HETATM    3  O           1     -23.724  -6.829 -18.582  0.00  0.00    -0.646 OA
HETATM    4  O           1     -25.041  -6.485 -16.899  0.00  0.00    -0.646 OA
ENDBRANCH   1   2
BRANCH   1   5
HETATM    5  C           1     -25.680  -6.646 -20.452  0.00  0.00     0.045 C 
BRANCH   5   6
HETATM    6  C           1     -25.626  -7.951 -21.234  0.00  0.00     0.105 C 
BRANCH   6   7
HETATM    7  C           1     -24.224  -8.175 -21.744  0.00  0.00     0.215 C 
HETATM    8  N           1     -23.254  -8.643 -20.897  0.00  0.00    -0.370 N 
HETATM    9  H           1     -22.314  -8.794 -21.238  0.00  0.00     0.159 HD
HETATM   10  H           1     -23.480  -8.838 -19.930  0.00  0.00     0.159 HD
HETATM   11  O           1     -23.955  -7.943 -22.899  0.00  0.00    -0.274 OA
ENDBRANCH   6   7
ENDBRANCH   5   6
ENDBRANCH   1   5
BRANCH   1  12
HETATM   12  N           1     -27.134  -6.030 -18.606  0.00  0.00    -0.345 N 
HETATM   13  H           1     -26.913  -5.082 -18.331  0.00  0.00     0.163 HD
HETATM   14  C           1     -28.435  -6.459 -18.598  0.00  0.00     0.251 C 
HETATM   15  O           1     -28.700  -7.591 -18.926  0.00  0.00    -0.271 OA
BRANCH  14  16
HETATM   16  C           1     -29.537  -5.517 -18.178  0.00  0.00     0.311 C 
HETATM   17  N           1     -30.186  -5.988 -16.958  0.00  0.00     0.097 N 
HETATM   18  C           1     -29.278  -5.613 -15.878  0.00  0.00     0.271 C 
HETATM   19  H           1     -31.085  -5.524 -16.824  0.00  0.00     0.317 HD
HETATM   20  C           1     -28.796  -4.227 -16.275  0.00  0.00     0.033 C 
HETATM   21  C           1     -28.972  -4.164 -17.787  0.00  0.00     0.047 C 
ENDBRANCH  14  16
ENDBRANCH   1  12
TORSDOF 6
ENDMDL
MODEL 4
REMARK VINA RESULT:      -5.9     10.508     12.913
REMARK  6 active torsions:
REMARK  status: ('A' for Active; 'I' for Inactive)
REMARK    1  A    between atoms: C_2  and  C_3 
REMARK    2  A    between atoms: C_3  and  C_14 
REMARK    3  A    between atoms: C_3  and  N_13 
REMARK       I    between atoms: N_8  and  C_10 
REMARK    4  A    between atoms: C_10  and  C_17 
REMARK       I    between atoms: N_13  and  C_20 
REMARK    5  A    between atoms: C_14  and  C_17 
REMARK    6  A    between atoms: C_20  and  C_21 
ROOT
HETATM    1  C           1     -21.631  -4.670  -8.389  0.00  0.00     0.186 C 
ENDROOT
BRANCH   1   2
HETATM    2  C           1     -20.451  -4.305  -9.256  0.00  0.00     0.196 C 
HETATM    3  O           1     -19.435  -3.788  -8.744  0.00  0.00    -0.646 OA
HETATM    4  O           1     -20.489  -4.520 -10.487  0.00  0.00    -0.646 OA
ENDBRANCH   1   2
BRANCH   1   5
HETATM    5  C           1     -22.700  -3.593  -8.510  0.00  0.00     0.045 C 
BRANCH   5   6
HETATM    6  C           1     -24.013  -4.228  -8.949  0.00  0.00     0.105 C 
BRANCH   6   7
HETATM    7  C           1     -24.201  -4.024 -10.432  0.00  0.00     0.215 C 
HETATM    8  N           1     -23.513  -4.803 -11.323  0.00  0.00    -0.370 N 
HETATM    9  H           1     -23.639  -4.666 -12.317  0.00  0.00     0.159 HD
HETATM   10  H           1     -22.878  -5.515 -10.986  0.00  0.00     0.159 HD
HETATM   11  O           1     -24.960  -3.174 -10.833  0.00  0.00    -0.274 OA
ENDBRANCH   6   7
ENDBRANCH   5   6
ENDBRANCH   1   5
BRANCH   1  12
HETATM   12  N           1     -21.200  -4.773  -7.008  0.00  0.00    -0.345 N 
HETATM   13  H           1     -21.079  -3.937  -6.452  0.00  0.00     0.163 HD
HETATM   14  C           1     -20.958  -6.003  -6.456  0.00  0.00     0.251 C 
HETATM   15  O           1     -21.102  -7.002  -7.120  0.00  0.00    -0.271 OA
BRANCH  14  16
HETATM   16  C           1     -20.510  -6.110  -5.019  0.00  0.00     0.311 C 
HETATM   17  N           1     -21.591  -5.742  -4.110  0.00  0.00     0.097 N 
HETATM   18  C           1     -22.460  -6.916  -4.062  0.00  0.00     0.271 C 
HETATM   19  H           1     -21.228  -5.549  -3.176  0.00  0.00     0.317 HD
HETATM   20  C           1     -21.489  -8.084  -4.028  0.00  0.00     0.033 C 
HETATM   21  C           1     -20.205  -7.552  -4.654  0.00  0.00     0.047 C 
ENDBRANCH  14  16
ENDBRANCH   1  12
TORSDOF 6
ENDMDL
MODEL 5
REMARK VINA RESULT:      -5.8     15.262     17.654
REMARK  6 active torsions:
REMARK  status: ('A' for Active; 'I' for Inactive)
REMARK    1  A    between atoms: C_2  and  C_3 
REMARK    2  A    between atoms: C_3  and  C_14 
REMARK    3  A    between atoms: C_3  and  N_13 
REMARK       I    between atoms: N_8  and  C_10 
REMARK    4  A    between atoms: C_10  and  C_17 
REMARK       I    between atoms: N_13  and  C_20 
REMARK    5  A    between atoms: C_14  and  C_17 
REMARK    6  A    between atoms: C_20  and  C_21 
ROOT
HETATM    1  C           1     -21.191  -7.846  -1.740  0.00  0.00     0.186 C 
ENDROOT
BRANCH   1   2
HETATM    2  C           1     -22.300  -6.918  -1.310  0.00  0.00     0.196 C 
HETATM    3  O           1     -22.974  -7.180  -0.290  0.00  0.00    -0.646 OA
HETATM    4  O           1     -22.546  -5.887  -1.973  0.00  0.00    -0.646 OA
ENDBRANCH   1   2
BRANCH   1   5
HETATM    5  C           1     -20.575  -7.333  -3.035  0.00  0.00     0.045 C 
BRANCH   5   6
HETATM    6  C           1     -21.107  -8.147  -4.207  0.00  0.00     0.105 C 
BRANCH   6   7
HETATM    7  C           1     -21.604  -7.214  -5.285  0.00  0.00     0.215 C 
HETATM    8  N           1     -22.554  -6.272  -4.989  0.00  0.00    -0.370 N 
HETATM    9  H           1     -22.887  -5.646  -5.711  0.00  0.00     0.159 HD
HETATM   10  H           1     -22.921  -6.202  -4.049  0.00  0.00     0.159 HD
HETATM   11  O           1     -21.165  -7.297  -6.407  0.00  0.00    -0.274 OA
ENDBRANCH   6   7
ENDBRANCH   5   6
ENDBRANCH   1   5
BRANCH   1  12
HETATM   12  N           1     -21.730  -9.175  -1.953  0.00  0.00    -0.345 N 
HETATM   13  H           1     -22.446  -9.326  -2.651  0.00  0.00     0.163 HD
HETATM   14  C           1     -21.268 -10.228  -1.208  0.00  0.00     0.251 C 
HETATM   15  O           1     -20.413 -10.049  -0.375  0.00  0.00    -0.271 OA
BRANCH  14  16
HETATM   16  C           1     -21.828 -11.611  -1.430  0.00  0.00     0.311 C 
HETATM   17  N           1     -22.151 -12.251  -0.157  0.00  0.00     0.097 N 
HETATM   18  C           1     -23.424 -11.660   0.249  0.00  0.00     0.271 C 
HETATM   19  H           1     -22.266 -13.257  -0.277  0.00  0.00     0.317 HD
HETATM   20  C           1     -24.213 -11.572  -1.046  0.00  0.00     0.033 C 
HETATM   21  C           1     -23.163 -11.546  -2.150  0.00  0.00     0.047 C 
ENDBRANCH  14  16
ENDBRANCH   1  12
TORSDOF 6
ENDMDL
MODEL 6
REMARK VINA RESULT:      -5.8     13.198     15.399
REMARK  6 active torsions:
REMARK  status: ('A' for Active; 'I' for Inactive)
REMARK    1  A    between atoms: C_2  and  C_3 
REMARK    2  A    between atoms: C_3  and  C_14 
REMARK    3  A    between atoms: C_3  and  N_13 
REMARK       I    between atoms: N_8  and  C_10 
REMARK    4  A    between atoms: C_10  and  C_17 
REMARK       I    between atoms: N_13  and  C_20 
REMARK    5  A    between atoms: C_14  and  C_17 
REMARK    6  A    between atoms: C_20  and  C_21 
ROOT
HETATM    1  C           1     -20.269  -7.790  -4.537  0.00  0.00     0.186 C 
ENDROOT
BRANCH   1   2
HETATM    2  C           1     -19.550  -9.000  -5.081  0.00  0.00     0.196 C 
HETATM    3  O           1     -18.791  -8.885  -6.067  0.00  0.00    -0.646 OA
HETATM    4  O           1     -19.713 -10.118  -4.546  0.00  0.00    -0.646 OA
ENDBRANCH   1   2
BRANCH   1   5
HETATM    5  C           1     -21.332  -8.238  -3.542  0.00  0.00     0.045 C 
BRANCH   5   6
HETATM    6  C           1     -20.926  -7.807  -2.139  0.00  0.00     0.105 C 
BRANCH   6   7
HETATM    7  C           1     -22.007  -6.938  -1.546  0.00  0.00     0.215 C 
HETATM    8  N           1     -22.407  -5.802  -2.200  0.00  0.00    -0.370 N 
HETATM    9  H           1     -23.133  -5.219  -1.803  0.00  0.00     0.159 HD
HETATM   10  H           1     -21.977  -5.547  -3.080  0.00  0.00     0.159 HD
HETATM   11  O           1     -22.522  -7.242  -0.497  0.00  0.00    -0.274 OA
ENDBRANCH   6   7
ENDBRANCH   5   6
ENDBRANCH   1   5
BRANCH   1  12
HETATM   12  N           1     -20.899  -7.073  -5.629  0.00  0.00    -0.345 N 
HETATM   13  H           1     -21.251  -7.579  -6.431  0.00  0.00     0.163 HD
HETATM   14  C           1     -21.019  -5.710  -5.573  0.00  0.00     0.251 C 
HETATM   15  O           1     -20.599  -5.105  -4.615  0.00  0.00    -0.271 OA
BRANCH  14  16
HETATM   16  C           1     -21.674  -4.963  -6.709  0.00  0.00     0.311 C 
HETATM   17  N           1     -21.040  -3.663  -6.910  0.00  0.00     0.097 N 
HETATM   18  C           1     -19.809  -3.954  -7.641  0.00  0.00     0.271 C 
HETATM   19  H           1     -21.634  -3.054  -7.473  0.00  0.00     0.317 HD
HETATM   20  C           1     -20.223  -5.022  -8.639  0.00  0.00     0.033 C 
HETATM   21  C           1     -21.453  -5.682  -8.027  0.00  0.00     0.047 C 
ENDBRANCH  14  16
ENDBRANCH   1  12
TORSDOF 6
ENDMDL
MODEL 7
REMARK VINA RESULT:      -5.6     12.758     15.205
REMARK  6 active torsions:
REMARK  status: ('A' for Active; 'I' for Inactive)
REMARK    1  A    between atoms: C_2  and  C_3 
REMARK    2  A    between atoms: C_3  and  C_14 
REMARK    3  A    between atoms: C_3  and  N_13 
REMARK       I    between atoms: N_8  and  C_10 
REMARK    4  A    between atoms: C_10  and  C_17 
REMARK       I    between atoms: N_13  and  C_20 
REMARK    5  A    between atoms: C_14  and  C_17 
REMARK    6  A    between atoms: C_20  and  C_21 
ROOT
HETATM    1  C           1     -21.591  -7.182  -4.158  0.00  0.00     0.186 C 
ENDROOT
BRANCH   1   2
HETATM    2  C           1     -21.675  -6.854  -2.687  0.00  0.00     0.196 C 
HETATM    3  O           1     -22.419  -5.929  -2.295  0.00  0.00    -0.646 OA
HETATM    4  O           1     -21.000  -7.506  -1.862  0.00  0.00    -0.646 OA
ENDBRANCH   1   2
BRANCH   1   5
HETATM    5  C           1     -20.867  -8.510  -4.340  0.00  0.00     0.045 C 
BRANCH   5   6
HETATM    6  C           1     -19.585  -8.285  -5.129  0.00  0.00     0.105 C 
BRANCH   6   7
HETATM    7  C           1     -18.808  -9.577  -5.206  0.00  0.00     0.215 C 
HETATM    8  N           1     -17.845  -9.853  -4.272  0.00  0.00    -0.370 N 
HETATM    9  H           1     -17.324 -10.719  -4.323  0.00  0.00     0.159 HD
HETATM   10  H           1     -17.655  -9.190  -3.531  0.00  0.00     0.159 HD
HETATM   11  O           1     -19.035 -10.367  -6.090  0.00  0.00    -0.274 OA
ENDBRANCH   6   7
ENDBRANCH   5   6
ENDBRANCH   1   5
BRANCH   1  12
HETATM   12  N           1     -20.860  -6.134  -4.845  0.00  0.00    -0.345 N 
HETATM   13  H           1     -19.871  -6.011  -4.674  0.00  0.00     0.163 HD
HETATM   14  C           1     -21.510  -5.311  -5.726  0.00  0.00     0.251 C 
HETATM   15  O           1     -22.692  -5.458  -5.929  0.00  0.00    -0.271 OA
BRANCH  14  16
HETATM   16  C           1     -20.751  -4.221  -6.440  0.00  0.00     0.311 C 
HETATM   17  N           1     -19.557  -4.758  -7.087  0.00  0.00     0.097 N 
HETATM   18  C           1     -20.044  -5.397  -8.308  0.00  0.00     0.271 C 
HETATM   19  H           1     -18.909  -4.008  -7.331  0.00  0.00     0.317 HD
HETATM   20  C           1     -21.104  -4.437  -8.821  0.00  0.00     0.033 C 
HETATM   21  C           1     -21.565  -3.660  -7.593  0.00  0.00     0.047 C 
ENDBRANCH  14  16
ENDBRANCH   1  12
TORSDOF 6
ENDMDL
MODEL 8
REMARK VINA RESULT:      -5.4     14.987     17.240
REMARK  6 active torsions:
REMARK  status: ('A' for Active; 'I' for Inactive)
REMARK    1  A    between atoms: C_2  and  C_3 
REMARK    2  A    between atoms: C_3  and  C_14 
REMARK    3  A    between atoms: C_3  and  N_13 
REMARK       I    between atoms: N_8  and  C_10 
REMARK    4  A    between atoms: C_10  and  C_17 
REMARK       I    between atoms: N_13  and  C_20 
REMARK    5  A    between atoms: C_14  and  C_17 
REMARK    6  A    between atoms: C_20  and  C_21 
ROOT
HETATM    1  C           1     -21.177  -8.203  -3.390  0.00  0.00     0.186 C 
ENDROOT
BRANCH   1   2
HETATM    2  C           1     -19.733  -8.631  -3.496  0.00  0.00     0.196 C 
HETATM    3  O           1     -19.088  -8.912  -2.464  0.00  0.00    -0.646 OA
HETATM    4  O           1     -19.184  -8.705  -4.616  0.00  0.00    -0.646 OA
ENDBRANCH   1   2
BRANCH   1   5
HETATM    5  C           1     -21.303  -6.741  -3.798  0.00  0.00     0.045 C 
BRANCH   5   6
HETATM    6  C           1     -22.172  -6.635  -5.043  0.00  0.00     0.105 C 
BRANCH   6   7
HETATM    7  C           1     -21.371  -6.023  -6.166  0.00  0.00     0.215 C 
HETATM    8  N           1     -20.287  -6.689  -6.675  0.00  0.00    -0.370 N 
HETATM    9  H           1     -19.750  -6.280  -7.428  0.00  0.00     0.159 HD
HETATM   10  H           1     -20.024  -7.590  -6.296  0.00  0.00     0.159 HD
HETATM   11  O           1     -21.685  -4.948  -6.618  0.00  0.00    -0.274 OA
ENDBRANCH   6   7
ENDBRANCH   5   6
ENDBRANCH   1   5
BRANCH   1  12
HETATM   12  N           1     -21.629  -8.366  -2.022  0.00  0.00    -0.345 N 
HETATM   13  H           1     -21.489  -7.623  -1.351  0.00  0.00     0.163 HD
HETATM   14  C           1     -22.247  -9.527  -1.639  0.00  0.00     0.251 C 
HETATM   15  O           1     -22.414 -10.415  -2.440  0.00  0.00    -0.271 OA
BRANCH  14  16
HETATM   16  C           1     -22.717  -9.696  -0.215  0.00  0.00     0.311 C 
HETATM   17  N           1     -22.066 -10.842   0.414  0.00  0.00     0.097 N 
HETATM   18  C           1     -20.732 -10.366   0.775  0.00  0.00     0.271 C 
HETATM   19  H           1     -22.566 -11.124   1.257  0.00  0.00     0.317 HD
HETATM   20  C           1     -20.977  -8.957   1.289  0.00  0.00     0.033 C 
HETATM   21  C           1     -22.285  -8.520   0.641  0.00  0.00     0.047 C 
ENDBRANCH  14  16
ENDBRANCH   1  12
TORSDOF 6
ENDMDL
MODEL 9
REMARK VINA RESULT:      -5.4     14.618     16.889
REMARK  6 active torsions:
REMARK  status: ('A' for Active; 'I' for Inactive)
REMARK    1  A    between atoms: C_2  and  C_3 
REMARK    2  A    between atoms: C_3  and  C_14 
REMARK    3  A    between atoms: C_3  and  N_13 
REMARK       I    between atoms: N_8  and  C_10 
REMARK    4  A    between atoms: C_10  and  C_17 
REMARK       I    between atoms: N_13  and  C_20 
REMARK    5  A    between atoms: C_14  and  C_17 
REMARK    6  A    between atoms: C_20  and  C_21 
ROOT
HETATM    1  C           1     -20.231  -9.229  -4.280  0.00  0.00     0.186 C 
ENDROOT
BRANCH   1   2
HETATM    2  C           1     -19.032  -9.985  -4.801  0.00  0.00     0.196 C 
HETATM    3  O           1     -18.244 -10.532  -4.001  0.00  0.00    -0.646 OA
HETATM    4  O           1     -18.829 -10.063  -6.032  0.00  0.00    -0.646 OA
ENDBRANCH   1   2
BRANCH   1   5
HETATM    5  C           1     -20.202  -7.803  -4.816  0.00  0.00     0.045 C 
BRANCH   5   6
HETATM    6  C           1     -21.499  -7.514  -5.558  0.00  0.00     0.105 C 
BRANCH   6   7
HETATM    7  C           1     -22.300  -6.489  -4.793  0.00  0.00     0.215 C 
HETATM    8  N           1     -21.910  -6.117  -3.534  0.00  0.00    -0.370 N 
HETATM    9  H           1     -22.446  -5.429  -3.021  0.00  0.00     0.159 HD
HETATM   10  H           1     -21.085  -6.530  -3.118  0.00  0.00     0.159 HD
HETATM   11  O           1     -23.284  -5.996  -5.290  0.00  0.00    -0.274 OA
ENDBRANCH   6   7
ENDBRANCH   5   6
ENDBRANCH   1   5
BRANCH   1  12
HETATM   12  N           1     -20.192  -9.203  -2.831  0.00  0.00    -0.345 N 
HETATM   13  H           1     -19.371  -8.855  -2.352  0.00  0.00     0.163 HD
HETATM   14  C           1     -21.267  -9.649  -2.109  0.00  0.00     0.251 C 
HETATM   15  O           1     -22.247 -10.064  -2.680  0.00  0.00    -0.271 OA
BRANCH  14  16
HETATM   16  C           1     -21.227  -9.622  -0.601  0.00  0.00     0.311 C 
HETATM   17  N           1     -20.933  -8.278  -0.113  0.00  0.00     0.097 N 
HETATM   18  C           1     -22.197  -7.553  -0.221  0.00  0.00     0.271 C 
HETATM   19  H           1     -20.638  -8.304   0.863  0.00  0.00     0.317 HD
HETATM   20  C           1     -23.236  -8.567   0.228  0.00  0.00     0.033 C 
HETATM   21  C           1     -22.595  -9.927  -0.018  0.00  0.00     0.047 C 
ENDBRANCH  14  16
ENDBRANCH   1  12
TORSDOF 6
ENDMDL
