MODEL 1
REMARK VINA RESULT:      -6.4      0.000      0.000
REMARK  11 active torsions:
REMARK  status: ('A' for Active; 'I' for Inactive)
REMARK       I    between atoms: C_1  and  N_10 
REMARK    1  A    between atoms: C_1  and  C_8 
REMARK    2  A    between atoms: C_2  and  C_15 
REMARK    3  A    between atoms: N_5  and  C_6 
REMARK    4  A    between atoms: C_6  and  C_7 
REMARK    5  A    between atoms: C_7  and  C_14 
REMARK    6  A    between atoms: C_8  and  C_9 
REMARK    7  A    between atoms: C_8  and  N_13 
REMARK    8  A    between atoms: C_9  and  C_25 
REMARK    9  A    between atoms: N_10  and  C_15 
REMARK   10  A    between atoms: C_14  and  C_15 
REMARK       I    between atoms: N_16  and  C_17 
REMARK   11  A    between atoms: C_17  and  C_25 
ROOT
HETATM    1  C           1     -25.631  -6.473 -18.159  0.00  0.00     0.249 C 
HETATM    2  N           1     -26.926  -6.123 -17.881  0.00  0.00    -0.345 N 
HETATM    3  O           1     -24.840  -6.628 -17.259  0.00  0.00    -0.271 OA
HETATM    4  H           1     -27.588  -5.995 -18.635  0.00  0.00     0.163 HD
ENDROOT
BRANCH   1   5
HETATM    5  C           1     -25.192  -6.667 -19.590  0.00  0.00     0.275 C 
BRANCH   5   6
HETATM    6  C           1     -26.417  -6.788 -20.486  0.00  0.00     0.052 C 
BRANCH   6   7
HETATM    7  C           1     -26.460  -8.180 -21.103  0.00  0.00     0.105 C 
BRANCH   7   8
HETATM    8  C           1     -27.827  -8.783 -20.894  0.00  0.00     0.215 C 
HETATM    9  N           1     -28.633  -8.320 -19.887  0.00  0.00    -0.370 N 
HETATM   10  H           1     -29.549  -8.725 -19.747  0.00  0.00     0.159 HD
HETATM   11  H           1     -28.310  -7.575 -19.283  0.00  0.00     0.159 HD
HETATM   12  O           1     -28.213  -9.671 -21.615  0.00  0.00    -0.274 OA
ENDBRANCH   7   8
ENDBRANCH   6   7
ENDBRANCH   5   6
BRANCH   5  13
HETATM   13  N           1     -24.371  -7.918 -19.694  0.00  0.00    -0.066 N 
HETATM   14  H           1     -24.155  -8.273 -18.735  0.00  0.00     0.275 HD
HETATM   15  H           1     -24.907  -8.644 -20.221  0.00  0.00     0.275 HD
HETATM   16  H           1     -23.479  -7.708 -20.196  0.00  0.00     0.275 HD
ENDBRANCH   5  13
ENDBRANCH   1   5
BRANCH   2  17
HETATM   17  C           1     -27.347  -5.937 -16.505  0.00  0.00     0.185 C 
BRANCH  17  18
HETATM   18  C           1     -28.155  -7.133 -16.062  0.00  0.00     0.196 C 
HETATM   19  O           1     -29.031  -7.611 -16.816  0.00  0.00    -0.646 OA
HETATM   20  O           1     -27.950  -7.644 -14.941  0.00  0.00    -0.646 OA
ENDBRANCH  17  18
BRANCH  17  21
HETATM   21  C           1     -28.200  -4.681 -16.402  0.00  0.00     0.038 C 
BRANCH  21  22
HETATM   22  C           1     -28.844  -4.391 -17.751  0.00  0.00     0.030 C 
BRANCH  22  23
HETATM   23  C           1     -30.357  -4.331 -17.588  0.00  0.00     0.230 C 
BRANCH  23  24
HETATM   24  N           1     -30.815  -2.906 -17.684  0.00  0.00    -0.079 N 
HETATM   25  H           1     -31.794  -2.879 -18.048  0.00  0.00     0.274 HD
HETATM   26  H           1     -30.784  -2.467 -16.736  0.00  0.00     0.274 HD
HETATM   27  H           1     -30.187  -2.381 -18.333  0.00  0.00     0.274 HD
ENDBRANCH  23  24
ENDBRANCH  22  23
ENDBRANCH  21  22
ENDBRANCH  17  21
ENDBRANCH   2  17
TORSDOF 11
ENDMDL
MODEL 2
REMARK VINA RESULT:      -6.2      2.258      5.823
REMARK  11 active torsions:
REMARK  status: ('A' for Active; 'I' for Inactive)
REMARK       I    between atoms: C_1  and  N_10 
REMARK    1  A    between atoms: C_1  and  C_8 
REMARK    2  A    between atoms: C_2  and  C_15 
REMARK    3  A    between atoms: N_5  and  C_6 
REMARK    4  A    between atoms: C_6  and  C_7 
REMARK    5  A    between atoms: C_7  and  C_14 
REMARK    6  A    between atoms: C_8  and  C_9 
REMARK    7  A    between atoms: C_8  and  N_13 
REMARK    8  A    between atoms: C_9  and  C_25 
REMARK    9  A    between atoms: N_10  and  C_15 
REMARK   10  A    between atoms: C_14  and  C_15 
REMARK       I    between atoms: N_16  and  C_17 
REMARK   11  A    between atoms: C_17  and  C_25 
ROOT
HETATM    1  C           1     -28.487  -6.264 -18.722  0.00  0.00     0.249 C 
HETATM    2  N           1     -27.612  -7.199 -19.206  0.00  0.00    -0.345 N 
HETATM    3  O           1     -28.574  -5.185 -19.257  0.00  0.00    -0.271 OA
HETATM    4  H           1     -27.540  -8.104 -18.758  0.00  0.00     0.163 HD
ENDROOT
BRANCH   1   5
HETATM    5  C           1     -29.344  -6.582 -17.521  0.00  0.00     0.275 C 
BRANCH   5   6
HETATM    6  C           1     -29.558  -5.317 -16.700  0.00  0.00     0.052 C 
BRANCH   6   7
HETATM    7  C           1     -31.023  -4.905 -16.775  0.00  0.00     0.105 C 
BRANCH   7   8
HETATM    8  C           1     -31.135  -3.569 -17.467  0.00  0.00     0.215 C 
HETATM    9  N           1     -30.004  -2.865 -17.787  0.00  0.00    -0.370 N 
HETATM   10  H           1     -30.080  -1.970 -18.250  0.00  0.00     0.159 HD
HETATM   11  H           1     -29.093  -3.242 -17.558  0.00  0.00     0.159 HD
HETATM   12  O           1     -32.223  -3.120 -17.740  0.00  0.00    -0.274 OA
ENDBRANCH   7   8
ENDBRANCH   6   7
ENDBRANCH   5   6
BRANCH   5  13
HETATM   13  N           1     -28.657  -7.615 -16.678  0.00  0.00    -0.066 N 
HETATM   14  H           1     -28.027  -7.141 -15.991  0.00  0.00     0.275 HD
HETATM   15  H           1     -29.372  -8.177 -16.163  0.00  0.00     0.275 HD
HETATM   16  H           1     -28.091  -8.244 -17.291  0.00  0.00     0.275 HD
ENDBRANCH   5  13
ENDBRANCH   1   5
BRANCH   2  17
HETATM   17  C           1     -26.789  -6.894 -20.360  0.00  0.00     0.185 C 
BRANCH  17  18
HETATM   18  C           1     -26.651  -8.127 -21.219  0.00  0.00     0.196 C 
HETATM   19  O           1     -27.654  -8.829 -21.472  0.00  0.00    -0.646 OA
HETATM   20  O           1     -25.534  -8.448 -21.678  0.00  0.00    -0.646 OA
ENDBRANCH  17  18
BRANCH  17  21
HETATM   21  C           1     -25.411  -6.442 -19.896  0.00  0.00     0.038 C 
BRANCH  21  22
HETATM   22  C           1     -25.233  -6.787 -18.423  0.00  0.00     0.030 C 
BRANCH  22  23
HETATM   23  C           1     -23.807  -7.263 -18.182  0.00  0.00     0.230 C 
BRANCH  23  24
HETATM   24  N           1     -23.689  -7.809 -16.790  0.00  0.00    -0.079 N 
HETATM   25  H           1     -24.061  -8.785 -16.766  0.00  0.00     0.274 HD
HETATM   26  H           1     -22.684  -7.812 -16.503  0.00  0.00     0.274 HD
HETATM   27  H           1     -24.239  -7.211 -16.134  0.00  0.00     0.274 HD
ENDBRANCH  23  24
ENDBRANCH  22  23
ENDBRANCH  21  22
ENDBRANCH  17  21
ENDBRANCH   2  17
TORSDOF 11
ENDMDL
MODEL 3
REMARK VINA RESULT:      -6.1      2.563      3.429
REMARK  11 active torsions:
REMARK  status: ('A' for Active; 'I' for Inactive)
REMARK       I    between atoms: C_1  and  N_10 
REMARK    1  A    between atoms: C_1  and  C_8 
REMARK    2  A    between atoms: C_2  and  C_15 
REMARK    3  A    between atoms: N_5  and  C_6 
REMARK    4  A    between atoms: C_6  and  C_7 
REMARK    5  A    between atoms: C_7  and  C_14 
REMARK    6  A    between atoms: C_8  and  C_9 
REMARK    7  A    between atoms: C_8  and  N_13 
REMARK    8  A    between atoms: C_9  and  C_25 
REMARK    9  A    between atoms: N_10  and  C_15 
REMARK   10  A    between atoms: C_14  and  C_15 
REMARK       I    between atoms: N_16  and  C_17 
REMARK   11  A    between atoms: C_17  and  C_25 
ROOT
HETATM    1  C           1     -25.057  -7.014 -19.231  0.00  0.00     0.249 C 
HETATM    2  N           1     -26.194  -6.909 -18.476  0.00  0.00    -0.345 N 
HETATM    3  O           1     -24.041  -6.466 -18.873  0.00  0.00    -0.271 OA
HETATM    4  H           1     -27.044  -7.368 -18.776  0.00  0.00     0.163 HD
ENDROOT
BRANCH   1   5
HETATM    5  C           1     -25.071  -7.813 -20.511  0.00  0.00     0.275 C 
BRANCH   5   6
HETATM    6  C           1     -24.294  -7.066 -21.587  0.00  0.00     0.052 C 
BRANCH   6   7
HETATM    7  C           1     -23.670  -8.066 -22.551  0.00  0.00     0.105 C 
BRANCH   7   8
HETATM    8  C           1     -22.448  -8.682 -21.916  0.00  0.00     0.215 C 
HETATM    9  N           1     -22.042  -8.275 -20.673  0.00  0.00    -0.370 N 
HETATM   10  H           1     -21.222  -8.688 -20.248  0.00  0.00     0.159 HD
HETATM   11  H           1     -22.562  -7.560 -20.180  0.00  0.00     0.159 HD
HETATM   12  O           1     -21.827  -9.536 -22.503  0.00  0.00    -0.274 OA
ENDBRANCH   7   8
ENDBRANCH   6   7
ENDBRANCH   5   6
BRANCH   5  13
HETATM   13  N           1     -26.489  -8.007 -20.962  0.00  0.00    -0.066 N 
HETATM   14  H           1     -26.765  -7.219 -21.590  0.00  0.00     0.275 HD
HETATM   15  H           1     -26.569  -8.910 -21.481  0.00  0.00     0.275 HD
HETATM   16  H           1     -27.119  -8.024 -20.129  0.00  0.00     0.275 HD
ENDBRANCH   5  13
ENDBRANCH   1   5
BRANCH   2  17
HETATM   17  C           1     -26.180  -6.141 -17.246  0.00  0.00     0.185 C 
BRANCH  17  18
HETATM   18  C           1     -25.964  -7.070 -16.076  0.00  0.00     0.196 C 
HETATM   19  O           1     -24.819  -7.506 -15.826  0.00  0.00    -0.646 OA
HETATM   20  O           1     -26.930  -7.404 -15.357  0.00  0.00    -0.646 OA
ENDBRANCH  17  18
BRANCH  17  21
HETATM   21  C           1     -27.511  -5.419 -17.083  0.00  0.00     0.038 C 
BRANCH  21  22
HETATM   22  C           1     -28.484  -5.902 -18.151  0.00  0.00     0.030 C 
BRANCH  22  23
HETATM   23  C           1     -29.656  -6.611 -17.486  0.00  0.00     0.230 C 
BRANCH  23  24
HETATM   24  N           1     -29.328  -8.064 -17.309  0.00  0.00    -0.079 N 
HETATM   25  H           1     -29.455  -8.563 -18.217  0.00  0.00     0.274 HD
HETATM   26  H           1     -28.336  -8.159 -16.995  0.00  0.00     0.274 HD
HETATM   27  H           1     -29.963  -8.479 -16.591  0.00  0.00     0.274 HD
ENDBRANCH  23  24
ENDBRANCH  22  23
ENDBRANCH  21  22
ENDBRANCH  17  21
ENDBRANCH   2  17
TORSDOF 11
ENDMDL
MODEL 4
REMARK VINA RESULT:      -6.1      2.007      2.603
REMARK  11 active torsions:
REMARK  status: ('A' for Active; 'I' for Inactive)
REMARK       I    between atoms: C_1  and  N_10 
REMARK    1  A    between atoms: C_1  and  C_8 
REMARK    2  A    between atoms: C_2  and  C_15 
REMARK    3  A    between atoms: N_5  and  C_6 
REMARK    4  A    between atoms: C_6  and  C_7 
REMARK    5  A    between atoms: C_7  and  C_14 
REMARK    6  A    between atoms: C_8  and  C_9 
REMARK    7  A    between atoms: C_8  and  N_13 
REMARK    8  A    between atoms: C_9  and  C_25 
REMARK    9  A    between atoms: N_10  and  C_15 
REMARK   10  A    between atoms: C_14  and  C_15 
REMARK       I    between atoms: N_16  and  C_17 
REMARK   11  A    between atoms: C_17  and  C_25 
ROOT
HETATM    1  C           1     -26.205  -6.851 -16.480  0.00  0.00     0.249 C 
HETATM    2  N           1     -27.337  -6.374 -17.084  0.00  0.00    -0.345 N 
HETATM    3  O           1     -26.262  -7.304 -15.361  0.00  0.00    -0.271 OA
HETATM    4  H           1     -27.289  -5.996 -18.021  0.00  0.00     0.163 HD
ENDROOT
BRANCH   1   5
HETATM    5  C           1     -24.885  -6.810 -17.210  0.00  0.00     0.275 C 
BRANCH   5   6
HETATM    6  C           1     -25.132  -6.859 -18.711  0.00  0.00     0.052 C 
BRANCH   6   7
HETATM    7  C           1     -23.918  -7.463 -19.407  0.00  0.00     0.105 C 
BRANCH   7   8
HETATM    8  C           1     -24.334  -8.034 -20.740  0.00  0.00     0.215 C 
HETATM    9  N           1     -23.385  -8.495 -21.613  0.00  0.00    -0.370 N 
HETATM   10  H           1     -23.664  -8.878 -22.507  0.00  0.00     0.159 HD
HETATM   11  H           1     -22.405  -8.451 -21.365  0.00  0.00     0.159 HD
HETATM   12  O           1     -25.503  -8.088 -21.036  0.00  0.00    -0.274 OA
ENDBRANCH   7   8
ENDBRANCH   6   7
ENDBRANCH   5   6
BRANCH   5  13
HETATM   13  N           1     -24.053  -7.991 -16.801  0.00  0.00    -0.066 N 
HETATM   14  H           1     -23.480  -7.739 -15.964  0.00  0.00     0.275 HD
HETATM   15  H           1     -24.680  -8.793 -16.565  0.00  0.00     0.275 HD
HETATM   16  H           1     -23.421  -8.260 -17.588  0.00  0.00     0.275 HD
ENDBRANCH   5  13
ENDBRANCH   1   5
BRANCH   2  17
HETATM   17  C           1     -28.606  -6.413 -16.382  0.00  0.00     0.185 C 
BRANCH  17  18
HETATM   18  C           1     -29.646  -7.064 -17.260  0.00  0.00     0.196 C 
HETATM   19  O           1     -29.518  -8.261 -17.600  0.00  0.00    -0.646 OA
HETATM   20  O           1     -30.635  -6.408 -17.649  0.00  0.00    -0.646 OA
ENDBRANCH  17  18
BRANCH  17  21
HETATM   21  C           1     -29.042  -4.994 -16.044  0.00  0.00     0.038 C 
BRANCH  21  22
HETATM   22  C           1     -28.257  -4.005 -16.895  0.00  0.00     0.030 C 
BRANCH  22  23
HETATM   23  C           1     -29.142  -2.813 -17.234  0.00  0.00     0.230 C 
BRANCH  23  24
HETATM   24  N           1     -30.398  -3.294 -17.899  0.00  0.00    -0.079 N 
HETATM   25  H           1     -30.738  -2.567 -18.568  0.00  0.00     0.274 HD
HETATM   26  H           1     -30.199  -4.179 -18.418  0.00  0.00     0.274 HD
HETATM   27  H           1     -31.130  -3.470 -17.175  0.00  0.00     0.274 HD
ENDBRANCH  23  24
ENDBRANCH  22  23
ENDBRANCH  21  22
ENDBRANCH  17  21
ENDBRANCH   2  17
TORSDOF 11
ENDMDL
MODEL 5
REMARK VINA RESULT:      -5.6      2.576      3.239
REMARK  11 active torsions:
REMARK  status: ('A' for Active; 'I' for Inactive)
REMARK       I    between atoms: C_1  and  N_10 
REMARK    1  A    between atoms: C_1  and  C_8 
REMARK    2  A    between atoms: C_2  and  C_15 
REMARK    3  A    between atoms: N_5  and  C_6 
REMARK    4  A    between atoms: C_6  and  C_7 
REMARK    5  A    between atoms: C_7  and  C_14 
REMARK    6  A    between atoms: C_8  and  C_9 
REMARK    7  A    between atoms: C_8  and  N_13 
REMARK    8  A    between atoms: C_9  and  C_25 
REMARK    9  A    between atoms: N_10  and  C_15 
REMARK   10  A    between atoms: C_14  and  C_15 
REMARK       I    between atoms: N_16  and  C_17 
REMARK   11  A    between atoms: C_17  and  C_25 
ROOT
HETATM    1  C           1     -26.934  -6.548 -19.768  0.00  0.00     0.249 C 
HETATM    2  N           1     -27.423  -6.648 -18.493  0.00  0.00    -0.345 N 
HETATM    3  O           1     -27.221  -5.595 -20.452  0.00  0.00    -0.271 OA
HETATM    4  H           1     -27.182  -7.446 -17.920  0.00  0.00     0.163 HD
ENDROOT
BRANCH   1   5
HETATM    5  C           1     -26.036  -7.629 -20.319  0.00  0.00     0.275 C 
BRANCH   5   6
HETATM    6  C           1     -24.910  -6.993 -21.122  0.00  0.00     0.052 C 
BRANCH   6   7
HETATM    7  C           1     -24.464  -7.952 -22.219  0.00  0.00     0.105 C 
BRANCH   7   8
HETATM    8  C           1     -23.039  -8.378 -21.968  0.00  0.00     0.215 C 
HETATM    9  N           1     -22.586  -8.532 -20.685  0.00  0.00    -0.370 N 
HETATM   10  H           1     -21.630  -8.817 -20.518  0.00  0.00     0.159 HD
HETATM   11  H           1     -23.207  -8.360 -19.905  0.00  0.00     0.159 HD
HETATM   12  O           1     -22.297  -8.585 -22.899  0.00  0.00    -0.274 OA
ENDBRANCH   7   8
ENDBRANCH   6   7
ENDBRANCH   5   6
BRANCH   5  13
HETATM   13  N           1     -26.835  -8.534 -21.209  0.00  0.00    -0.066 N 
HETATM   14  H           1     -26.982  -9.452 -20.730  0.00  0.00     0.275 HD
HETATM   15  H           1     -27.762  -8.096 -21.411  0.00  0.00     0.275 HD
HETATM   16  H           1     -26.318  -8.688 -22.104  0.00  0.00     0.275 HD
ENDBRANCH   5  13
ENDBRANCH   1   5
BRANCH   2  17
HETATM   17  C           1     -28.286  -5.609 -17.963  0.00  0.00     0.185 C 
BRANCH  17  18
HETATM   18  C           1     -27.520  -4.784 -16.958  0.00  0.00     0.196 C 
HETATM   19  O           1     -27.925  -3.642 -16.649  0.00  0.00    -0.646 OA
HETATM   20  O           1     -26.481  -5.241 -16.436  0.00  0.00    -0.646 OA
ENDBRANCH  17  18
BRANCH  17  21
HETATM   21  C           1     -29.490  -6.248 -17.285  0.00  0.00     0.038 C 
BRANCH  21  22
HETATM   22  C           1     -30.770  -5.637 -17.840  0.00  0.00     0.030 C 
BRANCH  22  23
HETATM   23  C           1     -31.224  -4.499 -16.936  0.00  0.00     0.230 C 
BRANCH  23  24
HETATM   24  N           1     -30.953  -3.186 -17.607  0.00  0.00    -0.079 N 
HETATM   25  H           1     -31.631  -2.471 -17.260  0.00  0.00     0.274 HD
HETATM   26  H           1     -29.979  -2.878 -17.385  0.00  0.00     0.274 HD
HETATM   27  H           1     -31.059  -3.294 -18.640  0.00  0.00     0.274 HD
ENDBRANCH  23  24
ENDBRANCH  22  23
ENDBRANCH  21  22
ENDBRANCH  17  21
ENDBRANCH   2  17
TORSDOF 11
ENDMDL
MODEL 6
REMARK VINA RESULT:      -5.6     12.284     14.051
REMARK  11 active torsions:
REMARK  status: ('A' for Active; 'I' for Inactive)
REMARK       I    between atoms: C_1  and  N_10 
REMARK    1  A    between atoms: C_1  and  C_8 
REMARK    2  A    between atoms: C_2  and  C_15 
REMARK    3  A    between atoms: N_5  and  C_6 
REMARK    4  A    between atoms: C_6  and  C_7 
REMARK    5  A    between atoms: C_7  and  C_14 
REMARK    6  A    between atoms: C_8  and  C_9 
REMARK    7  A    between atoms: C_8  and  N_13 
REMARK    8  A    between atoms: C_9  and  C_25 
REMARK    9  A    between atoms: N_10  and  C_15 
REMARK   10  A    between atoms: C_14  and  C_15 
REMARK       I    between atoms: N_16  and  C_17 
REMARK   11  A    between atoms: C_17  and  C_25 
ROOT
HETATM    1  C           1     -20.663  -4.699  -6.450  0.00  0.00     0.249 C 
HETATM    2  N           1     -21.460  -5.710  -5.984  0.00  0.00    -0.345 N 
HETATM    3  O           1     -19.631  -4.431  -5.880  0.00  0.00    -0.271 OA
HETATM    4  H           1     -22.323  -5.935  -6.462  0.00  0.00     0.163 HD
ENDROOT
BRANCH   1   5
HETATM    5  C           1     -21.071  -3.918  -7.675  0.00  0.00     0.275 C 
BRANCH   5   6
HETATM    6  C           1     -22.487  -4.307  -8.077  0.00  0.00     0.052 C 
BRANCH   6   7
HETATM    7  C           1     -22.607  -4.290  -9.596  0.00  0.00     0.105 C 
BRANCH   7   8
HETATM    8  C           1     -24.005  -3.879  -9.986  0.00  0.00     0.215 C 
HETATM    9  N           1     -25.084  -4.562  -9.491  0.00  0.00    -0.370 N 
HETATM   10  H           1     -26.021  -4.287  -9.753  0.00  0.00     0.159 HD
HETATM   11  H           1     -24.943  -5.344  -8.864  0.00  0.00     0.159 HD
HETATM   12  O           1     -24.174  -2.946 -10.734  0.00  0.00    -0.274 OA
ENDBRANCH   7   8
ENDBRANCH   6   7
ENDBRANCH   5   6
BRANCH   5  13
HETATM   13  N           1     -20.129  -4.228  -8.800  0.00  0.00    -0.066 N 
HETATM   14  H           1     -19.285  -3.615  -8.726  0.00  0.00     0.275 HD
HETATM   15  H           1     -19.837  -5.230  -8.744  0.00  0.00     0.275 HD
HETATM   16  H           1     -20.607  -4.052  -9.713  0.00  0.00     0.275 HD
ENDBRANCH   5  13
ENDBRANCH   1   5
BRANCH   2  17
HETATM   17  C           1     -21.066  -6.460  -4.806  0.00  0.00     0.185 C 
BRANCH  17  18
HETATM   18  C           1     -20.628  -7.845  -5.216  0.00  0.00     0.196 C 
HETATM   19  O           1     -19.686  -8.407  -4.615  0.00  0.00    -0.646 OA
HETATM   20  O           1     -21.206  -8.431  -6.156  0.00  0.00    -0.646 OA
ENDBRANCH  17  18
BRANCH  17  21
HETATM   21  C           1     -22.248  -6.562  -3.852  0.00  0.00     0.038 C 
BRANCH  21  22
HETATM   22  C           1     -21.805  -6.166  -2.450  0.00  0.00     0.030 C 
BRANCH  22  23
HETATM   23  C           1     -21.752  -7.404  -1.565  0.00  0.00     0.230 C 
BRANCH  23  24
HETATM   24  N           1     -20.368  -7.984  -1.597  0.00  0.00    -0.079 N 
HETATM   25  H           1     -19.685  -7.272  -1.255  0.00  0.00     0.274 HD
HETATM   26  H           1     -20.331  -8.827  -0.981  0.00  0.00     0.274 HD
HETATM   27  H           1     -20.127  -8.255  -2.576  0.00  0.00     0.274 HD
ENDBRANCH  23  24
ENDBRANCH  22  23
ENDBRANCH  21  22
ENDBRANCH  17  21
ENDBRANCH   2  17
TORSDOF 11
ENDMDL
MODEL 7
REMARK VINA RESULT:      -5.6     12.129     13.877
REMARK  11 active torsions:
REMARK  status: ('A' for Active; 'I' for Inactive)
REMARK       I    between atoms: C_1  and  N_10 
REMARK    1  A    between atoms: C_1  and  C_8 
REMARK    2  A    between atoms: C_2  and  C_15 
REMARK    3  A    between atoms: N_5  and  C_6 
REMARK    4  A    between atoms: C_6  and  C_7 
REMARK    5  A    between atoms: C_7  and  C_14 
REMARK    6  A    between atoms: C_8  and  C_9 
REMARK    7  A    between atoms: C_8  and  N_13 
REMARK    8  A    between atoms: C_9  and  C_25 
REMARK    9  A    between atoms: N_10  and  C_15 
REMARK   10  A    between atoms: C_14  and  C_15 
REMARK       I    between atoms: N_16  and  C_17 
REMARK   11  A    between atoms: C_17  and  C_25 
ROOT
HETATM    1  C           1     -20.940  -5.145  -7.047  0.00  0.00     0.249 C 
HETATM    2  N           1     -21.645  -6.004  -6.247  0.00  0.00    -0.345 N 
HETATM    3  O           1     -19.835  -4.783  -6.719  0.00  0.00    -0.271 OA
HETATM    4  H           1     -22.570  -6.308  -6.522  0.00  0.00     0.163 HD
ENDROOT
BRANCH   1   5
HETATM    5  C           1     -21.543  -4.650  -8.338  0.00  0.00     0.275 C 
BRANCH   5   6
HETATM    6  C           1     -20.479  -3.928  -9.153  0.00  0.00     0.052 C 
BRANCH   6   7
HETATM    7  C           1     -20.405  -4.537 -10.547  0.00  0.00     0.105 C 
BRANCH   7   8
HETATM    8  C           1     -21.473  -3.927 -11.421  0.00  0.00     0.215 C 
HETATM    9  N           1     -22.408  -4.728 -12.020  0.00  0.00    -0.370 N 
HETATM   10  H           1     -23.124  -4.319 -12.606  0.00  0.00     0.159 HD
HETATM   11  H           1     -22.382  -5.730 -11.878  0.00  0.00     0.159 HD
HETATM   12  O           1     -21.505  -2.731 -11.590  0.00  0.00    -0.274 OA
ENDBRANCH   7   8
ENDBRANCH   6   7
ENDBRANCH   5   6
BRANCH   5  13
HETATM   13  N           1     -22.666  -3.703  -8.033  0.00  0.00    -0.066 N 
HETATM   14  H           1     -23.241  -3.556  -8.894  0.00  0.00     0.275 HD
HETATM   15  H           1     -23.267  -4.107  -7.279  0.00  0.00     0.275 HD
HETATM   16  H           1     -22.274  -2.788  -7.717  0.00  0.00     0.275 HD
ENDBRANCH   5  13
ENDBRANCH   1   5
BRANCH   2  17
HETATM   17  C           1     -21.065  -6.480  -5.005  0.00  0.00     0.185 C 
BRANCH  17  18
HETATM   18  C           1     -20.535  -7.880  -5.203  0.00  0.00     0.196 C 
HETATM   19  O           1     -19.558  -8.279  -4.533  0.00  0.00    -0.646 OA
HETATM   20  O           1     -21.073  -8.640  -6.036  0.00  0.00    -0.646 OA
ENDBRANCH  17  18
BRANCH  17  21
HETATM   21  C           1     -22.130  -6.488  -3.918  0.00  0.00     0.038 C 
BRANCH  21  22
HETATM   22  C           1     -21.501  -6.101  -2.587  0.00  0.00     0.030 C 
BRANCH  22  23
HETATM   23  C           1     -21.853  -7.145  -1.536  0.00  0.00     0.230 C 
BRANCH  23  24
HETATM   24  N           1     -20.933  -8.322  -1.672  0.00  0.00    -0.079 N 
HETATM   25  H           1     -19.978  -7.990  -1.935  0.00  0.00     0.274 HD
HETATM   26  H           1     -20.885  -8.832  -0.761  0.00  0.00     0.274 HD
HETATM   27  H           1     -21.295  -8.963  -2.413  0.00  0.00     0.274 HD
ENDBRANCH  23  24
ENDBRANCH  22  23
ENDBRANCH  21  22
ENDBRANCH  17  21
ENDBRANCH   2  17
TORSDOF 11
ENDMDL
MODEL 8
REMARK VINA RESULT:      -5.5     11.009     13.174
REMARK  11 active torsions:
REMARK  status: ('A' for Active; 'I' for Inactive)
REMARK       I    between atoms: C_1  and  N_10 
REMARK    1  A    between atoms: C_1  and  C_8 
REMARK    2  A    between atoms: C_2  and  C_15 
REMARK    3  A    between atoms: N_5  and  C_6 
REMARK    4  A    between atoms: C_6  and  C_7 
REMARK    5  A    between atoms: C_7  and  C_14 
REMARK    6  A    between atoms: C_8  and  C_9 
REMARK    7  A    between atoms: C_8  and  N_13 
REMARK    8  A    between atoms: C_9  and  C_25 
REMARK    9  A    between atoms: N_10  and  C_15 
REMARK   10  A    between atoms: C_14  and  C_15 
REMARK       I    between atoms: N_16  and  C_17 
REMARK   11  A    between atoms: C_17  and  C_25 
ROOT
HETATM    1  C           1     -21.696  -4.684  -7.294  0.00  0.00     0.249 C 
HETATM    2  N           1     -22.471  -4.735  -8.422  0.00  0.00    -0.345 N 
HETATM    3  O           1     -21.443  -3.620  -6.782  0.00  0.00    -0.271 OA
HETATM    4  H           1     -22.684  -5.627  -8.850  0.00  0.00     0.163 HD
ENDROOT
BRANCH   1   5
HETATM    5  C           1     -21.158  -5.958  -6.689  0.00  0.00     0.275 C 
BRANCH   5   6
HETATM    6  C           1     -20.969  -5.769  -5.190  0.00  0.00     0.052 C 
BRANCH   6   7
HETATM    7  C           1     -22.028  -6.566  -4.440  0.00  0.00     0.105 C 
BRANCH   7   8
HETATM    8  C           1     -21.665  -6.635  -2.977  0.00  0.00     0.215 C 
HETATM    9  N           1     -22.303  -5.827  -2.074  0.00  0.00    -0.370 N 
HETATM   10  H           1     -22.059  -5.873  -1.094  0.00  0.00     0.159 HD
HETATM   11  H           1     -23.018  -5.183  -2.388  0.00  0.00     0.159 HD
HETATM   12  O           1     -20.812  -7.403  -2.601  0.00  0.00    -0.274 OA
ENDBRANCH   7   8
ENDBRANCH   6   7
ENDBRANCH   5   6
BRANCH   5  13
HETATM   13  N           1     -19.840  -6.292  -7.322  0.00  0.00    -0.066 N 
HETATM   14  H           1     -19.085  -6.244  -6.600  0.00  0.00     0.275 HD
HETATM   15  H           1     -19.879  -7.257  -7.720  0.00  0.00     0.275 HD
HETATM   16  H           1     -19.636  -5.606  -8.083  0.00  0.00     0.275 HD
ENDBRANCH   5  13
ENDBRANCH   1   5
BRANCH   2  17
HETATM   17  C           1     -22.987  -3.510  -9.003  0.00  0.00     0.185 C 
BRANCH  17  18
HETATM   18  C           1     -24.389  -3.747  -9.509  0.00  0.00     0.196 C 
HETATM   19  O           1     -24.733  -4.887  -9.891  0.00  0.00    -0.646 OA
HETATM   20  O           1     -25.207  -2.803  -9.547  0.00  0.00    -0.646 OA
ENDBRANCH  17  18
BRANCH  17  21
HETATM   21  C           1     -22.095  -3.082 -10.159  0.00  0.00     0.038 C 
BRANCH  21  22
HETATM   22  C           1     -21.274  -4.273 -10.636  0.00  0.00     0.030 C 
BRANCH  22  23
HETATM   23  C           1     -21.530  -4.505 -12.119  0.00  0.00     0.230 C 
BRANCH  23  24
HETATM   24  N           1     -22.955  -4.928 -12.322  0.00  0.00    -0.079 N 
HETATM   25  H           1     -23.138  -5.057 -13.342  0.00  0.00     0.274 HD
HETATM   26  H           1     -23.124  -5.829 -11.821  0.00  0.00     0.274 HD
HETATM   27  H           1     -23.593  -4.193 -11.944  0.00  0.00     0.274 HD
ENDBRANCH  23  24
ENDBRANCH  22  23
ENDBRANCH  21  22
ENDBRANCH  17  21
ENDBRANCH   2  17
TORSDOF 11
ENDMDL
MODEL 9
REMARK VINA RESULT:      -5.5     10.637     12.902
REMARK  11 active torsions:
REMARK  status: ('A' for Active; 'I' for Inactive)
REMARK       I    between atoms: C_1  and  N_10 
REMARK    1  A    between atoms: C_1  and  C_8 
REMARK    2  A    between atoms: C_2  and  C_15 
REMARK    3  A    between atoms: N_5  and  C_6 
REMARK    4  A    between atoms: C_6  and  C_7 
REMARK    5  A    between atoms: C_7  and  C_14 
REMARK    6  A    between atoms: C_8  and  C_9 
REMARK    7  A    between atoms: C_8  and  N_13 
REMARK    8  A    between atoms: C_9  and  C_25 
REMARK    9  A    between atoms: N_10  and  C_15 
REMARK   10  A    between atoms: C_14  and  C_15 
REMARK       I    between atoms: N_16  and  C_17 
REMARK   11  A    between atoms: C_17  and  C_25 
ROOT
HETATM    1  C           1     -22.358  -4.225  -7.579  0.00  0.00     0.249 C 
HETATM    2  N           1     -23.305  -4.470  -8.538  0.00  0.00    -0.345 N 
HETATM    3  O           1     -21.481  -3.421  -7.787  0.00  0.00    -0.271 OA
HETATM    4  H           1     -24.040  -5.143  -8.362  0.00  0.00     0.163 HD
ENDROOT
BRANCH   1   5
HETATM    5  C           1     -22.410  -4.959  -6.261  0.00  0.00     0.275 C 
BRANCH   5   6
HETATM    6  C           1     -21.508  -6.184  -6.325  0.00  0.00     0.052 C 
BRANCH   6   7
HETATM    7  C           1     -20.684  -6.275  -5.047  0.00  0.00     0.105 C 
BRANCH   7   8
HETATM    8  C           1     -21.520  -6.885  -3.950  0.00  0.00     0.215 C 
HETATM    9  N           1     -21.517  -8.242  -3.760  0.00  0.00    -0.370 N 
HETATM   10  H           1     -22.078  -8.650  -3.025  0.00  0.00     0.159 HD
HETATM   11  H           1     -20.954  -8.835  -4.356  0.00  0.00     0.159 HD
HETATM   12  O           1     -22.192  -6.178  -3.237  0.00  0.00    -0.274 OA
ENDBRANCH   7   8
ENDBRANCH   6   7
ENDBRANCH   5   6
BRANCH   5  13
HETATM   13  N           1     -23.821  -5.391  -5.987  0.00  0.00    -0.066 N 
HETATM   14  H           1     -24.017  -5.310  -4.964  0.00  0.00     0.275 HD
HETATM   15  H           1     -24.482  -4.779  -6.517  0.00  0.00     0.275 HD
HETATM   16  H           1     -23.945  -6.384  -6.287  0.00  0.00     0.275 HD
ENDBRANCH   5  13
ENDBRANCH   1   5
BRANCH   2  17
HETATM   17  C           1     -23.254  -3.764  -9.804  0.00  0.00     0.185 C 
BRANCH  17  18
HETATM   18  C           1     -24.636  -3.271 -10.159  0.00  0.00     0.196 C 
HETATM   19  O           1     -25.323  -2.666  -9.308  0.00  0.00    -0.646 OA
HETATM   20  O           1     -25.094  -3.469 -11.305  0.00  0.00    -0.646 OA
ENDBRANCH  17  18
BRANCH  17  21
HETATM   21  C           1     -22.755  -4.707 -10.890  0.00  0.00     0.038 C 
BRANCH  21  22
HETATM   22  C           1     -21.767  -3.972 -11.786  0.00  0.00     0.030 C 
BRANCH  22  23
HETATM   23  C           1     -20.528  -3.605 -10.981  0.00  0.00     0.230 C 
BRANCH  23  24
HETATM   24  N           1     -20.002  -4.825 -10.285  0.00  0.00    -0.079 N 
HETATM   25  H           1     -20.528  -5.666 -10.612  0.00  0.00     0.274 HD
HETATM   26  H           1     -18.987  -4.940 -10.506  0.00  0.00     0.274 HD
HETATM   27  H           1     -20.125  -4.717  -9.253  0.00  0.00     0.274 HD
ENDBRANCH  23  24
ENDBRANCH  22  23
ENDBRANCH  21  22
ENDBRANCH  17  21
ENDBRANCH   2  17
TORSDOF 11
ENDMDL
