MODEL 1
REMARK VINA RESULT:      -7.6      0.000      0.000
REMARK  12 active torsions:
REMARK  status: ('A' for Active; 'I' for Inactive)
REMARK    1  A    between atoms: C_5  and  C_25 
REMARK    2  A    between atoms: C_5  and  C_14 
REMARK    3  A    between atoms: C_11  and  C_13 
REMARK    4  A    between atoms: C_11  and  C_20 
REMARK    5  A    between atoms: N_12  and  C_13 
REMARK    6  A    between atoms: C_13  and  C_18 
REMARK    7  A    between atoms: C_14  and  C_23 
REMARK    8  A    between atoms: C_16  and  O_17 
REMARK       I    between atoms: C_18  and  N_19 
REMARK    9  A    between atoms: N_19  and  C_27 
REMARK   10  A    between atoms: C_23  and  C_27 
REMARK   11  A    between atoms: N_24  and  C_25 
REMARK   12  A    between atoms: C_27  and  C_28 
ROOT
HETATM    1  O           1     -34.999  -4.722 -15.683  0.00  0.00    -0.271 OA
HETATM    2  H           1     -32.419  -3.820 -14.143  0.00  0.00     0.163 HD
HETATM    3  C           1     -33.837  -4.438 -15.519  0.00  0.00     0.249 C 
HETATM    4  N           1     -33.393  -4.057 -14.281  0.00  0.00    -0.345 N 
ENDROOT
BRANCH   3   5
HETATM    5  C           1     -32.873  -4.505 -16.678  0.00  0.00     0.278 C 
BRANCH   5   6
HETATM    6  C           1     -31.445  -4.503 -16.152  0.00  0.00     0.081 C 
BRANCH   6   7
HETATM    7  C           1     -30.579  -5.327 -17.053  0.00  0.00    -0.056 A 
HETATM    8  C           1     -30.892  -6.666 -17.288  0.00  0.00     0.010 A 
HETATM    9  C           1     -30.085  -7.434 -18.127  0.00  0.00     0.037 A 
HETATM   10  C           1     -28.965  -6.864 -18.732  0.00  0.00     0.065 A 
HETATM   11  C           1     -28.651  -5.525 -18.496  0.00  0.00     0.037 A 
HETATM   12  C           1     -29.458  -4.757 -17.657  0.00  0.00     0.010 A 
BRANCH  10  13
HETATM   13  O           1     -28.181  -7.610 -19.546  0.00  0.00    -0.361 OA
HETATM   14  H           1     -27.510  -7.026 -19.936  0.00  0.00     0.217 HD
ENDBRANCH  10  13
ENDBRANCH   6   7
ENDBRANCH   5   6
BRANCH   5  15
HETATM   15  N           1     -33.080  -3.315 -17.569  0.00  0.00    -0.066 N 
HETATM   16  H           1     -32.175  -3.064 -18.029  0.00  0.00     0.275 HD
HETATM   17  H           1     -33.790  -3.547 -18.300  0.00  0.00     0.275 HD
HETATM   18  H           1     -33.417  -2.507 -16.999  0.00  0.00     0.275 HD
ENDBRANCH   5  15
ENDBRANCH   3   5
BRANCH   4  19
HETATM   19  C           1     -34.319  -3.994 -13.167  0.00  0.00     0.185 C 
BRANCH  19  20
HETATM   20  C           1     -33.732  -4.739 -11.974  0.00  0.00     0.036 C 
BRANCH  20  21
HETATM   21  C           1     -34.629  -5.917 -11.620  0.00  0.00     0.004 C 
BRANCH  21  22
HETATM   22  C           1     -34.320  -6.383 -10.204  0.00  0.00     0.027 C 
BRANCH  22  23
HETATM   23  C           1     -34.732  -7.842 -10.047  0.00  0.00     0.229 C 
BRANCH  23  24
HETATM   24  N           1     -33.551  -8.727 -10.315  0.00  0.00    -0.079 N 
HETATM   25  H           1     -32.741  -8.411  -9.735  0.00  0.00     0.274 HD
HETATM   26  H           1     -33.793  -9.712 -10.069  0.00  0.00     0.274 HD
HETATM   27  H           1     -33.297  -8.670 -11.327  0.00  0.00     0.274 HD
ENDBRANCH  23  24
ENDBRANCH  22  23
ENDBRANCH  21  22
ENDBRANCH  20  21
ENDBRANCH  19  20
BRANCH  19  28
HETATM   28  C           1     -34.554  -2.551 -12.792  0.00  0.00     0.196 C 
HETATM   29  O           1     -34.224  -2.138 -11.659  0.00  0.00    -0.646 OA
HETATM   30  O           1     -35.080  -1.770 -13.614  0.00  0.00    -0.646 OA
ENDBRANCH  19  28
ENDBRANCH   4  19
TORSDOF 12
ENDMDL
MODEL 2
REMARK VINA RESULT:      -7.3     13.672     14.769
REMARK  12 active torsions:
REMARK  status: ('A' for Active; 'I' for Inactive)
REMARK    1  A    between atoms: C_5  and  C_25 
REMARK    2  A    between atoms: C_5  and  C_14 
REMARK    3  A    between atoms: C_11  and  C_13 
REMARK    4  A    between atoms: C_11  and  C_20 
REMARK    5  A    between atoms: N_12  and  C_13 
REMARK    6  A    between atoms: C_13  and  C_18 
REMARK    7  A    between atoms: C_14  and  C_23 
REMARK    8  A    between atoms: C_16  and  O_17 
REMARK       I    between atoms: C_18  and  N_19 
REMARK    9  A    between atoms: N_19  and  C_27 
REMARK   10  A    between atoms: C_23  and  C_27 
REMARK   11  A    between atoms: N_24  and  C_25 
REMARK   12  A    between atoms: C_27  and  C_28 
ROOT
HETATM    1  O           1     -20.204  -5.782  -5.442  0.00  0.00    -0.271 OA
HETATM    2  H           1     -23.117  -6.233  -4.368  0.00  0.00     0.163 HD
HETATM    3  C           1     -21.412  -5.779  -5.451  0.00  0.00     0.249 C 
HETATM    4  N           1     -22.106  -6.237  -4.362  0.00  0.00    -0.345 N 
ENDROOT
BRANCH   3   5
HETATM    5  C           1     -22.157  -5.270  -6.660  0.00  0.00     0.278 C 
BRANCH   5   6
HETATM    6  C           1     -21.494  -3.996  -7.166  0.00  0.00     0.081 C 
BRANCH   6   7
HETATM    7  C           1     -21.550  -3.963  -8.661  0.00  0.00    -0.056 A 
HETATM    8  C           1     -22.745  -3.642  -9.306  0.00  0.00     0.010 A 
HETATM    9  C           1     -22.797  -3.611 -10.700  0.00  0.00     0.037 A 
HETATM   10  C           1     -21.657  -3.901 -11.449  0.00  0.00     0.065 A 
HETATM   11  C           1     -20.463  -4.224 -10.803  0.00  0.00     0.037 A 
HETATM   12  C           1     -20.410  -4.255  -9.409  0.00  0.00     0.010 A 
BRANCH  10  13
HETATM   13  O           1     -21.709  -3.872 -12.802  0.00  0.00    -0.361 OA
HETATM   14  H           1     -22.585  -3.545 -13.063  0.00  0.00     0.217 HD
ENDBRANCH  10  13
ENDBRANCH   6   7
ENDBRANCH   5   6
BRANCH   5  15
HETATM   15  N           1     -23.580  -4.977  -6.283  0.00  0.00    -0.066 N 
HETATM   16  H           1     -23.601  -4.483  -5.362  0.00  0.00     0.275 HD
HETATM   17  H           1     -24.015  -4.370  -7.014  0.00  0.00     0.275 HD
HETATM   18  H           1     -24.112  -5.873  -6.212  0.00  0.00     0.275 HD
ENDBRANCH   5  15
ENDBRANCH   3   5
BRANCH   4  19
HETATM   19  C           1     -21.389  -6.726  -3.200  0.00  0.00     0.185 C 
BRANCH  19  20
HETATM   20  C           1     -22.276  -6.604  -1.967  0.00  0.00     0.036 C 
BRANCH  20  21
HETATM   21  C           1     -21.652  -7.376  -0.813  0.00  0.00     0.004 C 
BRANCH  21  22
HETATM   22  C           1     -22.751  -7.906   0.098  0.00  0.00     0.027 C 
BRANCH  22  23
HETATM   23  C           1     -22.992  -9.381  -0.200  0.00  0.00     0.229 C 
BRANCH  23  24
HETATM   24  N           1     -21.691 -10.040  -0.549  0.00  0.00    -0.079 N 
HETATM   25  H           1     -21.863 -11.039  -0.803  0.00  0.00     0.274 HD
HETATM   26  H           1     -21.257  -9.544  -1.359  0.00  0.00     0.274 HD
HETATM   27  H           1     -21.048  -9.997   0.273  0.00  0.00     0.274 HD
ENDBRANCH  23  24
ENDBRANCH  22  23
ENDBRANCH  21  22
ENDBRANCH  20  21
ENDBRANCH  19  20
BRANCH  19  28
HETATM   28  C           1     -21.020  -8.174  -3.411  0.00  0.00     0.196 C 
HETATM   29  O           1     -19.820  -8.523  -3.390  0.00  0.00    -0.646 OA
HETATM   30  O           1     -21.916  -9.024  -3.609  0.00  0.00    -0.646 OA
ENDBRANCH  19  28
ENDBRANCH   4  19
TORSDOF 12
ENDMDL
MODEL 3
REMARK VINA RESULT:      -7.3     13.699     14.932
REMARK  12 active torsions:
REMARK  status: ('A' for Active; 'I' for Inactive)
REMARK    1  A    between atoms: C_5  and  C_25 
REMARK    2  A    between atoms: C_5  and  C_14 
REMARK    3  A    between atoms: C_11  and  C_13 
REMARK    4  A    between atoms: C_11  and  C_20 
REMARK    5  A    between atoms: N_12  and  C_13 
REMARK    6  A    between atoms: C_13  and  C_18 
REMARK    7  A    between atoms: C_14  and  C_23 
REMARK    8  A    between atoms: C_16  and  O_17 
REMARK       I    between atoms: C_18  and  N_19 
REMARK    9  A    between atoms: N_19  and  C_27 
REMARK   10  A    between atoms: C_23  and  C_27 
REMARK   11  A    between atoms: N_24  and  C_25 
REMARK   12  A    between atoms: C_27  and  C_28 
ROOT
HETATM    1  O           1     -21.305  -5.553  -4.535  0.00  0.00    -0.271 OA
HETATM    2  H           1     -21.315  -8.016  -6.478  0.00  0.00     0.163 HD
HETATM    3  C           1     -21.502  -6.174  -5.552  0.00  0.00     0.249 C 
HETATM    4  N           1     -21.149  -7.495  -5.627  0.00  0.00    -0.345 N 
ENDROOT
BRANCH   3   5
HETATM    5  C           1     -22.139  -5.495  -6.740  0.00  0.00     0.278 C 
BRANCH   5   6
HETATM    6  C           1     -21.265  -4.333  -7.190  0.00  0.00     0.081 C 
BRANCH   6   7
HETATM    7  C           1     -21.365  -4.178  -8.675  0.00  0.00    -0.056 A 
HETATM    8  C           1     -20.262  -4.463  -9.481  0.00  0.00     0.010 A 
HETATM    9  C           1     -20.355  -4.318 -10.866  0.00  0.00     0.037 A 
HETATM   10  C           1     -21.549  -3.888 -11.444  0.00  0.00     0.065 A 
HETATM   11  C           1     -22.651  -3.602 -10.637  0.00  0.00     0.037 A 
HETATM   12  C           1     -22.558  -3.747  -9.253  0.00  0.00     0.010 A 
BRANCH  10  13
HETATM   13  O           1     -21.639  -3.747 -12.788  0.00  0.00    -0.361 OA
HETATM   14  H           1     -20.896  -3.195 -13.083  0.00  0.00     0.217 HD
ENDBRANCH  10  13
ENDBRANCH   6   7
ENDBRANCH   5   6
BRANCH   5  15
HETATM   15  N           1     -23.494  -4.981  -6.353  0.00  0.00    -0.066 N 
HETATM   16  H           1     -24.222  -5.436  -6.951  0.00  0.00     0.275 HD
HETATM   17  H           1     -23.679  -5.206  -5.349  0.00  0.00     0.275 HD
HETATM   18  H           1     -23.527  -3.947  -6.490  0.00  0.00     0.275 HD
ENDBRANCH   5  15
ENDBRANCH   3   5
BRANCH   4  19
HETATM   19  C           1     -20.538  -8.147  -4.485  0.00  0.00     0.185 C 
BRANCH  19  20
HETATM   20  C           1     -21.577  -9.001  -3.770  0.00  0.00     0.036 C 
BRANCH  20  21
HETATM   21  C           1     -21.219  -9.107  -2.294  0.00  0.00     0.004 C 
BRANCH  21  22
HETATM   22  C           1     -20.840  -7.731  -1.762  0.00  0.00     0.027 C 
BRANCH  22  23
HETATM   23  C           1     -22.073  -7.054  -1.176  0.00  0.00     0.229 C 
BRANCH  23  24
HETATM   24  N           1     -22.378  -5.809  -1.955  0.00  0.00    -0.079 N 
HETATM   25  H           1     -22.726  -6.069  -2.906  0.00  0.00     0.274 HD
HETATM   26  H           1     -23.109  -5.257  -1.455  0.00  0.00     0.274 HD
HETATM   27  H           1     -21.509  -5.236  -2.048  0.00  0.00     0.274 HD
ENDBRANCH  23  24
ENDBRANCH  22  23
ENDBRANCH  21  22
ENDBRANCH  20  21
ENDBRANCH  19  20
BRANCH  19  28
HETATM   28  C           1     -19.405  -9.026  -4.957  0.00  0.00     0.196 C 
HETATM   29  O           1     -19.539  -9.719  -5.988  0.00  0.00    -0.646 OA
HETATM   30  O           1     -18.333  -9.062  -4.314  0.00  0.00    -0.646 OA
ENDBRANCH  19  28
ENDBRANCH   4  19
TORSDOF 12
ENDMDL
MODEL 4
REMARK VINA RESULT:      -6.6     14.223     16.558
REMARK  12 active torsions:
REMARK  status: ('A' for Active; 'I' for Inactive)
REMARK    1  A    between atoms: C_5  and  C_25 
REMARK    2  A    between atoms: C_5  and  C_14 
REMARK    3  A    between atoms: C_11  and  C_13 
REMARK    4  A    between atoms: C_11  and  C_20 
REMARK    5  A    between atoms: N_12  and  C_13 
REMARK    6  A    between atoms: C_13  and  C_18 
REMARK    7  A    between atoms: C_14  and  C_23 
REMARK    8  A    between atoms: C_16  and  O_17 
REMARK       I    between atoms: C_18  and  N_19 
REMARK    9  A    between atoms: N_19  and  C_27 
REMARK   10  A    between atoms: C_23  and  C_27 
REMARK   11  A    between atoms: N_24  and  C_25 
REMARK   12  A    between atoms: C_27  and  C_28 
ROOT
HETATM    1  O           1     -19.325  -7.733  -6.231  0.00  0.00    -0.271 OA
HETATM    2  H           1     -22.231  -6.557  -6.114  0.00  0.00     0.163 HD
HETATM    3  C           1     -20.477  -7.633  -5.884  0.00  0.00     0.249 C 
HETATM    4  N           1     -21.265  -6.640  -6.403  0.00  0.00    -0.345 N 
ENDROOT
BRANCH   3   5
HETATM    5  C           1     -21.051  -8.603  -4.881  0.00  0.00     0.278 C 
BRANCH   5   6
HETATM    6  C           1     -20.227  -8.557  -3.602  0.00  0.00     0.081 C 
BRANCH   6   7
HETATM    7  C           1     -21.130  -8.309  -2.434  0.00  0.00    -0.056 A 
HETATM    8  C           1     -21.529  -7.008  -2.126  0.00  0.00     0.010 A 
HETATM    9  C           1     -22.370  -6.777  -1.038  0.00  0.00     0.037 A 
HETATM   10  C           1     -22.813  -7.845  -0.257  0.00  0.00     0.065 A 
HETATM   11  C           1     -22.412  -9.145  -0.566  0.00  0.00     0.037 A 
HETATM   12  C           1     -21.571  -9.377  -1.653  0.00  0.00     0.010 A 
BRANCH  10  13
HETATM   13  O           1     -23.629  -7.619   0.800  0.00  0.00    -0.361 OA
HETATM   14  H           1     -24.541  -7.567   0.470  0.00  0.00     0.217 HD
ENDBRANCH  10  13
ENDBRANCH   6   7
ENDBRANCH   5   6
BRANCH   5  15
HETATM   15  N           1     -21.013  -9.991  -5.451  0.00  0.00    -0.066 N 
HETATM   16  H           1     -20.112 -10.451  -5.186  0.00  0.00     0.275 HD
HETATM   17  H           1     -21.812 -10.546  -5.069  0.00  0.00     0.275 HD
HETATM   18  H           1     -21.088  -9.943  -6.491  0.00  0.00     0.275 HD
ENDBRANCH   5  15
ENDBRANCH   3   5
BRANCH   4  19
HETATM   19  C           1     -20.714  -5.707  -7.367  0.00  0.00     0.185 C 
BRANCH  19  20
HETATM   20  C           1     -21.841  -4.886  -7.982  0.00  0.00     0.036 C 
BRANCH  20  21
HETATM   21  C           1     -21.466  -4.493  -9.404  0.00  0.00     0.004 C 
BRANCH  21  22
HETATM   22  C           1     -22.644  -3.790 -10.065  0.00  0.00     0.027 C 
BRANCH  22  23
HETATM   23  C           1     -23.768  -4.792 -10.300  0.00  0.00     0.229 C 
BRANCH  23  24
HETATM   24  N           1     -25.028  -4.290  -9.661  0.00  0.00    -0.079 N 
HETATM   25  H           1     -25.725  -5.067  -9.606  0.00  0.00     0.274 HD
HETATM   26  H           1     -24.816  -3.944  -8.699  0.00  0.00     0.274 HD
HETATM   27  H           1     -25.422  -3.511 -10.235  0.00  0.00     0.274 HD
ENDBRANCH  23  24
ENDBRANCH  22  23
ENDBRANCH  21  22
ENDBRANCH  20  21
ENDBRANCH  19  20
BRANCH  19  28
HETATM   28  C           1     -19.741  -4.786  -6.674  0.00  0.00     0.196 C 
HETATM   29  O           1     -19.983  -4.375  -5.519  0.00  0.00    -0.646 OA
HETATM   30  O           1     -18.693  -4.431  -7.257  0.00  0.00    -0.646 OA
ENDBRANCH  19  28
ENDBRANCH   4  19
TORSDOF 12
ENDMDL
MODEL 5
REMARK VINA RESULT:      -6.5     14.301     15.403
REMARK  12 active torsions:
REMARK  status: ('A' for Active; 'I' for Inactive)
REMARK    1  A    between atoms: C_5  and  C_25 
REMARK    2  A    between atoms: C_5  and  C_14 
REMARK    3  A    between atoms: C_11  and  C_13 
REMARK    4  A    between atoms: C_11  and  C_20 
REMARK    5  A    between atoms: N_12  and  C_13 
REMARK    6  A    between atoms: C_13  and  C_18 
REMARK    7  A    between atoms: C_14  and  C_23 
REMARK    8  A    between atoms: C_16  and  O_17 
REMARK       I    between atoms: C_18  and  N_19 
REMARK    9  A    between atoms: N_19  and  C_27 
REMARK   10  A    between atoms: C_23  and  C_27 
REMARK   11  A    between atoms: N_24  and  C_25 
REMARK   12  A    between atoms: C_27  and  C_28 
ROOT
HETATM    1  O           1     -22.985  -6.269  -5.055  0.00  0.00    -0.271 OA
HETATM    2  H           1     -19.945  -6.659  -4.386  0.00  0.00     0.163 HD
HETATM    3  C           1     -21.792  -6.097  -5.133  0.00  0.00     0.249 C 
HETATM    4  N           1     -20.944  -6.802  -4.320  0.00  0.00    -0.345 N 
ENDROOT
BRANCH   3   5
HETATM    5  C           1     -21.235  -5.109  -6.128  0.00  0.00     0.278 C 
BRANCH   5   6
HETATM    6  C           1     -20.754  -5.851  -7.367  0.00  0.00     0.081 C 
BRANCH   6   7
HETATM    7  C           1     -21.023  -5.022  -8.583  0.00  0.00    -0.056 A 
HETATM    8  C           1     -20.015  -4.820  -9.527  0.00  0.00     0.010 A 
HETATM    9  C           1     -20.266  -4.047 -10.660  0.00  0.00     0.037 A 
HETATM   10  C           1     -21.523  -3.474 -10.851  0.00  0.00     0.065 A 
HETATM   11  C           1     -22.530  -3.676  -9.907  0.00  0.00     0.037 A 
HETATM   12  C           1     -22.280  -4.449  -8.774  0.00  0.00     0.010 A 
BRANCH  10  13
HETATM   13  O           1     -21.766  -2.723 -11.951  0.00  0.00    -0.361 OA
HETATM   14  H           1     -22.726  -2.595 -12.022  0.00  0.00     0.217 HD
ENDBRANCH  10  13
ENDBRANCH   6   7
ENDBRANCH   5   6
BRANCH   5  15
HETATM   15  N           1     -20.085  -4.371  -5.509  0.00  0.00    -0.066 N 
HETATM   16  H           1     -20.032  -4.603  -4.490  0.00  0.00     0.275 HD
HETATM   17  H           1     -19.196  -4.656  -5.978  0.00  0.00     0.275 HD
HETATM   18  H           1     -20.227  -3.343  -5.626  0.00  0.00     0.275 HD
ENDBRANCH   5  15
ENDBRANCH   3   5
BRANCH   4  19
HETATM   19  C           1     -21.480  -7.751  -3.364  0.00  0.00     0.185 C 
BRANCH  19  20
HETATM   20  C           1     -20.633  -9.018  -3.378  0.00  0.00     0.036 C 
BRANCH  20  21
HETATM   21  C           1     -19.398  -8.795  -4.240  0.00  0.00     0.004 C 
BRANCH  21  22
HETATM   22  C           1     -18.352  -9.852  -3.912  0.00  0.00     0.027 C 
BRANCH  22  23
HETATM   23  C           1     -17.560 -10.190  -5.169  0.00  0.00     0.229 C 
BRANCH  23  24
HETATM   24  N           1     -18.095  -9.399  -6.326  0.00  0.00    -0.079 N 
HETATM   25  H           1     -17.442  -9.485  -7.138  0.00  0.00     0.274 HD
HETATM   26  H           1     -19.035  -9.767  -6.593  0.00  0.00     0.274 HD
HETATM   27  H           1     -18.177  -8.394  -6.051  0.00  0.00     0.274 HD
ENDBRANCH  23  24
ENDBRANCH  22  23
ENDBRANCH  21  22
ENDBRANCH  20  21
ENDBRANCH  19  20
BRANCH  19  28
HETATM   28  C           1     -21.452  -7.144  -1.984  0.00  0.00     0.196 C 
HETATM   29  O           1     -20.752  -7.662  -1.087  0.00  0.00    -0.646 OA
HETATM   30  O           1     -22.129  -6.122  -1.737  0.00  0.00    -0.646 OA
ENDBRANCH  19  28
ENDBRANCH   4  19
TORSDOF 12
ENDMDL
MODEL 6
REMARK VINA RESULT:      -6.5     13.697     14.758
REMARK  12 active torsions:
REMARK  status: ('A' for Active; 'I' for Inactive)
REMARK    1  A    between atoms: C_5  and  C_25 
REMARK    2  A    between atoms: C_5  and  C_14 
REMARK    3  A    between atoms: C_11  and  C_13 
REMARK    4  A    between atoms: C_11  and  C_20 
REMARK    5  A    between atoms: N_12  and  C_13 
REMARK    6  A    between atoms: C_13  and  C_18 
REMARK    7  A    between atoms: C_14  and  C_23 
REMARK    8  A    between atoms: C_16  and  O_17 
REMARK       I    between atoms: C_18  and  N_19 
REMARK    9  A    between atoms: N_19  and  C_27 
REMARK   10  A    between atoms: C_23  and  C_27 
REMARK   11  A    between atoms: N_24  and  C_25 
REMARK   12  A    between atoms: C_27  and  C_28 
ROOT
HETATM    1  O           1     -22.487  -5.845  -5.544  0.00  0.00    -0.271 OA
HETATM    2  H           1     -19.733  -7.027  -4.615  0.00  0.00     0.163 HD
HETATM    3  C           1     -21.290  -6.004  -5.519  0.00  0.00     0.249 C 
HETATM    4  N           1     -20.736  -6.892  -4.636  0.00  0.00    -0.345 N 
ENDROOT
BRANCH   3   5
HETATM    5  C           1     -20.405  -5.227  -6.462  0.00  0.00     0.278 C 
BRANCH   5   6
HETATM    6  C           1     -21.137  -3.978  -6.933  0.00  0.00     0.081 C 
BRANCH   6   7
HETATM    7  C           1     -21.406  -4.079  -8.402  0.00  0.00    -0.056 A 
HETATM    8  C           1     -22.691  -4.374  -8.856  0.00  0.00     0.010 A 
HETATM    9  C           1     -22.942  -4.468 -10.226  0.00  0.00     0.037 A 
HETATM   10  C           1     -21.908  -4.268 -11.140  0.00  0.00     0.065 A 
HETATM   11  C           1     -20.623  -3.974 -10.685  0.00  0.00     0.037 A 
HETATM   12  C           1     -20.371  -3.880  -9.316  0.00  0.00     0.010 A 
BRANCH  10  13
HETATM   13  O           1     -22.151  -4.360 -12.469  0.00  0.00    -0.361 OA
HETATM   14  H           1     -22.805  -3.681 -12.704  0.00  0.00     0.217 HD
ENDBRANCH  10  13
ENDBRANCH   6   7
ENDBRANCH   5   6
BRANCH   5  15
HETATM   15  N           1     -20.065  -6.083  -7.647  0.00  0.00    -0.066 N 
HETATM   16  H           1     -19.696  -7.004  -7.315  0.00  0.00     0.275 HD
HETATM   17  H           1     -20.923  -6.239  -8.222  0.00  0.00     0.275 HD
HETATM   18  H           1     -19.339  -5.605  -8.226  0.00  0.00     0.275 HD
ENDBRANCH   5  15
ENDBRANCH   3   5
BRANCH   4  19
HETATM   19  C           1     -21.587  -7.639  -3.729  0.00  0.00     0.185 C 
BRANCH  19  20
HETATM   20  C           1     -21.030  -9.046  -3.553  0.00  0.00     0.036 C 
BRANCH  20  21
HETATM   21  C           1     -22.181 -10.034  -3.418  0.00  0.00     0.004 C 
BRANCH  21  22
HETATM   22  C           1     -22.006 -10.846  -2.141  0.00  0.00     0.027 C 
BRANCH  22  23
HETATM   23  C           1     -22.983 -10.348  -1.084  0.00  0.00     0.229 C 
BRANCH  23  24
HETATM   24  N           1     -22.222  -9.720   0.045  0.00  0.00    -0.079 N 
HETATM   25  H           1     -22.349  -8.682   0.016  0.00  0.00     0.274 HD
HETATM   26  H           1     -22.579 -10.089   0.954  0.00  0.00     0.274 HD
HETATM   27  H           1     -21.206  -9.947  -0.051  0.00  0.00     0.274 HD
ENDBRANCH  23  24
ENDBRANCH  22  23
ENDBRANCH  21  22
ENDBRANCH  20  21
ENDBRANCH  19  20
BRANCH  19  28
HETATM   28  C           1     -21.627  -6.943  -2.391  0.00  0.00     0.196 C 
HETATM   29  O           1     -20.950  -7.383  -1.437  0.00  0.00    -0.646 OA
HETATM   30  O           1     -22.339  -5.927  -2.236  0.00  0.00    -0.646 OA
ENDBRANCH  19  28
ENDBRANCH   4  19
TORSDOF 12
ENDMDL
MODEL 7
REMARK VINA RESULT:      -6.4     13.936     16.193
REMARK  12 active torsions:
REMARK  status: ('A' for Active; 'I' for Inactive)
REMARK    1  A    between atoms: C_5  and  C_25 
REMARK    2  A    between atoms: C_5  and  C_14 
REMARK    3  A    between atoms: C_11  and  C_13 
REMARK    4  A    between atoms: C_11  and  C_20 
REMARK    5  A    between atoms: N_12  and  C_13 
REMARK    6  A    between atoms: C_13  and  C_18 
REMARK    7  A    between atoms: C_14  and  C_23 
REMARK    8  A    between atoms: C_16  and  O_17 
REMARK       I    between atoms: C_18  and  N_19 
REMARK    9  A    between atoms: N_19  and  C_27 
REMARK   10  A    between atoms: C_23  and  C_27 
REMARK   11  A    between atoms: N_24  and  C_25 
REMARK   12  A    between atoms: C_27  and  C_28 
ROOT
HETATM    1  O           1     -19.939  -6.746  -7.067  0.00  0.00    -0.271 OA
HETATM    2  H           1     -22.837  -5.714  -6.451  0.00  0.00     0.163 HD
HETATM    3  C           1     -20.996  -6.661  -6.490  0.00  0.00     0.249 C 
HETATM    4  N           1     -21.950  -5.785  -6.934  0.00  0.00    -0.345 N 
ENDROOT
BRANCH   3   5
HETATM    5  C           1     -21.268  -7.522  -5.281  0.00  0.00     0.278 C 
BRANCH   5   6
HETATM    6  C           1     -20.278  -7.175  -4.177  0.00  0.00     0.081 C 
BRANCH   6   7
HETATM    7  C           1     -20.925  -7.379  -2.843  0.00  0.00    -0.056 A 
HETATM    8  C           1     -20.620  -8.512  -2.087  0.00  0.00     0.010 A 
HETATM    9  C           1     -21.223  -8.702  -0.843  0.00  0.00     0.037 A 
HETATM   10  C           1     -22.130  -7.762  -0.355  0.00  0.00     0.065 A 
HETATM   11  C           1     -22.435  -6.630  -1.112  0.00  0.00     0.037 A 
HETATM   12  C           1     -21.833  -6.439  -2.356  0.00  0.00     0.010 A 
BRANCH  10  13
HETATM   13  O           1     -22.716  -7.947   0.851  0.00  0.00    -0.361 OA
HETATM   14  H           1     -23.678  -7.887   0.731  0.00  0.00     0.217 HD
ENDBRANCH  10  13
ENDBRANCH   6   7
ENDBRANCH   5   6
BRANCH   5  15
HETATM   15  N           1     -21.116  -8.968  -5.652  0.00  0.00    -0.066 N 
HETATM   16  H           1     -20.319  -9.382  -5.116  0.00  0.00     0.275 HD
HETATM   17  H           1     -21.996  -9.482  -5.421  0.00  0.00     0.275 HD
HETATM   18  H           1     -20.926  -9.046  -6.676  0.00  0.00     0.275 HD
ENDBRANCH   5  15
ENDBRANCH   3   5
BRANCH   4  19
HETATM   19  C           1     -21.689  -4.958  -8.096  0.00  0.00     0.185 C 
BRANCH  19  20
HETATM   20  C           1     -23.004  -4.405  -8.632  0.00  0.00     0.036 C 
BRANCH  20  21
HETATM   21  C           1     -23.193  -4.852 -10.075  0.00  0.00     0.004 C 
BRANCH  21  22
HETATM   22  C           1     -22.751  -3.738 -11.015  0.00  0.00     0.027 C 
BRANCH  22  23
HETATM   23  C           1     -21.442  -4.131 -11.689  0.00  0.00     0.229 C 
BRANCH  23  24
HETATM   24  N           1     -20.369  -3.156 -11.304  0.00  0.00    -0.079 N 
HETATM   25  H           1     -19.822  -2.886 -12.154  0.00  0.00     0.274 HD
HETATM   26  H           1     -20.806  -2.304 -10.887  0.00  0.00     0.274 HD
HETATM   27  H           1     -19.730  -3.599 -10.607  0.00  0.00     0.274 HD
ENDBRANCH  23  24
ENDBRANCH  22  23
ENDBRANCH  21  22
ENDBRANCH  20  21
ENDBRANCH  19  20
BRANCH  19  28
HETATM   28  C           1     -20.785  -3.815  -7.705  0.00  0.00     0.196 C 
HETATM   29  O           1     -19.681  -3.669  -8.272  0.00  0.00    -0.646 OA
HETATM   30  O           1     -21.141  -3.014  -6.813  0.00  0.00    -0.646 OA
ENDBRANCH  19  28
ENDBRANCH   4  19
TORSDOF 12
ENDMDL
MODEL 8
REMARK VINA RESULT:      -6.3     13.478     14.538
REMARK  12 active torsions:
REMARK  status: ('A' for Active; 'I' for Inactive)
REMARK    1  A    between atoms: C_5  and  C_25 
REMARK    2  A    between atoms: C_5  and  C_14 
REMARK    3  A    between atoms: C_11  and  C_13 
REMARK    4  A    between atoms: C_11  and  C_20 
REMARK    5  A    between atoms: N_12  and  C_13 
REMARK    6  A    between atoms: C_13  and  C_18 
REMARK    7  A    between atoms: C_14  and  C_23 
REMARK    8  A    between atoms: C_16  and  O_17 
REMARK       I    between atoms: C_18  and  N_19 
REMARK    9  A    between atoms: N_19  and  C_27 
REMARK   10  A    between atoms: C_23  and  C_27 
REMARK   11  A    between atoms: N_24  and  C_25 
REMARK   12  A    between atoms: C_27  and  C_28 
ROOT
HETATM    1  O           1     -22.463  -5.643  -5.615  0.00  0.00    -0.271 OA
HETATM    2  H           1     -19.815  -7.079  -4.737  0.00  0.00     0.163 HD
HETATM    3  C           1     -21.284  -5.905  -5.604  0.00  0.00     0.249 C 
HETATM    4  N           1     -20.803  -6.858  -4.745  0.00  0.00    -0.345 N 
ENDROOT
BRANCH   3   5
HETATM    5  C           1     -20.341  -5.186  -6.537  0.00  0.00     0.278 C 
BRANCH   5   6
HETATM    6  C           1     -20.999  -3.908  -7.038  0.00  0.00     0.081 C 
BRANCH   6   7
HETATM    7  C           1     -21.376  -4.070  -8.477  0.00  0.00    -0.056 A 
HETATM    8  C           1     -22.693  -4.372  -8.823  0.00  0.00     0.010 A 
HETATM    9  C           1     -23.044  -4.523 -10.165  0.00  0.00     0.037 A 
HETATM   10  C           1     -22.079  -4.373 -11.161  0.00  0.00     0.065 A 
HETATM   11  C           1     -20.762  -4.071 -10.814  0.00  0.00     0.037 A 
HETATM   12  C           1     -20.410  -3.920  -9.473  0.00  0.00     0.010 A 
BRANCH  10  13
HETATM   13  O           1     -22.419  -4.520 -12.463  0.00  0.00    -0.361 OA
HETATM   14  H           1     -21.709  -5.013 -12.906  0.00  0.00     0.217 HD
ENDBRANCH  10  13
ENDBRANCH   6   7
ENDBRANCH   5   6
BRANCH   5  15
HETATM   15  N           1     -20.019  -6.073  -7.703  0.00  0.00    -0.066 N 
HETATM   16  H           1     -19.018  -6.368  -7.649  0.00  0.00     0.275 HD
HETATM   17  H           1     -20.633  -6.918  -7.678  0.00  0.00     0.275 HD
HETATM   18  H           1     -20.181  -5.551  -8.593  0.00  0.00     0.275 HD
ENDBRANCH   5  15
ENDBRANCH   3   5
BRANCH   4  19
HETATM   19  C           1     -21.708  -7.549  -3.849  0.00  0.00     0.185 C 
BRANCH  19  20
HETATM   20  C           1     -21.324  -9.022  -3.774  0.00  0.00     0.036 C 
BRANCH  20  21
HETATM   21  C           1     -20.884  -9.503  -5.151  0.00  0.00     0.004 C 
BRANCH  21  22
HETATM   22  C           1     -20.845 -11.025  -5.168  0.00  0.00     0.027 C 
BRANCH  22  23
HETATM   23  C           1     -21.442 -11.534  -6.474  0.00  0.00     0.229 C 
BRANCH  23  24
HETATM   24  N           1     -22.293 -12.739  -6.199  0.00  0.00    -0.079 N 
HETATM   25  H           1     -22.279 -12.949  -5.175  0.00  0.00     0.274 HD
HETATM   26  H           1     -23.273 -12.548  -6.503  0.00  0.00     0.274 HD
HETATM   27  H           1     -21.916 -13.558  -6.727  0.00  0.00     0.274 HD
ENDBRANCH  23  24
ENDBRANCH  22  23
ENDBRANCH  21  22
ENDBRANCH  20  21
ENDBRANCH  19  20
BRANCH  19  28
HETATM   28  C           1     -21.618  -6.936  -2.473  0.00  0.00     0.196 C 
HETATM   29  O           1     -20.906  -7.471  -1.596  0.00  0.00    -0.646 OA
HETATM   30  O           1     -22.257  -5.894  -2.211  0.00  0.00    -0.646 OA
ENDBRANCH  19  28
ENDBRANCH   4  19
TORSDOF 12
ENDMDL
MODEL 9
REMARK VINA RESULT:      -6.1     14.986     16.279
REMARK  12 active torsions:
REMARK  status: ('A' for Active; 'I' for Inactive)
REMARK    1  A    between atoms: C_5  and  C_25 
REMARK    2  A    between atoms: C_5  and  C_14 
REMARK    3  A    between atoms: C_11  and  C_13 
REMARK    4  A    between atoms: C_11  and  C_20 
REMARK    5  A    between atoms: N_12  and  C_13 
REMARK    6  A    between atoms: C_13  and  C_18 
REMARK    7  A    between atoms: C_14  and  C_23 
REMARK    8  A    between atoms: C_16  and  O_17 
REMARK       I    between atoms: C_18  and  N_19 
REMARK    9  A    between atoms: N_19  and  C_27 
REMARK   10  A    between atoms: C_23  and  C_27 
REMARK   11  A    between atoms: N_24  and  C_25 
REMARK   12  A    between atoms: C_27  and  C_28 
ROOT
HETATM    1  O           1     -21.117  -8.189  -6.152  0.00  0.00    -0.271 OA
HETATM    2  H           1     -20.028  -7.615  -3.266  0.00  0.00     0.163 HD
HETATM    3  C           1     -20.943  -7.581  -5.123  0.00  0.00     0.249 C 
HETATM    4  N           1     -20.175  -8.125  -4.128  0.00  0.00    -0.345 N 
ENDROOT
BRANCH   3   5
HETATM    5  C           1     -21.568  -6.221  -4.936  0.00  0.00     0.278 C 
BRANCH   5   6
HETATM    6  C           1     -20.600  -5.146  -5.410  0.00  0.00     0.081 C 
BRANCH   6   7
HETATM    7  C           1     -20.944  -4.746  -6.811  0.00  0.00    -0.056 A 
HETATM    8  C           1     -19.933  -4.593  -7.760  0.00  0.00     0.010 A 
HETATM    9  C           1     -20.254  -4.220  -9.066  0.00  0.00     0.037 A 
HETATM   10  C           1     -21.584  -4.000  -9.423  0.00  0.00     0.065 A 
HETATM   11  C           1     -22.594  -4.153  -8.473  0.00  0.00     0.037 A 
HETATM   12  C           1     -22.275  -4.526  -7.167  0.00  0.00     0.010 A 
BRANCH  10  13
HETATM   13  O           1     -21.895  -3.637 -10.690  0.00  0.00    -0.361 OA
HETATM   14  H           1     -22.705  -4.108 -10.947  0.00  0.00     0.217 HD
ENDBRANCH  10  13
ENDBRANCH   6   7
ENDBRANCH   5   6
BRANCH   5  15
HETATM   15  N           1     -21.877  -6.009  -3.483  0.00  0.00    -0.066 N 
HETATM   16  H           1     -21.106  -5.459  -3.040  0.00  0.00     0.275 HD
HETATM   17  H           1     -22.776  -5.484  -3.391  0.00  0.00     0.275 HD
HETATM   18  H           1     -21.964  -6.934  -3.006  0.00  0.00     0.275 HD
ENDBRANCH   5  15
ENDBRANCH   3   5
BRANCH   4  19
HETATM   19  C           1     -19.574  -9.432  -4.308  0.00  0.00     0.185 C 
BRANCH  19  20
HETATM   20  C           1     -18.225  -9.473  -3.602  0.00  0.00     0.036 C 
BRANCH  20  21
HETATM   21  C           1     -17.150  -9.915  -4.585  0.00  0.00     0.004 C 
BRANCH  21  22
HETATM   22  C           1     -17.709  -9.880  -6.000  0.00  0.00     0.027 C 
BRANCH  22  23
HETATM   23  C           1     -17.723 -11.290  -6.577  0.00  0.00     0.229 C 
BRANCH  23  24
HETATM   24  N           1     -19.094 -11.604  -7.100  0.00  0.00    -0.079 N 
HETATM   25  H           1     -19.705 -11.916  -6.311  0.00  0.00     0.274 HD
HETATM   26  H           1     -19.502 -10.749  -7.540  0.00  0.00     0.274 HD
HETATM   27  H           1     -19.029 -12.367  -7.811  0.00  0.00     0.274 HD
ENDBRANCH  23  24
ENDBRANCH  22  23
ENDBRANCH  21  22
ENDBRANCH  20  21
ENDBRANCH  19  20
BRANCH  19  28
HETATM   28  C           1     -20.480 -10.486  -3.722  0.00  0.00     0.196 C 
HETATM   29  O           1     -20.828 -11.467  -4.414  0.00  0.00    -0.646 OA
HETATM   30  O           1     -20.885 -10.377  -2.544  0.00  0.00    -0.646 OA
ENDBRANCH  19  28
ENDBRANCH   4  19
TORSDOF 12
ENDMDL
