MODEL 1
REMARK VINA RESULT:      -7.5      0.000      0.000
REMARK  8 active torsions:
REMARK  status: ('A' for Active; 'I' for Inactive)
REMARK    1  A    between atoms: C_3  and  C_5 
REMARK    2  A    between atoms: C_3  and  C_4 
REMARK    3  A    between atoms: C_3  and  N_19 
REMARK    4  A    between atoms: C_5  and  C_10 
REMARK       I    between atoms: C_13  and  N_19 
REMARK    5  A    between atoms: C_13  and  C_18 
REMARK    6  A    between atoms: N_16  and  C_18 
REMARK    7  A    between atoms: C_18  and  C_25 
REMARK    8  A    between atoms: O_22  and  C_23 
ROOT
HETATM    1  C           1     -35.859  -1.355 -12.106  0.00  0.00     0.189 C 
ENDROOT
BRANCH   1   2
HETATM    2  C           1     -34.427  -1.534 -11.621  0.00  0.00     0.074 C 
BRANCH   2   3
HETATM    3  C           1     -34.146  -2.991 -11.422  0.00  0.00    -0.056 A 
HETATM    4  C           1     -32.918  -3.524 -11.814  0.00  0.00     0.010 A 
HETATM    5  C           1     -32.655  -4.882 -11.629  0.00  0.00     0.037 A 
HETATM    6  C           1     -33.622  -5.706 -11.053  0.00  0.00     0.065 A 
HETATM    7  C           1     -34.850  -5.173 -10.661  0.00  0.00     0.037 A 
HETATM    8  C           1     -35.111  -3.816 -10.846  0.00  0.00     0.010 A 
BRANCH   6   9
HETATM    9  O           1     -33.367  -7.024 -10.873  0.00  0.00    -0.361 OA
HETATM   10  H           1     -32.881  -7.346 -11.652  0.00  0.00     0.217 HD
ENDBRANCH   6   9
ENDBRANCH   2   3
ENDBRANCH   1   2
BRANCH   1  11
HETATM   11  C           1     -36.697  -0.769 -10.996  0.00  0.00     0.197 C 
HETATM   12  O           1     -36.162  -0.062 -10.115  0.00  0.00    -0.646 OA
HETATM   13  O           1     -37.926  -0.991 -10.957  0.00  0.00    -0.646 OA
ENDBRANCH   1  11
BRANCH   1  14
HETATM   14  N           1     -35.874  -0.459 -13.246  0.00  0.00    -0.344 N 
HETATM   15  H           1     -36.167   0.502 -13.131  0.00  0.00     0.163 HD
HETATM   16  C           1     -35.492  -0.915 -14.479  0.00  0.00     0.249 C 
HETATM   17  O           1     -35.143  -2.063 -14.617  0.00  0.00    -0.271 OA
BRANCH  16  18
HETATM   18  C           1     -35.507   0.017 -15.666  0.00  0.00     0.278 C 
BRANCH  18  19
HETATM   19  N           1     -35.917  -0.743 -16.893  0.00  0.00    -0.066 N 
HETATM   20  H           1     -36.422  -1.613 -16.610  0.00  0.00     0.275 HD
HETATM   21  H           1     -35.067  -0.998 -17.444  0.00  0.00     0.275 HD
HETATM   22  H           1     -36.546  -0.148 -17.477  0.00  0.00     0.275 HD
ENDBRANCH  18  19
BRANCH  18  23
HETATM   23  C           1     -36.499   1.145 -15.413  0.00  0.00     0.017 C 
HETATM   24  C           1     -36.087   2.373 -16.213  0.00  0.00     0.012 C 
HETATM   25  C           1     -37.891   0.703 -15.843  0.00  0.00     0.012 C 
ENDBRANCH  18  23
ENDBRANCH  16  18
ENDBRANCH   1  14
TORSDOF 8
ENDMDL
MODEL 2
REMARK VINA RESULT:      -7.5     13.214     16.655
REMARK  8 active torsions:
REMARK  status: ('A' for Active; 'I' for Inactive)
REMARK    1  A    between atoms: C_3  and  C_5 
REMARK    2  A    between atoms: C_3  and  C_4 
REMARK    3  A    between atoms: C_3  and  N_19 
REMARK    4  A    between atoms: C_5  and  C_10 
REMARK       I    between atoms: C_13  and  N_19 
REMARK    5  A    between atoms: C_13  and  C_18 
REMARK    6  A    between atoms: N_16  and  C_18 
REMARK    7  A    between atoms: C_18  and  C_25 
REMARK    8  A    between atoms: O_22  and  C_23 
ROOT
HETATM    1  C           1     -21.065  -5.115  -6.981  0.00  0.00     0.189 C 
ENDROOT
BRANCH   1   2
HETATM    2  C           1     -21.925  -3.950  -7.453  0.00  0.00     0.074 C 
BRANCH   2   3
HETATM    3  C           1     -22.370  -4.195  -8.861  0.00  0.00    -0.056 A 
HETATM    4  C           1     -21.433  -4.223  -9.894  0.00  0.00     0.010 A 
HETATM    5  C           1     -21.848  -4.452 -11.206  0.00  0.00     0.037 A 
HETATM    6  C           1     -23.200  -4.652 -11.485  0.00  0.00     0.065 A 
HETATM    7  C           1     -24.137  -4.624 -10.452  0.00  0.00     0.037 A 
HETATM    8  C           1     -23.722  -4.395  -9.141  0.00  0.00     0.010 A 
BRANCH   6   9
HETATM    9  O           1     -23.602  -4.874 -12.759  0.00  0.00    -0.361 OA
HETATM   10  H           1     -22.809  -4.997 -13.308  0.00  0.00     0.217 HD
ENDBRANCH   6   9
ENDBRANCH   2   3
ENDBRANCH   1   2
BRANCH   1  11
HETATM   11  C           1     -19.658  -4.632  -6.727  0.00  0.00     0.197 C 
HETATM   12  O           1     -18.870  -4.472  -7.685  0.00  0.00    -0.646 OA
HETATM   13  O           1     -19.280  -4.394  -5.561  0.00  0.00    -0.646 OA
ENDBRANCH   1  11
BRANCH   1  14
HETATM   14  N           1     -21.618  -5.657  -5.755  0.00  0.00    -0.344 N 
HETATM   15  H           1     -22.190  -5.074  -5.157  0.00  0.00     0.163 HD
HETATM   16  C           1     -21.366  -6.956  -5.406  0.00  0.00     0.249 C 
HETATM   17  O           1     -20.682  -7.652  -6.119  0.00  0.00    -0.271 OA
BRANCH  16  18
HETATM   18  C           1     -21.941  -7.520  -4.130  0.00  0.00     0.278 C 
BRANCH  18  19
HETATM   19  N           1     -21.778  -9.011  -4.124  0.00  0.00    -0.066 N 
HETATM   20  H           1     -22.679  -9.458  -3.842  0.00  0.00     0.275 HD
HETATM   21  H           1     -21.030  -9.277  -3.445  0.00  0.00     0.275 HD
HETATM   22  H           1     -21.512  -9.336  -5.080  0.00  0.00     0.275 HD
ENDBRANCH  18  19
BRANCH  18  23
HETATM   23  C           1     -21.207  -6.925  -2.935  0.00  0.00     0.017 C 
HETATM   24  C           1     -22.208  -6.243  -2.012  0.00  0.00     0.012 C 
HETATM   25  C           1     -20.490  -8.032  -2.176  0.00  0.00     0.012 C 
ENDBRANCH  18  23
ENDBRANCH  16  18
ENDBRANCH   1  14
TORSDOF 8
ENDMDL
MODEL 3
REMARK VINA RESULT:      -7.0      2.524      5.896
REMARK  8 active torsions:
REMARK  status: ('A' for Active; 'I' for Inactive)
REMARK    1  A    between atoms: C_3  and  C_5 
REMARK    2  A    between atoms: C_3  and  C_4 
REMARK    3  A    between atoms: C_3  and  N_19 
REMARK    4  A    between atoms: C_5  and  C_10 
REMARK       I    between atoms: C_13  and  N_19 
REMARK    5  A    between atoms: C_13  and  C_18 
REMARK    6  A    between atoms: N_16  and  C_18 
REMARK    7  A    between atoms: C_18  and  C_25 
REMARK    8  A    between atoms: O_22  and  C_23 
ROOT
HETATM    1  C           1     -36.308  -0.551 -10.395  0.00  0.00     0.189 C 
ENDROOT
BRANCH   1   2
HETATM    2  C           1     -37.545  -0.300 -11.247  0.00  0.00     0.074 C 
BRANCH   2   3
HETATM    3  C           1     -37.135  -0.087 -12.671  0.00  0.00    -0.056 A 
HETATM    4  C           1     -38.075  -0.217 -13.694  0.00  0.00     0.010 A 
HETATM    5  C           1     -37.694  -0.019 -15.021  0.00  0.00     0.037 A 
HETATM    6  C           1     -36.372   0.308 -15.325  0.00  0.00     0.065 A 
HETATM    7  C           1     -35.433   0.438 -14.303  0.00  0.00     0.037 A 
HETATM    8  C           1     -35.814   0.240 -12.976  0.00  0.00     0.010 A 
BRANCH   6   9
HETATM    9  O           1     -36.002   0.501 -16.614  0.00  0.00    -0.361 OA
HETATM   10  H           1     -35.101   0.865 -16.617  0.00  0.00     0.217 HD
ENDBRANCH   6   9
ENDBRANCH   2   3
ENDBRANCH   1   2
BRANCH   1  11
HETATM   11  C           1     -36.614  -0.223  -8.954  0.00  0.00     0.197 C 
HETATM   12  O           1     -35.793   0.430  -8.273  0.00  0.00    -0.646 OA
HETATM   13  O           1     -37.687  -0.604  -8.441  0.00  0.00    -0.646 OA
ENDBRANCH   1  11
BRANCH   1  14
HETATM   14  N           1     -35.923  -1.944 -10.502  0.00  0.00    -0.344 N 
HETATM   15  H           1     -36.632  -2.667 -10.512  0.00  0.00     0.163 HD
HETATM   16  C           1     -34.599  -2.285 -10.587  0.00  0.00     0.249 C 
HETATM   17  O           1     -33.752  -1.424 -10.573  0.00  0.00    -0.271 OA
BRANCH  16  18
HETATM   18  C           1     -34.199  -3.735 -10.698  0.00  0.00     0.278 C 
BRANCH  18  19
HETATM   19  N           1     -35.420  -4.574 -10.930  0.00  0.00    -0.066 N 
HETATM   20  H           1     -35.375  -5.427 -10.327  0.00  0.00     0.275 HD
HETATM   21  H           1     -35.461  -4.859 -11.934  0.00  0.00     0.275 HD
HETATM   22  H           1     -36.273  -4.022 -10.690  0.00  0.00     0.275 HD
ENDBRANCH  18  19
BRANCH  18  23
HETATM   23  C           1     -33.235  -3.908 -11.864  0.00  0.00     0.017 C 
HETATM   24  C           1     -32.527  -5.251 -11.745  0.00  0.00     0.012 C 
HETATM   25  C           1     -34.009  -3.858 -13.174  0.00  0.00     0.012 C 
ENDBRANCH  18  23
ENDBRANCH  16  18
ENDBRANCH   1  14
TORSDOF 8
ENDMDL
MODEL 4
REMARK VINA RESULT:      -6.9      1.618      2.109
REMARK  8 active torsions:
REMARK  status: ('A' for Active; 'I' for Inactive)
REMARK    1  A    between atoms: C_3  and  C_5 
REMARK    2  A    between atoms: C_3  and  C_4 
REMARK    3  A    between atoms: C_3  and  N_19 
REMARK    4  A    between atoms: C_5  and  C_10 
REMARK       I    between atoms: C_13  and  N_19 
REMARK    5  A    between atoms: C_13  and  C_18 
REMARK    6  A    between atoms: N_16  and  C_18 
REMARK    7  A    between atoms: C_18  and  C_25 
REMARK    8  A    between atoms: O_22  and  C_23 
ROOT
HETATM    1  C           1     -36.829  -0.850 -10.659  0.00  0.00     0.189 C 
ENDROOT
BRANCH   1   2
HETATM    2  C           1     -36.164  -1.856  -9.730  0.00  0.00     0.074 C 
BRANCH   2   3
HETATM    3  C           1     -35.141  -2.639 -10.492  0.00  0.00    -0.056 A 
HETATM    4  C           1     -35.504  -3.822 -11.135  0.00  0.00     0.010 A 
HETATM    5  C           1     -34.551  -4.552 -11.845  0.00  0.00     0.037 A 
HETATM    6  C           1     -33.233  -4.099 -11.911  0.00  0.00     0.065 A 
HETATM    7  C           1     -32.870  -2.916 -11.268  0.00  0.00     0.037 A 
HETATM    8  C           1     -33.823  -2.187 -10.558  0.00  0.00     0.010 A 
BRANCH   6   9
HETATM    9  O           1     -32.308  -4.808 -12.601  0.00  0.00    -0.361 OA
HETATM   10  H           1     -32.632  -4.921 -13.510  0.00  0.00     0.217 HD
ENDBRANCH   6   9
ENDBRANCH   2   3
ENDBRANCH   1   2
BRANCH   1  11
HETATM   11  C           1     -37.053   0.447  -9.920  0.00  0.00     0.197 C 
HETATM   12  O           1     -36.216   0.839  -9.078  0.00  0.00    -0.646 OA
HETATM   13  O           1     -38.075   1.128 -10.149  0.00  0.00    -0.646 OA
ENDBRANCH   1  11
BRANCH   1  14
HETATM   14  N           1     -35.973  -0.611 -11.804  0.00  0.00    -0.344 N 
HETATM   15  H           1     -34.975  -0.506 -11.678  0.00  0.00     0.163 HD
HETATM   16  C           1     -36.516  -0.525 -13.059  0.00  0.00     0.249 C 
HETATM   17  O           1     -37.708  -0.648 -13.211  0.00  0.00    -0.271 OA
BRANCH  16  18
HETATM   18  C           1     -35.625  -0.276 -14.251  0.00  0.00     0.278 C 
BRANCH  18  19
HETATM   19  N           1     -35.031  -1.575 -14.710  0.00  0.00    -0.066 N 
HETATM   20  H           1     -34.767  -2.150 -13.879  0.00  0.00     0.275 HD
HETATM   21  H           1     -34.180  -1.384 -15.286  0.00  0.00     0.275 HD
HETATM   22  H           1     -35.731  -2.094 -15.286  0.00  0.00     0.275 HD
ENDBRANCH  18  19
BRANCH  18  23
HETATM   23  C           1     -36.445   0.334 -15.380  0.00  0.00     0.017 C 
HETATM   24  C           1     -35.825   1.659 -15.801  0.00  0.00     0.012 C 
HETATM   25  C           1     -36.462  -0.618 -16.568  0.00  0.00     0.012 C 
ENDBRANCH  18  23
ENDBRANCH  16  18
ENDBRANCH   1  14
TORSDOF 8
ENDMDL
MODEL 5
REMARK VINA RESULT:      -6.8     15.734     17.840
REMARK  8 active torsions:
REMARK  status: ('A' for Active; 'I' for Inactive)
REMARK    1  A    between atoms: C_3  and  C_5 
REMARK    2  A    between atoms: C_3  and  C_4 
REMARK    3  A    between atoms: C_3  and  N_19 
REMARK    4  A    between atoms: C_5  and  C_10 
REMARK       I    between atoms: C_13  and  N_19 
REMARK    5  A    between atoms: C_13  and  C_18 
REMARK    6  A    between atoms: N_16  and  C_18 
REMARK    7  A    between atoms: C_18  and  C_25 
REMARK    8  A    between atoms: O_22  and  C_23 
ROOT
HETATM    1  C           1     -20.331  -7.792  -4.864  0.00  0.00     0.189 C 
ENDROOT
BRANCH   1   2
HETATM    2  C           1     -21.497  -8.637  -4.367  0.00  0.00     0.074 C 
BRANCH   2   3
HETATM    3  C           1     -21.683  -8.417  -2.899  0.00  0.00    -0.056 A 
HETATM    4  C           1     -21.866  -7.126  -2.405  0.00  0.00     0.010 A 
HETATM    5  C           1     -22.039  -6.920  -1.036  0.00  0.00     0.037 A 
HETATM    6  C           1     -22.028  -8.007  -0.161  0.00  0.00     0.065 A 
HETATM    7  C           1     -21.846  -9.299  -0.655  0.00  0.00     0.037 A 
HETATM    8  C           1     -21.672  -9.503  -2.024  0.00  0.00     0.010 A 
BRANCH   6   9
HETATM    9  O           1     -22.197  -7.808   1.168  0.00  0.00    -0.361 OA
HETATM   10  H           1     -23.147  -7.877   1.365  0.00  0.00     0.217 HD
ENDBRANCH   6   9
ENDBRANCH   2   3
ENDBRANCH   1   2
BRANCH   1  11
HETATM   11  C           1     -19.117  -8.669  -5.054  0.00  0.00     0.197 C 
HETATM   12  O           1     -18.511  -9.121  -4.058  0.00  0.00    -0.646 OA
HETATM   13  O           1     -18.719  -8.943  -6.206  0.00  0.00    -0.646 OA
ENDBRANCH   1  11
BRANCH   1  14
HETATM   14  N           1     -20.685  -7.178  -6.129  0.00  0.00    -0.344 N 
HETATM   15  H           1     -20.685  -7.729  -6.978  0.00  0.00     0.163 HD
HETATM   16  C           1     -21.019  -5.851  -6.175  0.00  0.00     0.249 C 
HETATM   17  O           1     -21.019  -5.191  -5.163  0.00  0.00    -0.271 OA
BRANCH  16  18
HETATM   18  C           1     -21.387  -5.211  -7.492  0.00  0.00     0.278 C 
BRANCH  18  19
HETATM   19  N           1     -21.932  -3.836  -7.244  0.00  0.00    -0.066 N 
HETATM   20  H           1     -22.715  -3.647  -7.909  0.00  0.00     0.275 HD
HETATM   21  H           1     -21.174  -3.131  -7.389  0.00  0.00     0.275 HD
HETATM   22  H           1     -22.284  -3.772  -6.263  0.00  0.00     0.275 HD
ENDBRANCH  18  19
BRANCH  18  23
HETATM   23  C           1     -20.150  -5.116  -8.374  0.00  0.00     0.017 C 
HETATM   24  C           1     -20.517  -4.457  -9.697  0.00  0.00     0.012 C 
HETATM   25  C           1     -19.088  -4.282  -7.670  0.00  0.00     0.012 C 
ENDBRANCH  18  23
ENDBRANCH  16  18
ENDBRANCH   1  14
TORSDOF 8
ENDMDL
MODEL 6
REMARK VINA RESULT:      -6.7      2.825      5.055
REMARK  8 active torsions:
REMARK  status: ('A' for Active; 'I' for Inactive)
REMARK    1  A    between atoms: C_3  and  C_5 
REMARK    2  A    between atoms: C_3  and  C_4 
REMARK    3  A    between atoms: C_3  and  N_19 
REMARK    4  A    between atoms: C_5  and  C_10 
REMARK       I    between atoms: C_13  and  N_19 
REMARK    5  A    between atoms: C_13  and  C_18 
REMARK    6  A    between atoms: N_16  and  C_18 
REMARK    7  A    between atoms: C_18  and  C_25 
REMARK    8  A    between atoms: O_22  and  C_23 
ROOT
HETATM    1  C           1     -36.372  -0.567 -11.068  0.00  0.00     0.189 C 
ENDROOT
BRANCH   1   2
HETATM    2  C           1     -37.745  -0.503 -10.411  0.00  0.00     0.074 C 
BRANCH   2   3
HETATM    3  C           1     -37.607   0.016  -9.014  0.00  0.00    -0.056 A 
HETATM    4  C           1     -37.019   1.260  -8.787  0.00  0.00     0.010 A 
HETATM    5  C           1     -36.890   1.744  -7.485  0.00  0.00     0.037 A 
HETATM    6  C           1     -37.347   0.982  -6.410  0.00  0.00     0.065 A 
HETATM    7  C           1     -37.935  -0.262  -6.637  0.00  0.00     0.037 A 
HETATM    8  C           1     -38.064  -0.745  -7.938  0.00  0.00     0.010 A 
BRANCH   6   9
HETATM    9  O           1     -37.222   1.452  -5.146  0.00  0.00    -0.361 OA
HETATM   10  H           1     -37.363   2.414  -5.167  0.00  0.00     0.217 HD
ENDBRANCH   6   9
ENDBRANCH   2   3
ENDBRANCH   1   2
BRANCH   1  11
HETATM   11  C           1     -35.765  -1.929 -10.834  0.00  0.00     0.197 C 
HETATM   12  O           1     -36.504  -2.930 -10.712  0.00  0.00    -0.646 OA
HETATM   13  O           1     -34.524  -2.056 -10.761  0.00  0.00    -0.646 OA
ENDBRANCH   1  11
BRANCH   1  14
HETATM   14  N           1     -36.508  -0.337 -12.492  0.00  0.00    -0.344 N 
HETATM   15  H           1     -37.303  -0.714 -12.993  0.00  0.00     0.163 HD
HETATM   16  C           1     -35.560   0.389 -13.162  0.00  0.00     0.249 C 
HETATM   17  O           1     -34.610   0.837 -12.566  0.00  0.00    -0.271 OA
BRANCH  16  18
HETATM   18  C           1     -35.701   0.628 -14.646  0.00  0.00     0.278 C 
BRANCH  18  19
HETATM   19  N           1     -34.382   0.387 -15.318  0.00  0.00    -0.066 N 
HETATM   20  H           1     -33.750  -0.133 -14.669  0.00  0.00     0.275 HD
HETATM   21  H           1     -33.947   1.304 -15.569  0.00  0.00     0.275 HD
HETATM   22  H           1     -34.531  -0.176 -16.186  0.00  0.00     0.275 HD
ENDBRANCH  18  19
BRANCH  18  23
HETATM   23  C           1     -36.743  -0.325 -15.216  0.00  0.00     0.017 C 
HETATM   24  C           1     -38.021   0.444 -15.526  0.00  0.00     0.012 C 
HETATM   25  C           1     -36.209  -0.956 -16.495  0.00  0.00     0.012 C 
ENDBRANCH  18  23
ENDBRANCH  16  18
ENDBRANCH   1  14
TORSDOF 8
ENDMDL
MODEL 7
REMARK VINA RESULT:      -6.5      3.210      4.453
REMARK  8 active torsions:
REMARK  status: ('A' for Active; 'I' for Inactive)
REMARK    1  A    between atoms: C_3  and  C_5 
REMARK    2  A    between atoms: C_3  and  C_4 
REMARK    3  A    between atoms: C_3  and  N_19 
REMARK    4  A    between atoms: C_5  and  C_10 
REMARK       I    between atoms: C_13  and  N_19 
REMARK    5  A    between atoms: C_13  and  C_18 
REMARK    6  A    between atoms: N_16  and  C_18 
REMARK    7  A    between atoms: C_18  and  C_25 
REMARK    8  A    between atoms: O_22  and  C_23 
ROOT
HETATM    1  C           1     -34.230  -3.809 -13.206  0.00  0.00     0.189 C 
ENDROOT
BRANCH   1   2
HETATM    2  C           1     -33.248  -3.972 -12.053  0.00  0.00     0.074 C 
BRANCH   2   3
HETATM    3  C           1     -33.571  -5.221 -11.294  0.00  0.00    -0.056 A 
HETATM    4  C           1     -32.666  -6.282 -11.278  0.00  0.00     0.010 A 
HETATM    5  C           1     -32.967  -7.446 -10.572  0.00  0.00     0.037 A 
HETATM    6  C           1     -34.175  -7.550  -9.881  0.00  0.00     0.065 A 
HETATM    7  C           1     -35.080  -6.489  -9.897  0.00  0.00     0.037 A 
HETATM    8  C           1     -34.779  -5.326 -10.604  0.00  0.00     0.010 A 
BRANCH   6   9
HETATM    9  O           1     -34.467  -8.680  -9.195  0.00  0.00    -0.361 OA
HETATM   10  H           1     -33.717  -8.878  -8.608  0.00  0.00     0.217 HD
ENDBRANCH   6   9
ENDBRANCH   2   3
ENDBRANCH   1   2
BRANCH   1  11
HETATM   11  C           1     -34.988  -2.514 -13.042  0.00  0.00     0.197 C 
HETATM   12  O           1     -34.904  -1.626 -13.918  0.00  0.00    -0.646 OA
HETATM   13  O           1     -35.699  -2.330 -12.032  0.00  0.00    -0.646 OA
ENDBRANCH   1  11
BRANCH   1  14
HETATM   14  N           1     -33.503  -3.788 -14.459  0.00  0.00    -0.344 N 
HETATM   15  H           1     -32.633  -3.276 -14.532  0.00  0.00     0.163 HD
HETATM   16  C           1     -33.995  -4.459 -15.547  0.00  0.00     0.249 C 
HETATM   17  O           1     -35.034  -5.069 -15.462  0.00  0.00    -0.271 OA
BRANCH  16  18
HETATM   18  C           1     -33.238  -4.437 -16.853  0.00  0.00     0.278 C 
BRANCH  18  19
HETATM   19  N           1     -33.411  -3.099 -17.508  0.00  0.00    -0.066 N 
HETATM   20  H           1     -32.523  -2.554 -17.428  0.00  0.00     0.275 HD
HETATM   21  H           1     -34.184  -2.578 -17.036  0.00  0.00     0.275 HD
HETATM   22  H           1     -33.648  -3.233 -18.517  0.00  0.00     0.275 HD
ENDBRANCH  18  19
BRANCH  18  23
HETATM   23  C           1     -31.759  -4.683 -16.586  0.00  0.00     0.017 C 
HETATM   24  C           1     -31.393  -6.098 -17.016  0.00  0.00     0.012 C 
HETATM   25  C           1     -30.927  -3.682 -17.376  0.00  0.00     0.012 C 
ENDBRANCH  18  23
ENDBRANCH  16  18
ENDBRANCH   1  14
TORSDOF 8
ENDMDL
MODEL 8
REMARK VINA RESULT:      -6.5     14.599     17.114
REMARK  8 active torsions:
REMARK  status: ('A' for Active; 'I' for Inactive)
REMARK    1  A    between atoms: C_3  and  C_5 
REMARK    2  A    between atoms: C_3  and  C_4 
REMARK    3  A    between atoms: C_3  and  N_19 
REMARK    4  A    between atoms: C_5  and  C_10 
REMARK       I    between atoms: C_13  and  N_19 
REMARK    5  A    between atoms: C_13  and  C_18 
REMARK    6  A    between atoms: N_16  and  C_18 
REMARK    7  A    between atoms: C_18  and  C_25 
REMARK    8  A    between atoms: O_22  and  C_23 
ROOT
HETATM    1  C           1     -21.037  -6.243  -4.482  0.00  0.00     0.189 C 
ENDROOT
BRANCH   1   2
HETATM    2  C           1     -21.126  -5.699  -3.062  0.00  0.00     0.074 C 
BRANCH   2   3
HETATM    3  C           1     -21.288  -6.835  -2.101  0.00  0.00    -0.056 A 
HETATM    4  C           1     -20.406  -7.914  -2.142  0.00  0.00     0.010 A 
HETATM    5  C           1     -20.557  -8.974  -1.247  0.00  0.00     0.037 A 
HETATM    6  C           1     -21.592  -8.954  -0.312  0.00  0.00     0.065 A 
HETATM    7  C           1     -22.474  -7.875  -0.271  0.00  0.00     0.037 A 
HETATM    8  C           1     -22.323  -6.816  -1.166  0.00  0.00     0.010 A 
BRANCH   6   9
HETATM    9  O           1     -21.739  -9.983   0.558  0.00  0.00    -0.361 OA
HETATM   10  H           1     -21.716  -9.620   1.459  0.00  0.00     0.217 HD
ENDBRANCH   6   9
ENDBRANCH   2   3
ENDBRANCH   1   2
BRANCH   1  11
HETATM   11  C           1     -22.294  -7.013  -4.806  0.00  0.00     0.197 C 
HETATM   12  O           1     -22.240  -8.249  -4.989  0.00  0.00    -0.646 OA
HETATM   13  O           1     -23.388  -6.417  -4.891  0.00  0.00    -0.646 OA
ENDBRANCH   1  11
BRANCH   1  14
HETATM   14  N           1     -20.894  -5.140  -5.412  0.00  0.00    -0.344 N 
HETATM   15  H           1     -21.101  -4.195  -5.114  0.00  0.00     0.163 HD
HETATM   16  C           1     -20.479  -5.377  -6.695  0.00  0.00     0.249 C 
HETATM   17  O           1     -20.233  -6.504  -7.053  0.00  0.00    -0.271 OA
BRANCH  16  18
HETATM   18  C           1     -20.330  -4.229  -7.664  0.00  0.00     0.278 C 
BRANCH  18  19
HETATM   19  N           1     -18.888  -4.085  -8.050  0.00  0.00    -0.066 N 
HETATM   20  H           1     -18.313  -4.769  -7.508  0.00  0.00     0.275 HD
HETATM   21  H           1     -18.566  -3.114  -7.838  0.00  0.00     0.275 HD
HETATM   22  H           1     -18.781  -4.271  -9.072  0.00  0.00     0.275 HD
ENDBRANCH  18  19
BRANCH  18  23
HETATM   23  C           1     -21.164  -4.503  -8.908  0.00  0.00     0.017 C 
HETATM   24  C           1     -22.491  -3.763  -8.804  0.00  0.00     0.012 C 
HETATM   25  C           1     -20.411  -4.022 -10.141  0.00  0.00     0.012 C 
ENDBRANCH  18  23
ENDBRANCH  16  18
ENDBRANCH   1  14
TORSDOF 8
ENDMDL
MODEL 9
REMARK VINA RESULT:      -6.2     17.910     19.908
REMARK  8 active torsions:
REMARK  status: ('A' for Active; 'I' for Inactive)
REMARK    1  A    between atoms: C_3  and  C_5 
REMARK    2  A    between atoms: C_3  and  C_4 
REMARK    3  A    between atoms: C_3  and  N_19 
REMARK    4  A    between atoms: C_5  and  C_10 
REMARK       I    between atoms: C_13  and  N_19 
REMARK    5  A    between atoms: C_13  and  C_18 
REMARK    6  A    between atoms: N_16  and  C_18 
REMARK    7  A    between atoms: C_18  and  C_25 
REMARK    8  A    between atoms: O_22  and  C_23 
ROOT
HETATM    1  C           1     -21.706  -7.868  -2.132  0.00  0.00     0.189 C 
ENDROOT
BRANCH   1   2
HETATM    2  C           1     -21.586  -8.009  -0.620  0.00  0.00     0.074 C 
BRANCH   2   3
HETATM    3  C           1     -21.898  -9.418  -0.224  0.00  0.00    -0.056 A 
HETATM    4  C           1     -20.906 -10.218   0.344  0.00  0.00     0.010 A 
HETATM    5  C           1     -21.196 -11.532   0.713  0.00  0.00     0.037 A 
HETATM    6  C           1     -22.477 -12.046   0.513  0.00  0.00     0.065 A 
HETATM    7  C           1     -23.469 -11.246  -0.055  0.00  0.00     0.037 A 
HETATM    8  C           1     -23.179  -9.932  -0.424  0.00  0.00     0.010 A 
BRANCH   6   9
HETATM    9  O           1     -22.759 -13.321   0.872  0.00  0.00    -0.361 OA
HETATM   10  H           1     -23.194 -13.756   0.119  0.00  0.00     0.217 HD
ENDBRANCH   6   9
ENDBRANCH   2   3
ENDBRANCH   1   2
BRANCH   1  11
HETATM   11  C           1     -21.951  -6.421  -2.485  0.00  0.00     0.197 C 
HETATM   12  O           1     -21.730  -6.015  -3.647  0.00  0.00    -0.646 OA
HETATM   13  O           1     -22.375  -5.629  -1.617  0.00  0.00    -0.646 OA
ENDBRANCH   1  11
BRANCH   1  14
HETATM   14  N           1     -20.477  -8.315  -2.757  0.00  0.00    -0.344 N 
HETATM   15  H           1     -19.608  -7.830  -2.572  0.00  0.00     0.163 HD
HETATM   16  C           1     -20.491  -9.395  -3.600  0.00  0.00     0.249 C 
HETATM   17  O           1     -21.527  -9.974  -3.823  0.00  0.00    -0.271 OA
BRANCH  16  18
HETATM   18  C           1     -19.211  -9.860  -4.250  0.00  0.00     0.278 C 
BRANCH  18  19
HETATM   19  N           1     -18.959  -9.055  -5.490  0.00  0.00    -0.066 N 
HETATM   20  H           1     -19.779  -8.433  -5.674  0.00  0.00     0.275 HD
HETATM   21  H           1     -18.822  -9.699  -6.302  0.00  0.00     0.275 HD
HETATM   22  H           1     -18.102  -8.473  -5.359  0.00  0.00     0.275 HD
ENDBRANCH  18  19
BRANCH  18  23
HETATM   23  C           1     -18.052  -9.675  -3.280  0.00  0.00     0.017 C 
HETATM   24  C           1     -18.093 -10.770  -2.223  0.00  0.00     0.012 C 
HETATM   25  C           1     -16.735  -9.754  -4.041  0.00  0.00     0.012 C 
ENDBRANCH  18  23
ENDBRANCH  16  18
ENDBRANCH   1  14
TORSDOF 8
ENDMDL
