MODEL 1
REMARK VINA RESULT:      -6.6      0.000      0.000
REMARK  10 active torsions:
REMARK  status: ('A' for Active; 'I' for Inactive)
REMARK    1  A    between atoms: C_1  and  C_18 
REMARK    2  A    between atoms: C_1  and  C_19 
REMARK    3  A    between atoms: C_1  and  N_23 
REMARK    4  A    between atoms: N_2  and  C_15 
REMARK       I    between atoms: N_2  and  C_18 
REMARK    5  A    between atoms: C_4  and  C_10 
REMARK    6  A    between atoms: C_6  and  C_15 
REMARK    7  A    between atoms: C_8  and  C_19 
REMARK    8  A    between atoms: C_8  and  C_22 
REMARK    9  A    between atoms: C_9  and  C_10 
REMARK   10  A    between atoms: C_9  and  C_15 
REMARK       I    between atoms: N_21  and  C_22 
ROOT
HETATM    1  N           1     -35.104  -0.894 -12.298  0.00  0.00    -0.345 N 
HETATM    2  O           1     -34.662  -2.845 -13.292  0.00  0.00    -0.271 OA
HETATM    3  C           1     -34.420  -2.076 -12.392  0.00  0.00     0.249 C 
HETATM    4  H           1     -34.902  -0.251 -11.544  0.00  0.00     0.163 HD
ENDROOT
BRANCH   3   5
HETATM    5  C           1     -33.364  -2.420 -11.370  0.00  0.00     0.275 C 
BRANCH   5   6
HETATM    6  C           1     -33.044  -3.907 -11.449  0.00  0.00     0.052 C 
BRANCH   6   7
HETATM    7  C           1     -33.989  -4.678 -10.535  0.00  0.00     0.105 C 
BRANCH   7   8
HETATM    8  C           1     -34.488  -5.909 -11.251  0.00  0.00     0.215 C 
HETATM    9  O           1     -34.590  -6.955 -10.656  0.00  0.00    -0.274 OA
HETATM   10  N           1     -34.826  -5.840 -12.576  0.00  0.00    -0.370 N 
HETATM   11  H           1     -34.740  -4.963 -13.075  0.00  0.00     0.159 HD
HETATM   12  H           1     -35.161  -6.666 -13.056  0.00  0.00     0.159 HD
ENDBRANCH   7   8
ENDBRANCH   6   7
ENDBRANCH   5   6
BRANCH   5  13
HETATM   13  N           1     -33.873  -2.091  -9.997  0.00  0.00    -0.066 N 
HETATM   14  H           1     -33.740  -2.915  -9.369  0.00  0.00     0.275 HD
HETATM   15  H           1     -34.889  -1.851 -10.051  0.00  0.00     0.275 HD
HETATM   16  H           1     -33.343  -1.274  -9.616  0.00  0.00     0.275 HD
ENDBRANCH   5  13
ENDBRANCH   3   5
BRANCH   1  17
HETATM   17  C           1     -36.119  -0.564 -13.281  0.00  0.00     0.186 C 
BRANCH  17  18
HETATM   18  C           1     -35.548   0.406 -14.286  0.00  0.00     0.196 C 
HETATM   19  O           1     -35.820   0.279 -15.500  0.00  0.00    -0.646 OA
HETATM   20  O           1     -34.805   1.335 -13.905  0.00  0.00    -0.646 OA
ENDBRANCH  17  18
BRANCH  17  21
HETATM   21  C           1     -37.313   0.072 -12.581  0.00  0.00     0.046 C 
BRANCH  21  22
HETATM   22  C           1     -37.556  -0.629 -11.251  0.00  0.00     0.116 C 
BRANCH  22  23
HETATM   23  C           1     -37.174   0.292 -10.119  0.00  0.00     0.172 C 
HETATM   24  O           1     -36.167   0.041  -9.422  0.00  0.00    -0.648 OA
HETATM   25  O           1     -37.864   1.307  -9.877  0.00  0.00    -0.648 OA
ENDBRANCH  22  23
ENDBRANCH  21  22
ENDBRANCH  17  21
ENDBRANCH   1  17
TORSDOF 10
ENDMDL
MODEL 2
REMARK VINA RESULT:      -6.5      1.799      3.620
REMARK  10 active torsions:
REMARK  status: ('A' for Active; 'I' for Inactive)
REMARK    1  A    between atoms: C_1  and  C_18 
REMARK    2  A    between atoms: C_1  and  C_19 
REMARK    3  A    between atoms: C_1  and  N_23 
REMARK    4  A    between atoms: N_2  and  C_15 
REMARK       I    between atoms: N_2  and  C_18 
REMARK    5  A    between atoms: C_4  and  C_10 
REMARK    6  A    between atoms: C_6  and  C_15 
REMARK    7  A    between atoms: C_8  and  C_19 
REMARK    8  A    between atoms: C_8  and  C_22 
REMARK    9  A    between atoms: C_9  and  C_10 
REMARK   10  A    between atoms: C_9  and  C_15 
REMARK       I    between atoms: N_21  and  C_22 
ROOT
HETATM    1  N           1     -35.039  -1.902 -12.438  0.00  0.00    -0.345 N 
HETATM    2  O           1     -33.748  -2.354 -10.672  0.00  0.00    -0.271 OA
HETATM    3  C           1     -34.310  -2.762 -11.660  0.00  0.00     0.249 C 
HETATM    4  H           1     -35.509  -2.244 -13.266  0.00  0.00     0.163 HD
ENDROOT
BRANCH   3   5
HETATM    5  C           1     -34.209  -4.219 -12.038  0.00  0.00     0.275 C 
BRANCH   5   6
HETATM    6  C           1     -34.415  -5.082 -10.800  0.00  0.00     0.052 C 
BRANCH   6   7
HETATM    7  C           1     -33.557  -6.336 -10.907  0.00  0.00     0.105 C 
BRANCH   7   8
HETATM    8  C           1     -34.250  -7.481 -10.209  0.00  0.00     0.215 C 
HETATM    9  O           1     -35.282  -7.288  -9.611  0.00  0.00    -0.274 OA
HETATM   10  N           1     -33.708  -8.737 -10.252  0.00  0.00    -0.370 N 
HETATM   11  H           1     -32.843  -8.898 -10.752  0.00  0.00     0.159 HD
HETATM   12  H           1     -34.173  -9.505  -9.783  0.00  0.00     0.159 HD
ENDBRANCH   7   8
ENDBRANCH   6   7
ENDBRANCH   5   6
BRANCH   5  13
HETATM   13  N           1     -32.851  -4.492 -12.616  0.00  0.00    -0.066 N 
HETATM   14  H           1     -32.231  -3.667 -12.452  0.00  0.00     0.275 HD
HETATM   15  H           1     -32.939  -4.666 -13.643  0.00  0.00     0.275 HD
HETATM   16  H           1     -32.439  -5.334 -12.155  0.00  0.00     0.275 HD
ENDBRANCH   5  13
ENDBRANCH   3   5
BRANCH   1  17
HETATM   17  C           1     -35.136  -0.501 -12.074  0.00  0.00     0.186 C 
BRANCH  17  18
HETATM   18  C           1     -36.389  -0.279 -11.263  0.00  0.00     0.196 C 
HETATM   19  O           1     -36.487   0.729 -10.529  0.00  0.00    -0.646 OA
HETATM   20  O           1     -37.328  -1.102 -11.325  0.00  0.00    -0.646 OA
ENDBRANCH  17  18
BRANCH  17  21
HETATM   21  C           1     -35.191   0.347 -13.338  0.00  0.00     0.046 C 
BRANCH  21  22
HETATM   22  C           1     -36.398  -0.063 -14.172  0.00  0.00     0.116 C 
BRANCH  22  23
HETATM   23  C           1     -35.931  -0.605 -15.501  0.00  0.00     0.172 C 
HETATM   24  O           1     -35.199  -1.618 -15.540  0.00  0.00    -0.648 OA
HETATM   25  O           1     -36.276  -0.042 -16.563  0.00  0.00    -0.648 OA
ENDBRANCH  22  23
ENDBRANCH  21  22
ENDBRANCH  17  21
ENDBRANCH   1  17
TORSDOF 10
ENDMDL
MODEL 3
REMARK VINA RESULT:      -6.3      9.644     12.124
REMARK  10 active torsions:
REMARK  status: ('A' for Active; 'I' for Inactive)
REMARK    1  A    between atoms: C_1  and  C_18 
REMARK    2  A    between atoms: C_1  and  C_19 
REMARK    3  A    between atoms: C_1  and  N_23 
REMARK    4  A    between atoms: N_2  and  C_15 
REMARK       I    between atoms: N_2  and  C_18 
REMARK    5  A    between atoms: C_4  and  C_10 
REMARK    6  A    between atoms: C_6  and  C_15 
REMARK    7  A    between atoms: C_8  and  C_19 
REMARK    8  A    between atoms: C_8  and  C_22 
REMARK    9  A    between atoms: C_9  and  C_10 
REMARK   10  A    between atoms: C_9  and  C_15 
REMARK       I    between atoms: N_21  and  C_22 
ROOT
HETATM    1  N           1     -27.651  -7.223 -19.110  0.00  0.00    -0.345 N 
HETATM    2  O           1     -28.465  -5.144 -19.192  0.00  0.00    -0.271 OA
HETATM    3  C           1     -28.599  -6.282 -18.808  0.00  0.00     0.249 C 
HETATM    4  H           1     -27.763  -8.175 -18.788  0.00  0.00     0.163 HD
ENDROOT
BRANCH   3   5
HETATM    5  C           1     -29.810  -6.665 -17.994  0.00  0.00     0.275 C 
BRANCH   5   6
HETATM    6  C           1     -30.003  -5.662 -16.865  0.00  0.00     0.052 C 
BRANCH   6   7
HETATM    7  C           1     -31.406  -5.073 -16.943  0.00  0.00     0.105 C 
BRANCH   7   8
HETATM    8  C           1     -31.332  -3.664 -17.477  0.00  0.00     0.215 C 
HETATM    9  O           1     -32.348  -3.051 -17.708  0.00  0.00    -0.274 OA
HETATM   10  N           1     -30.114  -3.081 -17.701  0.00  0.00    -0.370 N 
HETATM   11  H           1     -29.264  -3.594 -17.508  0.00  0.00     0.159 HD
HETATM   12  H           1     -30.065  -2.135 -18.059  0.00  0.00     0.159 HD
ENDBRANCH   7   8
ENDBRANCH   6   7
ENDBRANCH   5   6
BRANCH   5  13
HETATM   13  N           1     -29.610  -8.035 -17.416  0.00  0.00    -0.066 N 
HETATM   14  H           1     -30.300  -8.194 -16.648  0.00  0.00     0.275 HD
HETATM   15  H           1     -28.639  -8.113 -17.036  0.00  0.00     0.275 HD
HETATM   16  H           1     -29.749  -8.753 -18.162  0.00  0.00     0.275 HD
ENDBRANCH   5  13
ENDBRANCH   3   5
BRANCH   1  17
HETATM   17  C           1     -26.487  -6.853 -19.892  0.00  0.00     0.186 C 
BRANCH  17  18
HETATM   18  C           1     -26.251  -7.891 -20.963  0.00  0.00     0.196 C 
HETATM   19  O           1     -27.207  -8.571 -21.395  0.00  0.00    -0.646 OA
HETATM   20  O           1     -25.101  -8.069 -21.418  0.00  0.00    -0.646 OA
ENDBRANCH  17  18
BRANCH  17  21
HETATM   21  C           1     -25.269  -6.778 -18.981  0.00  0.00     0.046 C 
BRANCH  21  22
HETATM   22  C           1     -25.711  -6.413 -17.570  0.00  0.00     0.116 C 
BRANCH  22  23
HETATM   23  C           1     -24.939  -7.238 -16.570  0.00  0.00     0.172 C 
HETATM   24  O           1     -23.861  -7.776 -16.904  0.00  0.00    -0.648 OA
HETATM   25  O           1     -25.377  -7.383 -15.408  0.00  0.00    -0.648 OA
ENDBRANCH  22  23
ENDBRANCH  21  22
ENDBRANCH  17  21
ENDBRANCH   1  17
TORSDOF 10
ENDMDL
MODEL 4
REMARK VINA RESULT:      -6.2      9.628     11.604
REMARK  10 active torsions:
REMARK  status: ('A' for Active; 'I' for Inactive)
REMARK    1  A    between atoms: C_1  and  C_18 
REMARK    2  A    between atoms: C_1  and  C_19 
REMARK    3  A    between atoms: C_1  and  N_23 
REMARK    4  A    between atoms: N_2  and  C_15 
REMARK       I    between atoms: N_2  and  C_18 
REMARK    5  A    between atoms: C_4  and  C_10 
REMARK    6  A    between atoms: C_6  and  C_15 
REMARK    7  A    between atoms: C_8  and  C_19 
REMARK    8  A    between atoms: C_8  and  C_22 
REMARK    9  A    between atoms: C_9  and  C_10 
REMARK   10  A    between atoms: C_9  and  C_15 
REMARK       I    between atoms: N_21  and  C_22 
ROOT
HETATM    1  N           1     -27.585  -6.610 -17.028  0.00  0.00    -0.345 N 
HETATM    2  O           1     -26.371  -7.405 -15.330  0.00  0.00    -0.271 OA
HETATM    3  C           1     -26.390  -6.936 -16.443  0.00  0.00     0.249 C 
HETATM    4  H           1     -27.601  -6.216 -17.960  0.00  0.00     0.163 HD
ENDROOT
BRANCH   3   5
HETATM    5  C           1     -25.099  -6.708 -17.189  0.00  0.00     0.275 C 
BRANCH   5   6
HETATM    6  C           1     -25.364  -6.738 -18.688  0.00  0.00     0.052 C 
BRANCH   6   7
HETATM    7  C           1     -24.138  -7.282 -19.410  0.00  0.00     0.105 C 
BRANCH   7   8
HETATM    8  C           1     -24.566  -7.968 -20.684  0.00  0.00     0.215 C 
HETATM    9  O           1     -25.739  -8.032 -20.970  0.00  0.00    -0.274 OA
HETATM   10  N           1     -23.628  -8.517 -21.515  0.00  0.00    -0.370 N 
HETATM   11  H           1     -22.646  -8.463 -21.275  0.00  0.00     0.159 HD
HETATM   12  H           1     -23.916  -8.977 -22.369  0.00  0.00     0.159 HD
ENDBRANCH   7   8
ENDBRANCH   6   7
ENDBRANCH   5   6
BRANCH   5  13
HETATM   13  N           1     -24.120  -7.788 -16.833  0.00  0.00    -0.066 N 
HETATM   14  H           1     -24.005  -7.826 -15.795  0.00  0.00     0.275 HD
HETATM   15  H           1     -23.198  -7.582 -17.280  0.00  0.00     0.275 HD
HETATM   16  H           1     -24.475  -8.708 -17.178  0.00  0.00     0.275 HD
ENDBRANCH   5  13
ENDBRANCH   3   5
BRANCH   1  17
HETATM   17  C           1     -28.827  -6.828 -16.311  0.00  0.00     0.186 C 
BRANCH  17  18
HETATM   18  C           1     -29.854  -7.410 -17.251  0.00  0.00     0.196 C 
HETATM   19  O           1     -29.536  -8.336 -18.029  0.00  0.00    -0.646 OA
HETATM   20  O           1     -31.023  -6.967 -17.252  0.00  0.00    -0.646 OA
ENDBRANCH  17  18
BRANCH  17  21
HETATM   21  C           1     -29.334  -5.501 -15.763  0.00  0.00     0.046 C 
BRANCH  21  22
HETATM   22  C           1     -28.642  -4.354 -16.486  0.00  0.00     0.116 C 
BRANCH  22  23
HETATM   23  C           1     -29.535  -3.841 -17.588  0.00  0.00     0.172 C 
HETATM   24  O           1     -30.334  -2.906 -17.361  0.00  0.00    -0.648 OA
HETATM   25  O           1     -29.477  -4.350 -18.729  0.00  0.00    -0.648 OA
ENDBRANCH  22  23
ENDBRANCH  21  22
ENDBRANCH  17  21
ENDBRANCH   1  17
TORSDOF 10
ENDMDL
MODEL 5
REMARK VINA RESULT:      -6.1      9.417     12.128
REMARK  10 active torsions:
REMARK  status: ('A' for Active; 'I' for Inactive)
REMARK    1  A    between atoms: C_1  and  C_18 
REMARK    2  A    between atoms: C_1  and  C_19 
REMARK    3  A    between atoms: C_1  and  N_23 
REMARK    4  A    between atoms: N_2  and  C_15 
REMARK       I    between atoms: N_2  and  C_18 
REMARK    5  A    between atoms: C_4  and  C_10 
REMARK    6  A    between atoms: C_6  and  C_15 
REMARK    7  A    between atoms: C_8  and  C_19 
REMARK    8  A    between atoms: C_8  and  C_22 
REMARK    9  A    between atoms: C_9  and  C_10 
REMARK   10  A    between atoms: C_9  and  C_15 
REMARK       I    between atoms: N_21  and  C_22 
ROOT
HETATM    1  N           1     -26.907  -5.677 -17.434  0.00  0.00    -0.345 N 
HETATM    2  O           1     -28.481  -6.928 -16.461  0.00  0.00    -0.271 OA
HETATM    3  C           1     -28.139  -5.840 -16.859  0.00  0.00     0.249 C 
HETATM    4  H           1     -26.621  -4.766 -17.768  0.00  0.00     0.163 HD
ENDROOT
BRANCH   3   5
HETATM    5  C           1     -29.071  -4.661 -16.725  0.00  0.00     0.275 C 
BRANCH   5   6
HETATM    6  C           1     -30.197  -4.784 -17.744  0.00  0.00     0.052 C 
BRANCH   6   7
HETATM    7  C           1     -31.466  -5.252 -17.043  0.00  0.00     0.105 C 
BRANCH   7   8
HETATM    8  C           1     -32.461  -4.119 -16.994  0.00  0.00     0.215 C 
HETATM    9  O           1     -32.266  -3.115 -17.637  0.00  0.00    -0.274 OA
HETATM   10  N           1     -33.584  -4.227 -16.219  0.00  0.00    -0.370 N 
HETATM   11  H           1     -33.747  -5.068 -15.679  0.00  0.00     0.159 HD
HETATM   12  H           1     -34.251  -3.467 -16.186  0.00  0.00     0.159 HD
ENDBRANCH   7   8
ENDBRANCH   6   7
ENDBRANCH   5   6
BRANCH   5  13
HETATM   13  N           1     -28.310  -3.392 -16.973  0.00  0.00    -0.066 N 
HETATM   14  H           1     -27.418  -3.613 -17.470  0.00  0.00     0.275 HD
HETATM   15  H           1     -28.097  -2.931 -16.059  0.00  0.00     0.275 HD
HETATM   16  H           1     -28.886  -2.749 -17.560  0.00  0.00     0.275 HD
ENDBRANCH   5  13
ENDBRANCH   3   5
BRANCH   1  17
HETATM   17  C           1     -26.012  -6.811 -17.563  0.00  0.00     0.186 C 
BRANCH  17  18
HETATM   18  C           1     -25.088  -6.860 -16.371  0.00  0.00     0.196 C 
HETATM   19  O           1     -24.936  -5.845 -15.656  0.00  0.00    -0.646 OA
HETATM   20  O           1     -24.474  -7.914 -16.099  0.00  0.00    -0.646 OA
ENDBRANCH  17  18
BRANCH  17  21
HETATM   21  C           1     -25.190  -6.664 -18.837  0.00  0.00     0.046 C 
BRANCH  21  22
HETATM   22  C           1     -26.112  -6.739 -20.047  0.00  0.00     0.116 C 
BRANCH  22  23
HETATM   23  C           1     -25.651  -7.845 -20.964  0.00  0.00     0.172 C 
HETATM   24  O           1     -26.481  -8.651 -21.437  0.00  0.00    -0.648 OA
HETATM   25  O           1     -24.439  -7.955 -21.251  0.00  0.00    -0.648 OA
ENDBRANCH  22  23
ENDBRANCH  21  22
ENDBRANCH  17  21
ENDBRANCH   1  17
TORSDOF 10
ENDMDL
MODEL 6
REMARK VINA RESULT:      -6.0     13.671     16.420
REMARK  10 active torsions:
REMARK  status: ('A' for Active; 'I' for Inactive)
REMARK    1  A    between atoms: C_1  and  C_18 
REMARK    2  A    between atoms: C_1  and  C_19 
REMARK    3  A    between atoms: C_1  and  N_23 
REMARK    4  A    between atoms: N_2  and  C_15 
REMARK       I    between atoms: N_2  and  C_18 
REMARK    5  A    between atoms: C_4  and  C_10 
REMARK    6  A    between atoms: C_6  and  C_15 
REMARK    7  A    between atoms: C_8  and  C_19 
REMARK    8  A    between atoms: C_8  and  C_22 
REMARK    9  A    between atoms: C_9  and  C_10 
REMARK   10  A    between atoms: C_9  and  C_15 
REMARK       I    between atoms: N_21  and  C_22 
ROOT
HETATM    1  N           1     -21.517  -5.678  -5.624  0.00  0.00    -0.345 N 
HETATM    2  O           1     -19.596  -4.537  -5.652  0.00  0.00    -0.271 OA
HETATM    3  C           1     -20.689  -4.713  -6.135  0.00  0.00     0.249 C 
HETATM    4  H           1     -22.432  -5.825  -6.029  0.00  0.00     0.163 HD
ENDROOT
BRANCH   3   5
HETATM    5  C           1     -21.143  -3.871  -7.302  0.00  0.00     0.275 C 
BRANCH   5   6
HETATM    6  C           1     -22.536  -4.309  -7.734  0.00  0.00     0.052 C 
BRANCH   6   7
HETATM    7  C           1     -22.563  -4.495  -9.246  0.00  0.00     0.105 C 
BRANCH   7   8
HETATM    8  C           1     -23.662  -3.649  -9.838  0.00  0.00     0.215 C 
HETATM    9  O           1     -23.633  -3.352 -11.009  0.00  0.00    -0.274 OA
HETATM   10  N           1     -24.693  -3.216  -9.048  0.00  0.00    -0.370 N 
HETATM   11  H           1     -24.718  -3.464  -8.067  0.00  0.00     0.159 HD
HETATM   12  H           1     -25.431  -2.648  -9.446  0.00  0.00     0.159 HD
ENDBRANCH   7   8
ENDBRANCH   6   7
ENDBRANCH   5   6
BRANCH   5  13
HETATM   13  N           1     -20.187  -4.045  -8.445  0.00  0.00    -0.066 N 
HETATM   14  H           1     -20.426  -4.917  -8.969  0.00  0.00     0.275 HD
HETATM   15  H           1     -19.212  -4.114  -8.075  0.00  0.00     0.275 HD
HETATM   16  H           1     -20.258  -3.223  -9.087  0.00  0.00     0.275 HD
ENDBRANCH   5  13
ENDBRANCH   3   5
BRANCH   1  17
HETATM   17  C           1     -21.080  -6.487  -4.502  0.00  0.00     0.186 C 
BRANCH  17  18
HETATM   18  C           1     -20.577  -7.817  -5.008  0.00  0.00     0.196 C 
HETATM   19  O           1     -19.580  -8.352  -4.475  0.00  0.00    -0.646 OA
HETATM   20  O           1     -21.156  -8.383  -5.961  0.00  0.00    -0.646 OA
ENDBRANCH  17  18
BRANCH  17  21
HETATM   21  C           1     -22.252  -6.714  -3.556  0.00  0.00     0.046 C 
BRANCH  21  22
HETATM   22  C           1     -21.924  -6.124  -2.191  0.00  0.00     0.116 C 
BRANCH  22  23
HETATM   23  C           1     -22.035  -7.199  -1.138  0.00  0.00     0.172 C 
HETATM   24  O           1     -22.984  -7.182  -0.325  0.00  0.00    -0.648 OA
HETATM   25  O           1     -21.177  -8.108  -1.078  0.00  0.00    -0.648 OA
ENDBRANCH  22  23
ENDBRANCH  21  22
ENDBRANCH  17  21
ENDBRANCH   1  17
TORSDOF 10
ENDMDL
MODEL 7
REMARK VINA RESULT:      -6.0      2.362      5.736
REMARK  10 active torsions:
REMARK  status: ('A' for Active; 'I' for Inactive)
REMARK    1  A    between atoms: C_1  and  C_18 
REMARK    2  A    between atoms: C_1  and  C_19 
REMARK    3  A    between atoms: C_1  and  N_23 
REMARK    4  A    between atoms: N_2  and  C_15 
REMARK       I    between atoms: N_2  and  C_18 
REMARK    5  A    between atoms: C_4  and  C_10 
REMARK    6  A    between atoms: C_6  and  C_15 
REMARK    7  A    between atoms: C_8  and  C_19 
REMARK    8  A    between atoms: C_8  and  C_22 
REMARK    9  A    between atoms: C_9  and  C_10 
REMARK   10  A    between atoms: C_9  and  C_15 
REMARK       I    between atoms: N_21  and  C_22 
ROOT
HETATM    1  N           1     -34.950  -2.025 -13.128  0.00  0.00    -0.345 N 
HETATM    2  O           1     -34.181  -0.912 -11.351  0.00  0.00    -0.271 OA
HETATM    3  C           1     -34.814  -0.886 -12.380  0.00  0.00     0.249 C 
HETATM    4  H           1     -35.480  -2.003 -13.990  0.00  0.00     0.163 HD
ENDROOT
BRANCH   3   5
HETATM    5  C           1     -35.454   0.401 -12.839  0.00  0.00     0.275 C 
BRANCH   5   6
HETATM    6  C           1     -36.590   0.087 -13.805  0.00  0.00     0.052 C 
BRANCH   6   7
HETATM    7  C           1     -36.271   0.679 -15.172  0.00  0.00     0.105 C 
BRANCH   7   8
HETATM    8  C           1     -35.829  -0.420 -16.106  0.00  0.00     0.215 C 
HETATM    9  O           1     -34.796  -1.011 -15.898  0.00  0.00    -0.274 OA
HETATM   10  N           1     -36.599  -0.748 -17.189  0.00  0.00    -0.370 N 
HETATM   11  H           1     -37.465  -0.253 -17.364  0.00  0.00     0.159 HD
HETATM   12  H           1     -36.302  -1.486 -17.816  0.00  0.00     0.159 HD
ENDBRANCH   7   8
ENDBRANCH   6   7
ENDBRANCH   5   6
BRANCH   5  13
HETATM   13  N           1     -34.429   1.249 -13.532  0.00  0.00    -0.066 N 
HETATM   14  H           1     -34.678   2.257 -13.420  0.00  0.00     0.275 HD
HETATM   15  H           1     -34.406   1.005 -14.549  0.00  0.00     0.275 HD
HETATM   16  H           1     -33.489   1.073 -13.112  0.00  0.00     0.275 HD
ENDBRANCH   5  13
ENDBRANCH   3   5
BRANCH   1  17
HETATM   17  C           1     -34.335  -3.261 -12.686  0.00  0.00     0.186 C 
BRANCH  17  18
HETATM   18  C           1     -34.312  -4.247 -13.828  0.00  0.00     0.196 C 
HETATM   19  O           1     -35.014  -5.281 -13.776  0.00  0.00    -0.646 OA
HETATM   20  O           1     -33.591  -4.031 -14.826  0.00  0.00    -0.646 OA
ENDBRANCH  17  18
BRANCH  17  21
HETATM   21  C           1     -35.139  -3.841 -11.530  0.00  0.00     0.046 C 
BRANCH  21  22
HETATM   22  C           1     -34.190  -4.310 -10.436  0.00  0.00     0.116 C 
BRANCH  22  23
HETATM   23  C           1     -34.036  -5.809 -10.511  0.00  0.00     0.172 C 
HETATM   24  O           1     -33.067  -6.307 -11.124  0.00  0.00    -0.648 OA
HETATM   25  O           1     -34.877  -6.554  -9.961  0.00  0.00    -0.648 OA
ENDBRANCH  22  23
ENDBRANCH  21  22
ENDBRANCH  17  21
ENDBRANCH   1  17
TORSDOF 10
ENDMDL
MODEL 8
REMARK VINA RESULT:      -5.8      2.195      5.387
REMARK  10 active torsions:
REMARK  status: ('A' for Active; 'I' for Inactive)
REMARK    1  A    between atoms: C_1  and  C_18 
REMARK    2  A    between atoms: C_1  and  C_19 
REMARK    3  A    between atoms: C_1  and  N_23 
REMARK    4  A    between atoms: N_2  and  C_15 
REMARK       I    between atoms: N_2  and  C_18 
REMARK    5  A    between atoms: C_4  and  C_10 
REMARK    6  A    between atoms: C_6  and  C_15 
REMARK    7  A    between atoms: C_8  and  C_19 
REMARK    8  A    between atoms: C_8  and  C_22 
REMARK    9  A    between atoms: C_9  and  C_10 
REMARK   10  A    between atoms: C_9  and  C_15 
REMARK       I    between atoms: N_21  and  C_22 
ROOT
HETATM    1  N           1     -35.419  -0.401 -11.867  0.00  0.00    -0.345 N 
HETATM    2  O           1     -37.147  -0.757 -13.236  0.00  0.00    -0.271 OA
HETATM    3  C           1     -36.124  -0.155 -13.015  0.00  0.00     0.249 C 
HETATM    4  H           1     -34.561   0.103 -11.682  0.00  0.00     0.163 HD
ENDROOT
BRANCH   3   5
HETATM    5  C           1     -35.621   0.868 -14.004  0.00  0.00     0.275 C 
BRANCH   5   6
HETATM    6  C           1     -36.255   0.613 -15.366  0.00  0.00     0.052 C 
BRANCH   6   7
HETATM    7  C           1     -35.233  -0.043 -16.286  0.00  0.00     0.105 C 
BRANCH   7   8
HETATM    8  C           1     -35.658  -1.460 -16.581  0.00  0.00     0.215 C 
HETATM    9  O           1     -36.833  -1.739 -16.638  0.00  0.00    -0.274 OA
HETATM   10  N           1     -34.714  -2.430 -16.784  0.00  0.00    -0.370 N 
HETATM   11  H           1     -33.730  -2.196 -16.736  0.00  0.00     0.159 HD
HETATM   12  H           1     -34.999  -3.381 -16.982  0.00  0.00     0.159 HD
ENDBRANCH   7   8
ENDBRANCH   6   7
ENDBRANCH   5   6
BRANCH   5  13
HETATM   13  N           1     -34.130   0.760 -14.119  0.00  0.00    -0.066 N 
HETATM   14  H           1     -33.886  -0.029 -14.759  0.00  0.00     0.275 HD
HETATM   15  H           1     -33.720   0.584 -13.174  0.00  0.00     0.275 HD
HETATM   16  H           1     -33.744   1.652 -14.504  0.00  0.00     0.275 HD
ENDBRANCH   5  13
ENDBRANCH   3   5
BRANCH   1  17
HETATM   17  C           1     -35.902  -1.385 -10.917  0.00  0.00     0.186 C 
BRANCH  17  18
HETATM   18  C           1     -36.610  -0.683  -9.784  0.00  0.00     0.196 C 
HETATM   19  O           1     -37.851  -0.529  -9.823  0.00  0.00    -0.646 OA
HETATM   20  O           1     -35.957  -0.256  -8.808  0.00  0.00    -0.646 OA
ENDBRANCH  17  18
BRANCH  17  21
HETATM   21  C           1     -34.724  -2.177 -10.366  0.00  0.00     0.046 C 
BRANCH  21  22
HETATM   22  C           1     -33.748  -2.487 -11.494  0.00  0.00     0.116 C 
BRANCH  22  23
HETATM   23  C           1     -34.404  -3.412 -12.489  0.00  0.00     0.172 C 
HETATM   24  O           1     -34.528  -3.060 -13.682  0.00  0.00    -0.648 OA
HETATM   25  O           1     -34.823  -4.531 -12.121  0.00  0.00    -0.648 OA
ENDBRANCH  22  23
ENDBRANCH  21  22
ENDBRANCH  17  21
ENDBRANCH   1  17
TORSDOF 10
ENDMDL
MODEL 9
REMARK VINA RESULT:      -5.7     10.858     12.603
REMARK  10 active torsions:
REMARK  status: ('A' for Active; 'I' for Inactive)
REMARK    1  A    between atoms: C_1  and  C_18 
REMARK    2  A    between atoms: C_1  and  C_19 
REMARK    3  A    between atoms: C_1  and  N_23 
REMARK    4  A    between atoms: N_2  and  C_15 
REMARK       I    between atoms: N_2  and  C_18 
REMARK    5  A    between atoms: C_4  and  C_10 
REMARK    6  A    between atoms: C_6  and  C_15 
REMARK    7  A    between atoms: C_8  and  C_19 
REMARK    8  A    between atoms: C_8  and  C_22 
REMARK    9  A    between atoms: C_9  and  C_10 
REMARK   10  A    between atoms: C_9  and  C_15 
REMARK       I    between atoms: N_21  and  C_22 
ROOT
HETATM    1  N           1     -26.860  -6.612 -18.370  0.00  0.00    -0.345 N 
HETATM    2  O           1     -27.028  -5.623 -20.366  0.00  0.00    -0.271 OA
HETATM    3  C           1     -26.603  -6.546 -19.714  0.00  0.00     0.249 C 
HETATM    4  H           1     -26.504  -7.386 -17.824  0.00  0.00     0.163 HD
ENDROOT
BRANCH   3   5
HETATM    5  C           1     -25.789  -7.629 -20.380  0.00  0.00     0.275 C 
BRANCH   5   6
HETATM    6  C           1     -24.707  -6.994 -21.243  0.00  0.00     0.052 C 
BRANCH   6   7
HETATM    7  C           1     -24.259  -7.987 -22.307  0.00  0.00     0.105 C 
BRANCH   7   8
HETATM    8  C           1     -22.858  -8.457 -21.999  0.00  0.00     0.215 C 
HETATM    9  O           1     -22.124  -8.797 -22.897  0.00  0.00    -0.274 OA
HETATM   10  N           1     -22.420  -8.498 -20.704  0.00  0.00    -0.370 N 
HETATM   11  H           1     -23.035  -8.214 -19.952  0.00  0.00     0.159 HD
HETATM   12  H           1     -21.480  -8.813 -20.498  0.00  0.00     0.159 HD
ENDBRANCH   7   8
ENDBRANCH   6   7
ENDBRANCH   5   6
BRANCH   5  13
HETATM   13  N           1     -26.686  -8.468 -21.241  0.00  0.00    -0.066 N 
HETATM   14  H           1     -27.555  -7.933 -21.465  0.00  0.00     0.275 HD
HETATM   15  H           1     -26.936  -9.346 -20.730  0.00  0.00     0.275 HD
HETATM   16  H           1     -26.189  -8.713 -22.127  0.00  0.00     0.275 HD
ENDBRANCH   5  13
ENDBRANCH   3   5
BRANCH   1  17
HETATM   17  C           1     -27.643  -5.572 -17.731  0.00  0.00     0.186 C 
BRANCH  17  18
HETATM   18  C           1     -27.488  -5.677 -16.233  0.00  0.00     0.196 C 
HETATM   19  O           1     -26.959  -6.691 -15.728  0.00  0.00    -0.646 OA
HETATM   20  O           1     -27.890  -4.749 -15.497  0.00  0.00    -0.646 OA
ENDBRANCH  17  18
BRANCH  17  21
HETATM   21  C           1     -29.109  -5.741 -18.103  0.00  0.00     0.046 C 
BRANCH  21  22
HETATM   22  C           1     -29.723  -4.375 -18.381  0.00  0.00     0.116 C 
BRANCH  22  23
HETATM   23  C           1     -30.848  -4.120 -17.408  0.00  0.00     0.172 C 
HETATM   24  O           1     -31.566  -3.105 -17.535  0.00  0.00    -0.648 OA
HETATM   25  O           1     -31.062  -4.924 -16.474  0.00  0.00    -0.648 OA
ENDBRANCH  22  23
ENDBRANCH  21  22
ENDBRANCH  17  21
ENDBRANCH   1  17
TORSDOF 10
ENDMDL
