MODEL 1
REMARK VINA RESULT:      -6.3      0.000      0.000
REMARK  9 active torsions:
REMARK  status: ('A' for Active; 'I' for Inactive)
REMARK       I    between atoms: N_2  and  C_3 
REMARK    1  A    between atoms: C_3  and  C_18 
REMARK    2  A    between atoms: N_5  and  C_11 
REMARK       I    between atoms: N_5  and  C_8 
REMARK    3  A    between atoms: C_7  and  C_8 
REMARK    4  A    between atoms: C_7  and  C_17 
REMARK    5  A    between atoms: C_7  and  N_16 
REMARK    6  A    between atoms: O_9  and  C_12 
REMARK    7  A    between atoms: C_10  and  C_11 
REMARK    8  A    between atoms: C_11  and  C_12 
REMARK    9  A    between atoms: C_17  and  C_18 
ROOT
HETATM    1  C           1     -29.242  -6.303 -17.446  0.00  0.00     0.275 C 
ENDROOT
BRANCH   1   2
HETATM    2  C           1     -27.799  -5.916 -17.237  0.00  0.00     0.249 C 
HETATM    3  N           1     -26.802  -6.813 -17.516  0.00  0.00    -0.343 N 
HETATM    4  H           1     -27.033  -7.735 -17.862  0.00  0.00     0.163 HD
HETATM    5  O           1     -27.522  -4.814 -16.825  0.00  0.00    -0.271 OA
BRANCH   3   6
HETATM    6  C           1     -25.415  -6.440 -17.315  0.00  0.00     0.209 C 
BRANCH   6   7
HETATM    7  C           1     -24.612  -6.815 -18.536  0.00  0.00     0.198 C 
HETATM    8  O           1     -23.363  -6.821 -18.485  0.00  0.00    -0.646 OA
HETATM    9  O           1     -25.196  -7.119 -19.598  0.00  0.00    -0.646 OA
ENDBRANCH   6   7
BRANCH   6  10
HETATM   10  C           1     -24.865  -7.175 -16.099  0.00  0.00     0.200 C 
BRANCH  10  11
HETATM   11  O           1     -24.311  -8.398 -16.503  0.00  0.00    -0.398 OA
HETATM   12  H           1     -23.387  -8.351 -16.329  0.00  0.00     0.209 HD
ENDBRANCH  10  11
ENDBRANCH   6  10
ENDBRANCH   3   6
ENDBRANCH   1   2
BRANCH   1  13
HETATM   13  C           1     -30.117  -5.564 -16.442  0.00  0.00     0.052 C 
BRANCH  13  14
HETATM   14  C           1     -31.403  -5.114 -17.124  0.00  0.00     0.105 C 
BRANCH  14  15
HETATM   15  C           1     -31.285  -3.660 -17.509  0.00  0.00     0.215 C 
HETATM   16  O           1     -32.281  -2.994 -17.669  0.00  0.00    -0.274 OA
HETATM   17  N           1     -30.050  -3.095 -17.679  0.00  0.00    -0.370 N 
HETATM   18  H           1     -29.971  -2.120 -17.938  0.00  0.00     0.159 HD
HETATM   19  H           1     -29.216  -3.653 -17.546  0.00  0.00     0.159 HD
ENDBRANCH  14  15
ENDBRANCH  13  14
ENDBRANCH   1  13
BRANCH   1  20
HETATM   20  N           1     -29.395  -7.782 -17.249  0.00  0.00    -0.066 N 
HETATM   21  H           1     -30.397  -8.005 -17.053  0.00  0.00     0.275 HD
HETATM   22  H           1     -29.090  -8.283 -18.115  0.00  0.00     0.275 HD
HETATM   23  H           1     -28.806  -8.089 -16.442  0.00  0.00     0.275 HD
ENDBRANCH   1  20
TORSDOF 9
ENDMDL
MODEL 2
REMARK VINA RESULT:      -6.3      2.472      3.896
REMARK  9 active torsions:
REMARK  status: ('A' for Active; 'I' for Inactive)
REMARK       I    between atoms: N_2  and  C_3 
REMARK    1  A    between atoms: C_3  and  C_18 
REMARK    2  A    between atoms: N_5  and  C_11 
REMARK       I    between atoms: N_5  and  C_8 
REMARK    3  A    between atoms: C_7  and  C_8 
REMARK    4  A    between atoms: C_7  and  C_17 
REMARK    5  A    between atoms: C_7  and  N_16 
REMARK    6  A    between atoms: O_9  and  C_12 
REMARK    7  A    between atoms: C_10  and  C_11 
REMARK    8  A    between atoms: C_11  and  C_12 
REMARK    9  A    between atoms: C_17  and  C_18 
ROOT
HETATM    1  C           1     -29.228  -6.734 -17.375  0.00  0.00     0.275 C 
ENDROOT
BRANCH   1   2
HETATM    2  C           1     -28.399  -6.357 -18.578  0.00  0.00     0.249 C 
HETATM    3  N           1     -27.585  -7.287 -19.168  0.00  0.00    -0.343 N 
HETATM    4  H           1     -27.539  -8.227 -18.797  0.00  0.00     0.163 HD
HETATM    5  O           1     -28.454  -5.235 -19.022  0.00  0.00    -0.271 OA
BRANCH   3   6
HETATM    6  C           1     -26.789  -6.924 -20.325  0.00  0.00     0.209 C 
BRANCH   6   7
HETATM    7  C           1     -26.627  -8.127 -21.220  0.00  0.00     0.198 C 
HETATM    8  O           1     -25.504  -8.408 -21.692  0.00  0.00    -0.646 OA
HETATM    9  O           1     -27.615  -8.842 -21.491  0.00  0.00    -0.646 OA
ENDBRANCH   6   7
BRANCH   6  10
HETATM   10  C           1     -25.419  -6.444 -19.865  0.00  0.00     0.200 C 
BRANCH  10  11
HETATM   11  O           1     -24.852  -7.398 -19.008  0.00  0.00    -0.398 OA
HETATM   12  H           1     -25.326  -8.201 -19.140  0.00  0.00     0.209 HD
ENDBRANCH  10  11
ENDBRANCH   6  10
ENDBRANCH   3   6
ENDBRANCH   1   2
BRANCH   1  13
HETATM   13  C           1     -28.572  -6.187 -16.114  0.00  0.00     0.052 C 
BRANCH  13  14
HETATM   14  C           1     -27.460  -7.130 -15.670  0.00  0.00     0.105 C 
BRANCH  14  15
HETATM   15  C           1     -26.120  -6.500 -15.964  0.00  0.00     0.215 C 
HETATM   16  O           1     -26.060  -5.352 -16.334  0.00  0.00    -0.274 OA
HETATM   17  N           1     -24.973  -7.232 -15.812  0.00  0.00    -0.370 N 
HETATM   18  H           1     -24.075  -6.810 -16.010  0.00  0.00     0.159 HD
HETATM   19  H           1     -25.023  -8.194 -15.503  0.00  0.00     0.159 HD
ENDBRANCH  14  15
ENDBRANCH  13  14
ENDBRANCH   1  13
BRANCH   1  20
HETATM   20  N           1     -29.322  -8.228 -17.282  0.00  0.00    -0.066 N 
HETATM   21  H           1     -30.297  -8.500 -17.025  0.00  0.00     0.275 HD
HETATM   22  H           1     -29.074  -8.651 -18.205  0.00  0.00     0.275 HD
HETATM   23  H           1     -28.659  -8.574 -16.551  0.00  0.00     0.275 HD
ENDBRANCH   1  20
TORSDOF 9
ENDMDL
MODEL 3
REMARK VINA RESULT:      -6.1     10.385     12.586
REMARK  9 active torsions:
REMARK  status: ('A' for Active; 'I' for Inactive)
REMARK       I    between atoms: N_2  and  C_3 
REMARK    1  A    between atoms: C_3  and  C_18 
REMARK    2  A    between atoms: N_5  and  C_11 
REMARK       I    between atoms: N_5  and  C_8 
REMARK    3  A    between atoms: C_7  and  C_8 
REMARK    4  A    between atoms: C_7  and  C_17 
REMARK    5  A    between atoms: C_7  and  N_16 
REMARK    6  A    between atoms: O_9  and  C_12 
REMARK    7  A    between atoms: C_10  and  C_11 
REMARK    8  A    between atoms: C_11  and  C_12 
REMARK    9  A    between atoms: C_17  and  C_18 
ROOT
HETATM    1  C           1     -21.136  -5.870  -6.962  0.00  0.00     0.275 C 
ENDROOT
BRANCH   1   2
HETATM    2  C           1     -21.598  -4.699  -7.794  0.00  0.00     0.249 C 
HETATM    3  N           1     -21.896  -4.875  -9.119  0.00  0.00    -0.343 N 
HETATM    4  H           1     -21.808  -5.791  -9.540  0.00  0.00     0.163 HD
HETATM    5  O           1     -21.704  -3.605  -7.292  0.00  0.00    -0.271 OA
BRANCH   3   6
HETATM    6  C           1     -22.339  -3.750  -9.918  0.00  0.00     0.209 C 
BRANCH   6   7
HETATM    7  C           1     -23.789  -3.938 -10.292  0.00  0.00     0.198 C 
HETATM    8  O           1     -24.477  -2.955 -10.643  0.00  0.00    -0.646 OA
HETATM    9  O           1     -24.301  -5.077 -10.249  0.00  0.00    -0.646 OA
ENDBRANCH   6   7
BRANCH   6  10
HETATM   10  C           1     -21.495  -3.664 -11.183  0.00  0.00     0.200 C 
BRANCH  10  11
HETATM   11  O           1     -22.205  -4.220 -12.257  0.00  0.00    -0.398 OA
HETATM   12  H           1     -23.088  -3.898 -12.198  0.00  0.00     0.209 HD
ENDBRANCH  10  11
ENDBRANCH   6  10
ENDBRANCH   3   6
ENDBRANCH   1   2
BRANCH   1  13
HETATM   13  C           1     -21.170  -5.490  -5.487  0.00  0.00     0.052 C 
BRANCH  13  14
HETATM   14  C           1     -22.183  -6.366  -4.760  0.00  0.00     0.105 C 
BRANCH  14  15
HETATM   15  C           1     -21.747  -6.556  -3.328  0.00  0.00     0.215 C 
HETATM   16  O           1     -20.815  -7.281  -3.071  0.00  0.00    -0.274 OA
HETATM   17  N           1     -22.409  -5.908  -2.320  0.00  0.00    -0.370 N 
HETATM   18  H           1     -22.118  -6.036  -1.360  0.00  0.00     0.159 HD
HETATM   19  H           1     -23.190  -5.302  -2.536  0.00  0.00     0.159 HD
ENDBRANCH  14  15
ENDBRANCH  13  14
ENDBRANCH   1  13
BRANCH   1  20
HETATM   20  N           1     -19.735  -6.238  -7.351  0.00  0.00    -0.066 N 
HETATM   21  H           1     -19.580  -7.255  -7.172  0.00  0.00     0.275 HD
HETATM   22  H           1     -19.592  -6.037  -8.367  0.00  0.00     0.275 HD
HETATM   23  H           1     -19.058  -5.677  -6.786  0.00  0.00     0.275 HD
ENDBRANCH   1  20
TORSDOF 9
ENDMDL
MODEL 4
REMARK VINA RESULT:      -5.6      9.917     12.348
REMARK  9 active torsions:
REMARK  status: ('A' for Active; 'I' for Inactive)
REMARK       I    between atoms: N_2  and  C_3 
REMARK    1  A    between atoms: C_3  and  C_18 
REMARK    2  A    between atoms: N_5  and  C_11 
REMARK       I    between atoms: N_5  and  C_8 
REMARK    3  A    between atoms: C_7  and  C_8 
REMARK    4  A    between atoms: C_7  and  C_17 
REMARK    5  A    between atoms: C_7  and  N_16 
REMARK    6  A    between atoms: O_9  and  C_12 
REMARK    7  A    between atoms: C_10  and  C_11 
REMARK    8  A    between atoms: C_11  and  C_12 
REMARK    9  A    between atoms: C_17  and  C_18 
ROOT
HETATM    1  C           1     -21.582  -5.198  -6.331  0.00  0.00     0.275 C 
ENDROOT
BRANCH   1   2
HETATM    2  C           1     -21.811  -4.280  -7.507  0.00  0.00     0.249 C 
HETATM    3  N           1     -22.370  -4.766  -8.658  0.00  0.00    -0.343 N 
HETATM    4  H           1     -22.630  -5.742  -8.721  0.00  0.00     0.163 HD
HETATM    5  O           1     -21.501  -3.114  -7.431  0.00  0.00    -0.271 OA
BRANCH   3   6
HETATM    6  C           1     -22.589  -3.883  -9.787  0.00  0.00     0.209 C 
BRANCH   6   7
HETATM    7  C           1     -24.051  -3.899 -10.160  0.00  0.00     0.198 C 
HETATM    8  O           1     -24.741  -4.919  -9.941  0.00  0.00    -0.646 OA
HETATM    9  O           1     -24.572  -2.894 -10.688  0.00  0.00    -0.646 OA
ENDBRANCH   6   7
BRANCH   6  10
HETATM   10  C           1     -21.757  -4.359 -10.970  0.00  0.00     0.200 C 
BRANCH  10  11
HETATM   11  O           1     -22.594  -4.572 -12.075  0.00  0.00    -0.398 OA
HETATM   12  H           1     -23.476  -4.411 -11.786  0.00  0.00     0.209 HD
ENDBRANCH  10  11
ENDBRANCH   6  10
ENDBRANCH   3   6
ENDBRANCH   1   2
BRANCH   1  13
HETATM   13  C           1     -20.859  -6.454  -6.800  0.00  0.00     0.052 C 
BRANCH  13  14
HETATM   14  C           1     -20.181  -7.123  -5.611  0.00  0.00     0.105 C 
BRANCH  14  15
HETATM   15  C           1     -20.974  -8.339  -5.199  0.00  0.00     0.215 C 
HETATM   16  O           1     -21.897  -8.225  -4.427  0.00  0.00    -0.274 OA
HETATM   17  N           1     -20.647  -9.571  -5.699  0.00  0.00    -0.370 N 
HETATM   18  H           1     -21.178 -10.386  -5.421  0.00  0.00     0.159 HD
HETATM   19  H           1     -19.874  -9.666  -6.345  0.00  0.00     0.159 HD
ENDBRANCH  14  15
ENDBRANCH  13  14
ENDBRANCH   1  13
BRANCH   1  20
HETATM   20  N           1     -22.903  -5.577  -5.730  0.00  0.00    -0.066 N 
HETATM   21  H           1     -23.023  -5.085  -4.816  0.00  0.00     0.275 HD
HETATM   22  H           1     -23.674  -5.299  -6.378  0.00  0.00     0.275 HD
HETATM   23  H           1     -22.931  -6.610  -5.576  0.00  0.00     0.275 HD
ENDBRANCH   1  20
TORSDOF 9
ENDMDL
MODEL 5
REMARK VINA RESULT:      -5.6     10.202     12.046
REMARK  9 active torsions:
REMARK  status: ('A' for Active; 'I' for Inactive)
REMARK       I    between atoms: N_2  and  C_3 
REMARK    1  A    between atoms: C_3  and  C_18 
REMARK    2  A    between atoms: N_5  and  C_11 
REMARK       I    between atoms: N_5  and  C_8 
REMARK    3  A    between atoms: C_7  and  C_8 
REMARK    4  A    between atoms: C_7  and  C_17 
REMARK    5  A    between atoms: C_7  and  N_16 
REMARK    6  A    between atoms: O_9  and  C_12 
REMARK    7  A    between atoms: C_10  and  C_11 
REMARK    8  A    between atoms: C_11  and  C_12 
REMARK    9  A    between atoms: C_17  and  C_18 
ROOT
HETATM    1  C           1     -20.957  -4.172  -8.821  0.00  0.00     0.275 C 
ENDROOT
BRANCH   1   2
HETATM    2  C           1     -20.301  -4.813  -7.623  0.00  0.00     0.249 C 
HETATM    3  N           1     -21.045  -5.566  -6.755  0.00  0.00    -0.343 N 
HETATM    4  H           1     -22.036  -5.693  -6.917  0.00  0.00     0.163 HD
HETATM    5  O           1     -19.118  -4.661  -7.430  0.00  0.00    -0.271 OA
BRANCH   3   6
HETATM    6  C           1     -20.413  -6.181  -5.604  0.00  0.00     0.209 C 
BRANCH   6   7
HETATM    7  C           1     -20.325  -7.672  -5.817  0.00  0.00     0.198 C 
HETATM    8  O           1     -19.220  -8.251  -5.732  0.00  0.00    -0.646 OA
HETATM    9  O           1     -21.356  -8.328  -6.079  0.00  0.00    -0.646 OA
ENDBRANCH   6   7
BRANCH   6  10
HETATM   10  C           1     -21.241  -5.893  -4.359  0.00  0.00     0.200 C 
BRANCH  10  11
HETATM   11  O           1     -22.592  -6.160  -4.623  0.00  0.00    -0.398 OA
HETATM   12  H           1     -22.730  -7.075  -4.448  0.00  0.00     0.209 HD
ENDBRANCH  10  11
ENDBRANCH   6  10
ENDBRANCH   3   6
ENDBRANCH   1   2
BRANCH   1  13
HETATM   13  C           1     -22.404  -4.638  -8.919  0.00  0.00     0.052 C 
BRANCH  13  14
HETATM   14  C           1     -22.968  -4.260 -10.283  0.00  0.00     0.105 C 
BRANCH  14  15
HETATM   15  C           1     -24.291  -3.555 -10.102  0.00  0.00     0.215 C 
HETATM   16  O           1     -24.956  -3.263 -11.067  0.00  0.00    -0.274 OA
HETATM   17  N           1     -24.734  -3.246  -8.844  0.00  0.00    -0.370 N 
HETATM   18  H           1     -25.621  -2.773  -8.724  0.00  0.00     0.159 HD
HETATM   19  H           1     -24.177  -3.491  -8.036  0.00  0.00     0.159 HD
ENDBRANCH  14  15
ENDBRANCH  13  14
ENDBRANCH   1  13
BRANCH   1  20
HETATM   20  N           1     -20.219  -4.569 -10.066  0.00  0.00    -0.066 N 
HETATM   21  H           1     -20.851  -5.128 -10.682  0.00  0.00     0.275 HD
HETATM   22  H           1     -19.907  -3.711 -10.575  0.00  0.00     0.275 HD
HETATM   23  H           1     -19.386  -5.145  -9.807  0.00  0.00     0.275 HD
ENDBRANCH   1  20
TORSDOF 9
ENDMDL
MODEL 6
REMARK VINA RESULT:      -5.5     10.026     12.196
REMARK  9 active torsions:
REMARK  status: ('A' for Active; 'I' for Inactive)
REMARK       I    between atoms: N_2  and  C_3 
REMARK    1  A    between atoms: C_3  and  C_18 
REMARK    2  A    between atoms: N_5  and  C_11 
REMARK       I    between atoms: N_5  and  C_8 
REMARK    3  A    between atoms: C_7  and  C_8 
REMARK    4  A    between atoms: C_7  and  C_17 
REMARK    5  A    between atoms: C_7  and  N_16 
REMARK    6  A    between atoms: O_9  and  C_12 
REMARK    7  A    between atoms: C_10  and  C_11 
REMARK    8  A    between atoms: C_11  and  C_12 
REMARK    9  A    between atoms: C_17  and  C_18 
ROOT
HETATM    1  C           1     -22.028  -4.464  -6.833  0.00  0.00     0.275 C 
ENDROOT
BRANCH   1   2
HETATM    2  C           1     -21.701  -4.755  -8.277  0.00  0.00     0.249 C 
HETATM    3  N           1     -22.563  -4.365  -9.267  0.00  0.00    -0.343 N 
HETATM    4  H           1     -23.420  -3.882  -9.030  0.00  0.00     0.163 HD
HETATM    5  O           1     -20.677  -5.331  -8.560  0.00  0.00    -0.271 OA
BRANCH   3   6
HETATM    6  C           1     -22.248  -4.645 -10.654  0.00  0.00     0.209 C 
BRANCH   6   7
HETATM    7  C           1     -21.423  -3.515 -11.219  0.00  0.00     0.198 C 
HETATM    8  O           1     -21.981  -2.464 -11.603  0.00  0.00    -0.646 OA
HETATM    9  O           1     -20.181  -3.630 -11.304  0.00  0.00    -0.646 OA
ENDBRANCH   6   7
BRANCH   6  10
HETATM   10  C           1     -23.540  -4.778 -11.450  0.00  0.00     0.200 C 
BRANCH  10  11
HETATM   11  O           1     -24.481  -3.855 -10.972  0.00  0.00    -0.398 OA
HETATM   12  H           1     -24.583  -4.020 -10.051  0.00  0.00     0.209 HD
ENDBRANCH  10  11
ENDBRANCH   6  10
ENDBRANCH   3   6
ENDBRANCH   1   2
BRANCH   1  13
HETATM   13  C           1     -21.274  -5.436  -5.935  0.00  0.00     0.052 C 
BRANCH  13  14
HETATM   14  C           1     -22.269  -6.332  -5.208  0.00  0.00     0.105 C 
BRANCH  14  15
HETATM   15  C           1     -21.737  -6.664  -3.835  0.00  0.00     0.215 C 
HETATM   16  O           1     -20.874  -7.500  -3.708  0.00  0.00    -0.274 OA
HETATM   17  N           1     -22.235  -6.020  -2.735  0.00  0.00    -0.370 N 
HETATM   18  H           1     -21.879  -6.244  -1.814  0.00  0.00     0.159 HD
HETATM   19  H           1     -22.959  -5.321  -2.842  0.00  0.00     0.159 HD
ENDBRANCH  14  15
ENDBRANCH  13  14
ENDBRANCH   1  13
BRANCH   1  20
HETATM   20  N           1     -23.504  -4.623  -6.614  0.00  0.00    -0.066 N 
HETATM   21  H           1     -24.006  -3.797  -7.011  0.00  0.00     0.275 HD
HETATM   22  H           1     -23.835  -5.493  -7.090  0.00  0.00     0.275 HD
HETATM   23  H           1     -23.698  -4.689  -5.589  0.00  0.00     0.275 HD
ENDBRANCH   1  20
TORSDOF 9
ENDMDL
MODEL 7
REMARK VINA RESULT:      -5.5     11.899     13.857
REMARK  9 active torsions:
REMARK  status: ('A' for Active; 'I' for Inactive)
REMARK       I    between atoms: N_2  and  C_3 
REMARK    1  A    between atoms: C_3  and  C_18 
REMARK    2  A    between atoms: N_5  and  C_11 
REMARK       I    between atoms: N_5  and  C_8 
REMARK    3  A    between atoms: C_7  and  C_8 
REMARK    4  A    between atoms: C_7  and  C_17 
REMARK    5  A    between atoms: C_7  and  N_16 
REMARK    6  A    between atoms: O_9  and  C_12 
REMARK    7  A    between atoms: C_10  and  C_11 
REMARK    8  A    between atoms: C_11  and  C_12 
REMARK    9  A    between atoms: C_17  and  C_18 
ROOT
HETATM    1  C           1     -20.476  -4.983  -6.578  0.00  0.00     0.275 C 
ENDROOT
BRANCH   1   2
HETATM    2  C           1     -21.360  -5.793  -5.661  0.00  0.00     0.249 C 
HETATM    3  N           1     -20.807  -6.715  -4.813  0.00  0.00    -0.343 N 
HETATM    4  H           1     -19.804  -6.853  -4.801  0.00  0.00     0.163 HD
HETATM    5  O           1     -22.557  -5.627  -5.676  0.00  0.00    -0.271 OA
BRANCH   3   6
HETATM    6  C           1     -21.658  -7.492  -3.934  0.00  0.00     0.209 C 
BRANCH   6   7
HETATM    7  C           1     -21.614  -6.905  -2.544  0.00  0.00     0.198 C 
HETATM    8  O           1     -20.845  -7.388  -1.686  0.00  0.00    -0.646 OA
HETATM    9  O           1     -22.346  -5.935  -2.253  0.00  0.00    -0.646 OA
ENDBRANCH   6   7
BRANCH   6  10
HETATM   10  C           1     -21.162  -8.932  -3.893  0.00  0.00     0.200 C 
BRANCH  10  11
HETATM   11  O           1     -21.966  -9.679  -3.021  0.00  0.00    -0.398 OA
HETATM   12  H           1     -21.682 -10.575  -3.085  0.00  0.00     0.209 HD
ENDBRANCH  10  11
ENDBRANCH   6  10
ENDBRANCH   3   6
ENDBRANCH   1   2
BRANCH   1  13
HETATM   13  C           1     -21.281  -3.843  -7.186  0.00  0.00     0.052 C 
BRANCH  13  14
HETATM   14  C           1     -21.455  -4.084  -8.680  0.00  0.00     0.105 C 
BRANCH  14  15
HETATM   15  C           1     -22.915  -4.309  -8.987  0.00  0.00     0.215 C 
HETATM   16  O           1     -23.250  -4.706 -10.078  0.00  0.00    -0.274 OA
HETATM   17  N           1     -23.861  -4.060  -8.029  0.00  0.00    -0.370 N 
HETATM   18  H           1     -24.841  -4.210  -8.235  0.00  0.00     0.159 HD
HETATM   19  H           1     -23.581  -3.727  -7.115  0.00  0.00     0.159 HD
ENDBRANCH  14  15
ENDBRANCH  13  14
ENDBRANCH   1  13
BRANCH   1  20
HETATM   20  N           1     -19.951  -5.865  -7.672  0.00  0.00    -0.066 N 
HETATM   21  H           1     -19.007  -6.226  -7.407  0.00  0.00     0.275 HD
HETATM   22  H           1     -20.604  -6.669  -7.815  0.00  0.00     0.275 HD
HETATM   23  H           1     -19.877  -5.314  -8.557  0.00  0.00     0.275 HD
ENDBRANCH   1  20
TORSDOF 9
ENDMDL
MODEL 8
REMARK VINA RESULT:      -5.3     11.216     13.207
REMARK  9 active torsions:
REMARK  status: ('A' for Active; 'I' for Inactive)
REMARK       I    between atoms: N_2  and  C_3 
REMARK    1  A    between atoms: C_3  and  C_18 
REMARK    2  A    between atoms: N_5  and  C_11 
REMARK       I    between atoms: N_5  and  C_8 
REMARK    3  A    between atoms: C_7  and  C_8 
REMARK    4  A    between atoms: C_7  and  C_17 
REMARK    5  A    between atoms: C_7  and  N_16 
REMARK    6  A    between atoms: O_9  and  C_12 
REMARK    7  A    between atoms: C_10  and  C_11 
REMARK    8  A    between atoms: C_11  and  C_12 
REMARK    9  A    between atoms: C_17  and  C_18 
ROOT
HETATM    1  C           1     -21.017  -4.125  -7.026  0.00  0.00     0.275 C 
ENDROOT
BRANCH   1   2
HETATM    2  C           1     -21.792  -5.144  -6.226  0.00  0.00     0.249 C 
HETATM    3  N           1     -21.128  -6.052  -5.445  0.00  0.00    -0.343 N 
HETATM    4  H           1     -20.117  -6.040  -5.405  0.00  0.00     0.163 HD
HETATM    5  O           1     -22.999  -5.157  -6.274  0.00  0.00    -0.271 OA
BRANCH   3   6
HETATM    6  C           1     -21.873  -7.030  -4.677  0.00  0.00     0.209 C 
BRANCH   6   7
HETATM    7  C           1     -21.662  -6.779  -3.204  0.00  0.00     0.198 C 
HETATM    8  O           1     -20.735  -7.360  -2.599  0.00  0.00    -0.646 OA
HETATM    9  O           1     -22.412  -5.991  -2.591  0.00  0.00    -0.646 OA
ENDBRANCH   6   7
BRANCH   6  10
HETATM   10  C           1     -21.386  -8.429  -5.030  0.00  0.00     0.200 C 
BRANCH  10  11
HETATM   11  O           1     -20.066  -8.359  -5.500  0.00  0.00    -0.398 OA
HETATM   12  H           1     -19.539  -8.039  -4.789  0.00  0.00     0.209 HD
ENDBRANCH  10  11
ENDBRANCH   6  10
ENDBRANCH   3   6
ENDBRANCH   1   2
BRANCH   1  13
HETATM   13  C           1     -21.850  -3.674  -8.218  0.00  0.00     0.052 C 
BRANCH  13  14
HETATM   14  C           1     -21.344  -4.359  -9.480  0.00  0.00     0.105 C 
BRANCH  14  15
HETATM   15  C           1     -21.741  -3.547 -10.688  0.00  0.00     0.215 C 
HETATM   16  O           1     -22.904  -3.282 -10.882  0.00  0.00    -0.274 OA
HETATM   17  N           1     -20.784  -3.111 -11.564  0.00  0.00    -0.370 N 
HETATM   18  H           1     -21.051  -2.567 -12.375  0.00  0.00     0.159 HD
HETATM   19  H           1     -19.810  -3.333 -11.402  0.00  0.00     0.159 HD
ENDBRANCH  14  15
ENDBRANCH  13  14
ENDBRANCH   1  13
BRANCH   1  20
HETATM   20  N           1     -19.739  -4.742  -7.513  0.00  0.00    -0.066 N 
HETATM   21  H           1     -19.088  -3.989  -7.831  0.00  0.00     0.275 HD
HETATM   22  H           1     -19.294  -5.282  -6.737  0.00  0.00     0.275 HD
HETATM   23  H           1     -19.946  -5.384  -8.312  0.00  0.00     0.275 HD
ENDBRANCH   1  20
TORSDOF 9
ENDMDL
MODEL 9
REMARK VINA RESULT:      -5.2     13.486     15.538
REMARK  9 active torsions:
REMARK  status: ('A' for Active; 'I' for Inactive)
REMARK       I    between atoms: N_2  and  C_3 
REMARK    1  A    between atoms: C_3  and  C_18 
REMARK    2  A    between atoms: N_5  and  C_11 
REMARK       I    between atoms: N_5  and  C_8 
REMARK    3  A    between atoms: C_7  and  C_8 
REMARK    4  A    between atoms: C_7  and  C_17 
REMARK    5  A    between atoms: C_7  and  N_16 
REMARK    6  A    between atoms: O_9  and  C_12 
REMARK    7  A    between atoms: C_10  and  C_11 
REMARK    8  A    between atoms: C_11  and  C_12 
REMARK    9  A    between atoms: C_17  and  C_18 
ROOT
HETATM    1  C           1     -21.345  -6.697  -2.761  0.00  0.00     0.275 C 
ENDROOT
BRANCH   1   2
HETATM    2  C           1     -21.457  -6.736  -4.266  0.00  0.00     0.249 C 
HETATM    3  N           1     -21.512  -5.569  -4.979  0.00  0.00    -0.343 N 
HETATM    4  H           1     -21.477  -4.679  -4.498  0.00  0.00     0.163 HD
HETATM    5  O           1     -21.498  -7.798  -4.841  0.00  0.00    -0.271 OA
BRANCH   3   6
HETATM    6  C           1     -21.620  -5.607  -6.424  0.00  0.00     0.209 C 
BRANCH   6   7
HETATM    7  C           1     -20.290  -5.243  -7.037  0.00  0.00     0.198 C 
HETATM    8  O           1     -19.429  -4.649  -6.353  0.00  0.00    -0.646 OA
HETATM    9  O           1     -20.051  -5.534  -8.228  0.00  0.00    -0.646 OA
ENDBRANCH   6   7
BRANCH   6  10
HETATM   10  C           1     -22.680  -4.612  -6.880  0.00  0.00     0.200 C 
BRANCH  10  11
HETATM   11  O           1     -22.055  -3.481  -7.426  0.00  0.00    -0.398 OA
HETATM   12  H           1     -21.919  -2.875  -6.718  0.00  0.00     0.209 HD
ENDBRANCH  10  11
ENDBRANCH   6  10
ENDBRANCH   3   6
ENDBRANCH   1   2
BRANCH   1  13
HETATM   13  C           1     -21.494  -8.106  -2.203  0.00  0.00     0.052 C 
BRANCH  13  14
HETATM   14  C           1     -21.447  -8.057  -0.681  0.00  0.00     0.105 C 
BRANCH  14  15
HETATM   15  C           1     -22.686  -8.710  -0.119  0.00  0.00     0.215 C 
HETATM   16  O           1     -22.918  -9.872  -0.355  0.00  0.00    -0.274 OA
HETATM   17  N           1     -23.549  -7.983   0.658  0.00  0.00    -0.370 N 
HETATM   18  H           1     -24.380  -8.421   1.034  0.00  0.00     0.159 HD
HETATM   19  H           1     -23.356  -7.010   0.855  0.00  0.00     0.159 HD
ENDBRANCH  14  15
ENDBRANCH  13  14
ENDBRANCH   1  13
BRANCH   1  20
HETATM   20  N           1     -22.428  -5.821  -2.203  0.00  0.00    -0.066 N 
HETATM   21  H           1     -22.030  -5.212  -1.453  0.00  0.00     0.275 HD
HETATM   22  H           1     -22.821  -5.224  -2.965  0.00  0.00     0.275 HD
HETATM   23  H           1     -23.186  -6.419  -1.801  0.00  0.00     0.275 HD
ENDBRANCH   1  20
TORSDOF 9
ENDMDL
