MODEL 1
REMARK VINA RESULT:      -6.5      0.000      0.000
REMARK  8 active torsions:
REMARK  status: ('A' for Active; 'I' for Inactive)
REMARK       I    between atoms: C_5  and  N_7 
REMARK    1  A    between atoms: C_5  and  C_23 
REMARK    2  A    between atoms: N_8  and  C_22 
REMARK       I    between atoms: N_8  and  C_9 
REMARK    3  A    between atoms: C_9  and  C_10 
REMARK    4  A    between atoms: C_10  and  C_11 
REMARK    5  A    between atoms: C_10  and  N_16 
REMARK    6  A    between atoms: C_11  and  O_15 
REMARK    7  A    between atoms: C_21  and  C_22 
REMARK    8  A    between atoms: C_22  and  C_23 
ROOT
HETATM    1  N           1     -27.610  -6.317 -19.016  0.00  0.00    -0.344 N 
HETATM    2  C           1     -26.316  -6.415 -18.578  0.00  0.00     0.251 C 
HETATM    3  H           1     -27.819  -6.415 -20.001  0.00  0.00     0.163 HD
HETATM    4  O           1     -26.066  -6.297 -17.402  0.00  0.00    -0.271 OA
ENDROOT
BRANCH   1   5
HETATM    5  C           1     -28.679  -6.074 -18.067  0.00  0.00     0.194 C 
BRANCH   5   6
HETATM    6  C           1     -29.674  -7.206 -18.129  0.00  0.00     0.197 C 
HETATM    7  O           1     -30.710  -7.167 -17.431  0.00  0.00    -0.646 OA
HETATM    8  O           1     -29.462  -8.184 -18.879  0.00  0.00    -0.646 OA
ENDBRANCH   5   6
BRANCH   5   9
HETATM    9  C           1     -29.376  -4.765 -18.415  0.00  0.00     0.138 C 
BRANCH   9  10
HETATM   10  C           1     -28.915  -3.682 -17.472  0.00  0.00     0.217 C 
HETATM   11  O           1     -28.010  -3.897 -16.701  0.00  0.00    -0.274 OA
HETATM   12  N           1     -29.522  -2.454 -17.489  0.00  0.00    -0.370 N 
HETATM   13  H           1     -30.280  -2.274 -18.135  0.00  0.00     0.159 HD
HETATM   14  H           1     -29.212  -1.728 -16.856  0.00  0.00     0.159 HD
ENDBRANCH   9  10
ENDBRANCH   5   9
ENDBRANCH   1   5
BRANCH   2  15
HETATM   15  C           1     -25.203  -6.668 -19.564  0.00  0.00     0.302 C 
BRANCH  15  16
HETATM   16  C           1     -25.787  -7.225 -20.856  0.00  0.00     0.153 C 
HETATM   17  C           1     -24.658  -7.727 -21.748  0.00  0.00     0.042 C 
BRANCH  16  18
HETATM   18  O           1     -26.653  -8.287 -20.559  0.00  0.00    -0.393 OA
HETATM   19  H           1     -26.486  -8.535 -19.666  0.00  0.00     0.210 HD
ENDBRANCH  16  18
ENDBRANCH  15  16
BRANCH  15  20
HETATM   20  N           1     -24.238  -7.659 -18.985  0.00  0.00    -0.064 N 
HETATM   21  H           1     -23.792  -7.254 -18.131  0.00  0.00     0.275 HD
HETATM   22  H           1     -24.749  -8.534 -18.728  0.00  0.00     0.275 HD
HETATM   23  H           1     -23.500  -7.881 -19.690  0.00  0.00     0.275 HD
ENDBRANCH  15  20
ENDBRANCH   2  15
TORSDOF 8
ENDMDL
MODEL 2
REMARK VINA RESULT:      -6.5      9.671     11.126
REMARK  8 active torsions:
REMARK  status: ('A' for Active; 'I' for Inactive)
REMARK       I    between atoms: C_5  and  N_7 
REMARK    1  A    between atoms: C_5  and  C_23 
REMARK    2  A    between atoms: N_8  and  C_22 
REMARK       I    between atoms: N_8  and  C_9 
REMARK    3  A    between atoms: C_9  and  C_10 
REMARK    4  A    between atoms: C_10  and  C_11 
REMARK    5  A    between atoms: C_10  and  N_16 
REMARK    6  A    between atoms: C_11  and  O_15 
REMARK    7  A    between atoms: C_21  and  C_22 
REMARK    8  A    between atoms: C_22  and  C_23 
ROOT
HETATM    1  N           1     -34.836  -1.729 -12.907  0.00  0.00    -0.344 N 
HETATM    2  C           1     -34.094  -2.588 -12.140  0.00  0.00     0.251 C 
HETATM    3  H           1     -35.290  -2.064 -13.747  0.00  0.00     0.163 HD
HETATM    4  O           1     -33.551  -2.187 -11.138  0.00  0.00    -0.271 OA
ENDROOT
BRANCH   1   5
HETATM    5  C           1     -34.969  -0.339 -12.514  0.00  0.00     0.194 C 
BRANCH   5   6
HETATM    6  C           1     -36.242  -0.160 -11.724  0.00  0.00     0.197 C 
HETATM    7  O           1     -36.241   0.541 -10.689  0.00  0.00    -0.646 OA
HETATM    8  O           1     -37.296  -0.713 -12.103  0.00  0.00    -0.646 OA
ENDBRANCH   5   6
BRANCH   5   9
HETATM    9  C           1     -35.017   0.536 -13.760  0.00  0.00     0.138 C 
BRANCH   9  10
HETATM   10  C           1     -35.625  -0.243 -14.900  0.00  0.00     0.217 C 
HETATM   11  O           1     -34.926  -0.941 -15.596  0.00  0.00    -0.274 OA
HETATM   12  N           1     -36.969  -0.160 -15.147  0.00  0.00    -0.370 N 
HETATM   13  H           1     -37.555   0.424 -14.564  0.00  0.00     0.159 HD
HETATM   14  H           1     -37.377  -0.682 -15.912  0.00  0.00     0.159 HD
ENDBRANCH   9  10
ENDBRANCH   5   9
ENDBRANCH   1   5
BRANCH   2  15
HETATM   15  C           1     -33.955  -4.034 -12.547  0.00  0.00     0.302 C 
BRANCH  15  16
HETATM   16  C           1     -34.910  -4.888 -11.724  0.00  0.00     0.153 C 
HETATM   17  C           1     -34.117  -5.695 -10.703  0.00  0.00     0.042 C 
BRANCH  16  18
HETATM   18  O           1     -35.822  -4.058 -11.055  0.00  0.00    -0.393 OA
HETATM   19  H           1     -35.325  -3.542 -10.444  0.00  0.00     0.210 HD
ENDBRANCH  16  18
ENDBRANCH  15  16
BRANCH  15  20
HETATM   20  N           1     -32.546  -4.487 -12.307  0.00  0.00    -0.064 N 
HETATM   21  H           1     -31.921  -4.092 -13.044  0.00  0.00     0.275 HD
HETATM   22  H           1     -32.229  -4.156 -11.368  0.00  0.00     0.275 HD
HETATM   23  H           1     -32.505  -5.531 -12.340  0.00  0.00     0.275 HD
ENDBRANCH  15  20
ENDBRANCH   2  15
TORSDOF 8
ENDMDL
MODEL 3
REMARK VINA RESULT:      -6.2      1.703      2.902
REMARK  8 active torsions:
REMARK  status: ('A' for Active; 'I' for Inactive)
REMARK       I    between atoms: C_5  and  N_7 
REMARK    1  A    between atoms: C_5  and  C_23 
REMARK    2  A    between atoms: N_8  and  C_22 
REMARK       I    between atoms: N_8  and  C_9 
REMARK    3  A    between atoms: C_9  and  C_10 
REMARK    4  A    between atoms: C_10  and  C_11 
REMARK    5  A    between atoms: C_10  and  N_16 
REMARK    6  A    between atoms: C_11  and  O_15 
REMARK    7  A    between atoms: C_21  and  C_22 
REMARK    8  A    between atoms: C_22  and  C_23 
ROOT
HETATM    1  N           1     -26.907  -6.395 -17.984  0.00  0.00    -0.344 N 
HETATM    2  C           1     -26.536  -6.387 -19.302  0.00  0.00     0.251 C 
HETATM    3  H           1     -26.225  -6.607 -17.267  0.00  0.00     0.163 HD
HETATM    4  O           1     -27.350  -6.135 -20.158  0.00  0.00    -0.271 OA
ENDROOT
BRANCH   1   5
HETATM    5  C           1     -28.279  -6.101 -17.617  0.00  0.00     0.194 C 
BRANCH   5   6
HETATM    6  C           1     -28.294  -5.120 -16.471  0.00  0.00     0.197 C 
HETATM    7  O           1     -28.999  -5.346 -15.464  0.00  0.00    -0.646 OA
HETATM    8  O           1     -27.600  -4.082 -16.528  0.00  0.00    -0.646 OA
ENDBRANCH   5   6
BRANCH   5   9
HETATM    9  C           1     -28.977  -7.387 -17.194  0.00  0.00     0.138 C 
BRANCH   9  10
HETATM   10  C           1     -30.352  -7.442 -17.814  0.00  0.00     0.217 C 
HETATM   11  O           1     -30.541  -8.107 -18.805  0.00  0.00    -0.274 OA
HETATM   12  N           1     -31.385  -6.740 -17.254  0.00  0.00    -0.370 N 
HETATM   13  H           1     -31.226  -6.183 -16.424  0.00  0.00     0.159 HD
HETATM   14  H           1     -32.306  -6.777 -17.670  0.00  0.00     0.159 HD
ENDBRANCH   9  10
ENDBRANCH   5   9
ENDBRANCH   1   5
BRANCH   2  15
HETATM   15  C           1     -25.109  -6.693 -19.685  0.00  0.00     0.302 C 
BRANCH  15  16
HETATM   16  C           1     -25.090  -7.487 -20.984  0.00  0.00     0.153 C 
HETATM   17  C           1     -23.762  -8.225 -21.108  0.00  0.00     0.042 C 
BRANCH  16  18
HETATM   18  O           1     -26.140  -8.416 -20.980  0.00  0.00    -0.393 OA
HETATM   19  H           1     -25.785  -9.230 -20.669  0.00  0.00     0.210 HD
ENDBRANCH  16  18
ENDBRANCH  15  16
BRANCH  15  20
HETATM   20  N           1     -24.462  -7.498 -18.597  0.00  0.00    -0.064 N 
HETATM   21  H           1     -25.110  -7.567 -17.781  0.00  0.00     0.275 HD
HETATM   22  H           1     -24.249  -8.457 -18.954  0.00  0.00     0.275 HD
HETATM   23  H           1     -23.575  -7.032 -18.299  0.00  0.00     0.275 HD
ENDBRANCH  15  20
ENDBRANCH   2  15
TORSDOF 8
ENDMDL
MODEL 4
REMARK VINA RESULT:      -6.1      9.746     11.725
REMARK  8 active torsions:
REMARK  status: ('A' for Active; 'I' for Inactive)
REMARK       I    between atoms: C_5  and  N_7 
REMARK    1  A    between atoms: C_5  and  C_23 
REMARK    2  A    between atoms: N_8  and  C_22 
REMARK       I    between atoms: N_8  and  C_9 
REMARK    3  A    between atoms: C_9  and  C_10 
REMARK    4  A    between atoms: C_10  and  C_11 
REMARK    5  A    between atoms: C_10  and  N_16 
REMARK    6  A    between atoms: C_11  and  O_15 
REMARK    7  A    between atoms: C_21  and  C_22 
REMARK    8  A    between atoms: C_22  and  C_23 
ROOT
HETATM    1  N           1     -35.085  -1.726 -13.041  0.00  0.00    -0.344 N 
HETATM    2  C           1     -35.122  -0.391 -13.340  0.00  0.00     0.251 C 
HETATM    3  H           1     -35.388  -2.407 -13.726  0.00  0.00     0.163 HD
HETATM    4  O           1     -34.761   0.422 -12.522  0.00  0.00    -0.271 OA
ENDROOT
BRANCH   1   5
HETATM    5  C           1     -34.613  -2.165 -11.742  0.00  0.00     0.194 C 
BRANCH   5   6
HETATM    6  C           1     -33.661  -3.322 -11.917  0.00  0.00     0.197 C 
HETATM    7  O           1     -33.095  -3.822 -10.921  0.00  0.00    -0.646 OA
HETATM    8  O           1     -33.438  -3.781 -13.058  0.00  0.00    -0.646 OA
ENDBRANCH   5   6
BRANCH   5   9
HETATM    9  C           1     -35.799  -2.606 -10.895  0.00  0.00     0.138 C 
BRANCH   9  10
HETATM   10  C           1     -36.587  -1.395 -10.460  0.00  0.00     0.217 C 
HETATM   11  O           1     -37.697  -1.207 -10.900  0.00  0.00    -0.274 OA
HETATM   12  N           1     -36.046  -0.508  -9.568  0.00  0.00    -0.370 N 
HETATM   13  H           1     -35.116  -0.666  -9.200  0.00  0.00     0.159 HD
HETATM   14  H           1     -36.574   0.304  -9.278  0.00  0.00     0.159 HD
ENDBRANCH   9  10
ENDBRANCH   5   9
ENDBRANCH   1   5
BRANCH   2  15
HETATM   15  C           1     -35.613   0.066 -14.692  0.00  0.00     0.302 C 
BRANCH  15  16
HETATM   16  C           1     -37.136   0.092 -14.697  0.00  0.00     0.153 C 
HETATM   17  C           1     -37.649  -0.484 -16.011  0.00  0.00     0.042 C 
BRANCH  16  18
HETATM   18  O           1     -37.621  -0.677 -13.630  0.00  0.00    -0.393 OA
HETATM   19  H           1     -38.526  -0.860 -13.814  0.00  0.00     0.210 HD
ENDBRANCH  16  18
ENDBRANCH  15  16
BRANCH  15  20
HETATM   20  N           1     -35.127  -0.884 -15.747  0.00  0.00    -0.064 N 
HETATM   21  H           1     -35.264  -0.458 -16.691  0.00  0.00     0.275 HD
HETATM   22  H           1     -34.112  -1.079 -15.598  0.00  0.00     0.275 HD
HETATM   23  H           1     -35.667  -1.777 -15.687  0.00  0.00     0.275 HD
ENDBRANCH  15  20
ENDBRANCH   2  15
TORSDOF 8
ENDMDL
MODEL 5
REMARK VINA RESULT:      -6.1     10.788     12.154
REMARK  8 active torsions:
REMARK  status: ('A' for Active; 'I' for Inactive)
REMARK       I    between atoms: C_5  and  N_7 
REMARK    1  A    between atoms: C_5  and  C_23 
REMARK    2  A    between atoms: N_8  and  C_22 
REMARK       I    between atoms: N_8  and  C_9 
REMARK    3  A    between atoms: C_9  and  C_10 
REMARK    4  A    between atoms: C_10  and  C_11 
REMARK    5  A    between atoms: C_10  and  N_16 
REMARK    6  A    between atoms: C_11  and  O_15 
REMARK    7  A    between atoms: C_21  and  C_22 
REMARK    8  A    between atoms: C_22  and  C_23 
ROOT
HETATM    1  N           1     -22.827  -4.438  -8.548  0.00  0.00    -0.344 N 
HETATM    2  C           1     -21.931  -4.098  -7.571  0.00  0.00     0.251 C 
HETATM    3  H           1     -23.463  -5.213  -8.405  0.00  0.00     0.163 HD
HETATM    4  O           1     -21.172  -3.174  -7.742  0.00  0.00    -0.271 OA
ENDROOT
BRANCH   1   5
HETATM    5  C           1     -22.864  -3.689  -9.789  0.00  0.00     0.194 C 
BRANCH   5   6
HETATM    6  C           1     -24.299  -3.408 -10.164  0.00  0.00     0.197 C 
HETATM    7  O           1     -24.724  -3.730 -11.295  0.00  0.00    -0.646 OA
HETATM    8  O           1     -25.062  -2.853  -9.345  0.00  0.00    -0.646 OA
ENDBRANCH   5   6
BRANCH   5   9
HETATM    9  C           1     -22.201  -4.502 -10.892  0.00  0.00     0.138 C 
BRANCH   9  10
HETATM   10  C           1     -20.740  -4.136 -10.980  0.00  0.00     0.217 C 
HETATM   11  O           1     -19.904  -4.872 -10.513  0.00  0.00    -0.274 OA
HETATM   12  N           1     -20.361  -2.969 -11.588  0.00  0.00    -0.370 N 
HETATM   13  H           1     -21.061  -2.352 -11.979  0.00  0.00     0.159 HD
HETATM   14  H           1     -19.381  -2.724 -11.646  0.00  0.00     0.159 HD
ENDBRANCH   9  10
ENDBRANCH   5   9
ENDBRANCH   1   5
BRANCH   2  15
HETATM   15  C           1     -21.892  -4.877  -6.279  0.00  0.00     0.302 C 
BRANCH  15  16
HETATM   16  C           1     -20.802  -5.937  -6.359  0.00  0.00     0.153 C 
HETATM   17  C           1     -21.331  -7.252  -5.800  0.00  0.00     0.042 C 
BRANCH  16  18
HETATM   18  O           1     -20.421  -6.118  -7.696  0.00  0.00    -0.393 OA
HETATM   19  H           1     -20.963  -6.804  -8.045  0.00  0.00     0.210 HD
ENDBRANCH  16  18
ENDBRANCH  15  16
BRANCH  15  20
HETATM   20  N           1     -23.219  -5.541  -6.057  0.00  0.00    -0.064 N 
HETATM   21  H           1     -23.077  -6.444  -5.550  0.00  0.00     0.275 HD
HETATM   22  H           1     -23.830  -4.915  -5.487  0.00  0.00     0.275 HD
HETATM   23  H           1     -23.674  -5.729  -6.978  0.00  0.00     0.275 HD
ENDBRANCH  15  20
ENDBRANCH   2  15
TORSDOF 8
ENDMDL
MODEL 6
REMARK VINA RESULT:      -6.0     10.012     11.364
REMARK  8 active torsions:
REMARK  status: ('A' for Active; 'I' for Inactive)
REMARK       I    between atoms: C_5  and  N_7 
REMARK    1  A    between atoms: C_5  and  C_23 
REMARK    2  A    between atoms: N_8  and  C_22 
REMARK       I    between atoms: N_8  and  C_9 
REMARK    3  A    between atoms: C_9  and  C_10 
REMARK    4  A    between atoms: C_10  and  C_11 
REMARK    5  A    between atoms: C_10  and  N_16 
REMARK    6  A    between atoms: C_11  and  O_15 
REMARK    7  A    between atoms: C_21  and  C_22 
REMARK    8  A    between atoms: C_22  and  C_23 
ROOT
HETATM    1  N           1     -34.775  -1.437 -13.198  0.00  0.00    -0.344 N 
HETATM    2  C           1     -35.913  -0.769 -13.560  0.00  0.00     0.251 C 
HETATM    3  H           1     -33.899  -1.235 -13.662  0.00  0.00     0.163 HD
HETATM    4  O           1     -36.959  -1.011 -13.007  0.00  0.00    -0.271 OA
ENDROOT
BRANCH   1   5
HETATM    5  C           1     -34.826  -2.437 -12.148  0.00  0.00     0.194 C 
BRANCH   5   6
HETATM    6  C           1     -34.462  -1.800 -10.829  0.00  0.00     0.197 C 
HETATM    7  O           1     -33.265  -1.740 -10.473  0.00  0.00    -0.646 OA
HETATM    8  O           1     -35.357  -1.333 -10.093  0.00  0.00    -0.646 OA
ENDBRANCH   5   6
BRANCH   5   9
HETATM    9  C           1     -33.838  -3.552 -12.463  0.00  0.00     0.138 C 
BRANCH   9  10
HETATM   10  C           1     -34.351  -4.854 -11.899  0.00  0.00     0.217 C 
HETATM   11  O           1     -34.291  -5.063 -10.711  0.00  0.00    -0.274 OA
HETATM   12  N           1     -34.885  -5.800 -12.733  0.00  0.00    -0.370 N 
HETATM   13  H           1     -34.935  -5.625 -13.728  0.00  0.00     0.159 HD
HETATM   14  H           1     -35.229  -6.673 -12.354  0.00  0.00     0.159 HD
ENDBRANCH   9  10
ENDBRANCH   5   9
ENDBRANCH   1   5
BRANCH   2  15
HETATM   15  C           1     -35.861   0.272 -14.652  0.00  0.00     0.302 C 
BRANCH  15  16
HETATM   16  C           1     -36.487  -0.292 -15.921  0.00  0.00     0.153 C 
HETATM   17  C           1     -35.533  -1.298 -16.553  0.00  0.00     0.042 C 
BRANCH  16  18
HETATM   18  O           1     -37.695  -0.929 -15.604  0.00  0.00    -0.393 OA
HETATM   19  H           1     -37.639  -1.805 -15.945  0.00  0.00     0.210 HD
ENDBRANCH  16  18
ENDBRANCH  15  16
BRANCH  15  20
HETATM   20  N           1     -34.432   0.641 -14.922  0.00  0.00    -0.064 N 
HETATM   21  H           1     -34.344   1.681 -14.974  0.00  0.00     0.275 HD
HETATM   22  H           1     -33.828   0.279 -14.150  0.00  0.00     0.275 HD
HETATM   23  H           1     -34.129   0.221 -15.829  0.00  0.00     0.275 HD
ENDBRANCH  15  20
ENDBRANCH   2  15
TORSDOF 8
ENDMDL
MODEL 7
REMARK VINA RESULT:      -5.8      9.881     10.909
REMARK  8 active torsions:
REMARK  status: ('A' for Active; 'I' for Inactive)
REMARK       I    between atoms: C_5  and  N_7 
REMARK    1  A    between atoms: C_5  and  C_23 
REMARK    2  A    between atoms: N_8  and  C_22 
REMARK       I    between atoms: N_8  and  C_9 
REMARK    3  A    between atoms: C_9  and  C_10 
REMARK    4  A    between atoms: C_10  and  C_11 
REMARK    5  A    between atoms: C_10  and  N_16 
REMARK    6  A    between atoms: C_11  and  O_15 
REMARK    7  A    between atoms: C_21  and  C_22 
REMARK    8  A    between atoms: C_22  and  C_23 
ROOT
HETATM    1  N           1     -35.000  -1.434 -13.967  0.00  0.00    -0.344 N 
HETATM    2  C           1     -35.153  -1.825 -12.664  0.00  0.00     0.251 C 
HETATM    3  H           1     -34.077  -1.400 -14.380  0.00  0.00     0.163 HD
HETATM    4  O           1     -36.255  -1.865 -12.170  0.00  0.00    -0.271 OA
ENDROOT
BRANCH   1   5
HETATM    5  C           1     -36.162  -1.067 -14.753  0.00  0.00     0.194 C 
BRANCH   5   6
HETATM    6  C           1     -35.808  -1.105 -16.220  0.00  0.00     0.197 C 
HETATM    7  O           1     -34.700  -1.555 -16.584  0.00  0.00    -0.646 OA
HETATM    8  O           1     -36.623  -0.687 -17.070  0.00  0.00    -0.646 OA
ENDBRANCH   5   6
BRANCH   5   9
HETATM    9  C           1     -36.606   0.340 -14.374  0.00  0.00     0.138 C 
BRANCH   9  10
HETATM   10  C           1     -35.515   1.323 -14.718  0.00  0.00     0.217 C 
HETATM   11  O           1     -34.480   1.318 -14.095  0.00  0.00    -0.274 OA
HETATM   12  N           1     -35.696   2.221 -15.735  0.00  0.00    -0.370 N 
HETATM   13  H           1     -36.563   2.225 -16.257  0.00  0.00     0.159 HD
HETATM   14  H           1     -34.964   2.880 -15.965  0.00  0.00     0.159 HD
ENDBRANCH   9  10
ENDBRANCH   5   9
ENDBRANCH   1   5
BRANCH   2  15
HETATM   15  C           1     -33.945  -2.208 -11.845  0.00  0.00     0.302 C 
BRANCH  15  16
HETATM   16  C           1     -33.706  -3.707 -11.961  0.00  0.00     0.153 C 
HETATM   17  C           1     -33.909  -4.360 -10.599  0.00  0.00     0.042 C 
BRANCH  16  18
HETATM   18  O           1     -34.611  -4.255 -12.881  0.00  0.00    -0.393 OA
HETATM   19  H           1     -35.092  -3.537 -13.253  0.00  0.00     0.210 HD
ENDBRANCH  16  18
ENDBRANCH  15  16
BRANCH  15  20
HETATM   20  N           1     -34.182  -1.850 -10.407  0.00  0.00    -0.064 N 
HETATM   21  H           1     -34.752  -0.975 -10.354  0.00  0.00     0.275 HD
HETATM   22  H           1     -34.695  -2.628  -9.935  0.00  0.00     0.275 HD
HETATM   23  H           1     -33.265  -1.696  -9.931  0.00  0.00     0.275 HD
ENDBRANCH  15  20
ENDBRANCH   2  15
TORSDOF 8
ENDMDL
MODEL 8
REMARK VINA RESULT:      -5.7      8.567     11.278
REMARK  8 active torsions:
REMARK  status: ('A' for Active; 'I' for Inactive)
REMARK       I    between atoms: C_5  and  N_7 
REMARK    1  A    between atoms: C_5  and  C_23 
REMARK    2  A    between atoms: N_8  and  C_22 
REMARK       I    between atoms: N_8  and  C_9 
REMARK    3  A    between atoms: C_9  and  C_10 
REMARK    4  A    between atoms: C_10  and  C_11 
REMARK    5  A    between atoms: C_10  and  N_16 
REMARK    6  A    between atoms: C_11  and  O_15 
REMARK    7  A    between atoms: C_21  and  C_22 
REMARK    8  A    between atoms: C_22  and  C_23 
ROOT
HETATM    1  N           1     -35.455  -0.838 -14.455  0.00  0.00    -0.344 N 
HETATM    2  C           1     -34.915  -0.095 -13.439  0.00  0.00     0.251 C 
HETATM    3  H           1     -35.879  -1.735 -14.256  0.00  0.00     0.163 HD
HETATM    4  O           1     -34.408   0.975 -13.677  0.00  0.00    -0.271 OA
ENDROOT
BRANCH   1   5
HETATM    5  C           1     -35.418  -0.339 -15.816  0.00  0.00     0.194 C 
BRANCH   5   6
HETATM    6  C           1     -36.487   0.711 -15.995  0.00  0.00     0.197 C 
HETATM    7  O           1     -36.166   1.899 -16.212  0.00  0.00    -0.646 OA
HETATM    8  O           1     -37.693   0.392 -15.927  0.00  0.00    -0.646 OA
ENDBRANCH   5   6
BRANCH   5   9
HETATM    9  C           1     -35.667  -1.488 -16.784  0.00  0.00     0.138 C 
BRANCH   9  10
HETATM   10  C           1     -34.644  -2.573 -16.551  0.00  0.00     0.217 C 
HETATM   11  O           1     -34.706  -3.258 -15.558  0.00  0.00    -0.274 OA
HETATM   12  N           1     -33.646  -2.782 -17.466  0.00  0.00    -0.370 N 
HETATM   13  H           1     -33.595  -2.208 -18.298  0.00  0.00     0.159 HD
HETATM   14  H           1     -32.961  -3.509 -17.309  0.00  0.00     0.159 HD
ENDBRANCH   9  10
ENDBRANCH   5   9
ENDBRANCH   1   5
BRANCH   2  15
HETATM   15  C           1     -34.953  -0.614 -12.023  0.00  0.00     0.302 C 
BRANCH  15  16
HETATM   16  C           1     -34.433  -2.045 -11.992  0.00  0.00     0.153 C 
HETATM   17  C           1     -33.676  -2.282 -10.691  0.00  0.00     0.042 C 
BRANCH  16  18
HETATM   18  O           1     -35.511  -2.937 -12.073  0.00  0.00    -0.393 OA
HETATM   19  H           1     -36.288  -2.418 -12.195  0.00  0.00     0.210 HD
ENDBRANCH  16  18
ENDBRANCH  15  16
BRANCH  15  20
HETATM   20  N           1     -36.365  -0.585 -11.518  0.00  0.00    -0.064 N 
HETATM   21  H           1     -36.540   0.316 -11.019  0.00  0.00     0.275 HD
HETATM   22  H           1     -37.024  -0.669 -12.325  0.00  0.00     0.275 HD
HETATM   23  H           1     -36.516  -1.382 -10.860  0.00  0.00     0.275 HD
ENDBRANCH  15  20
ENDBRANCH   2  15
TORSDOF 8
ENDMDL
MODEL 9
REMARK VINA RESULT:      -5.7      2.312      5.539
REMARK  8 active torsions:
REMARK  status: ('A' for Active; 'I' for Inactive)
REMARK       I    between atoms: C_5  and  N_7 
REMARK    1  A    between atoms: C_5  and  C_23 
REMARK    2  A    between atoms: N_8  and  C_22 
REMARK       I    between atoms: N_8  and  C_9 
REMARK    3  A    between atoms: C_9  and  C_10 
REMARK    4  A    between atoms: C_10  and  C_11 
REMARK    5  A    between atoms: C_10  and  N_16 
REMARK    6  A    between atoms: C_11  and  O_15 
REMARK    7  A    between atoms: C_21  and  C_22 
REMARK    8  A    between atoms: C_22  and  C_23 
ROOT
HETATM    1  N           1     -28.624  -5.449 -16.471  0.00  0.00    -0.344 N 
HETATM    2  C           1     -29.555  -5.024 -17.380  0.00  0.00     0.251 C 
HETATM    3  H           1     -28.601  -5.046 -15.543  0.00  0.00     0.163 HD
HETATM    4  O           1     -29.582  -5.505 -18.488  0.00  0.00    -0.271 OA
ENDROOT
BRANCH   1   5
HETATM    5  C           1     -27.670  -6.478 -16.839  0.00  0.00     0.194 C 
BRANCH   5   6
HETATM    6  C           1     -27.262  -7.249 -15.608  0.00  0.00     0.197 C 
HETATM    7  O           1     -28.135  -7.698 -14.834  0.00  0.00    -0.646 OA
HETATM    8  O           1     -26.052  -7.439 -15.361  0.00  0.00    -0.646 OA
ENDBRANCH   5   6
BRANCH   5   9
HETATM    9  C           1     -26.441  -5.829 -17.462  0.00  0.00     0.138 C 
BRANCH   9  10
HETATM   10  C           1     -26.124  -6.504 -18.773  0.00  0.00     0.217 C 
HETATM   11  O           1     -24.974  -6.697 -19.090  0.00  0.00    -0.274 OA
HETATM   12  N           1     -27.138  -6.900 -19.603  0.00  0.00    -0.370 N 
HETATM   13  H           1     -28.101  -6.738 -19.337  0.00  0.00     0.159 HD
HETATM   14  H           1     -26.925  -7.353 -20.482  0.00  0.00     0.159 HD
ENDBRANCH   9  10
ENDBRANCH   5   9
ENDBRANCH   1   5
BRANCH   2  15
HETATM   15  C           1     -30.548  -3.954 -16.997  0.00  0.00     0.302 C 
BRANCH  15  16
HETATM   16  C           1     -31.851  -4.605 -16.554  0.00  0.00     0.153 C 
HETATM   17  C           1     -33.026  -3.876 -17.192  0.00  0.00     0.042 C 
BRANCH  16  18
HETATM   18  O           1     -31.863  -5.949 -16.954  0.00  0.00    -0.393 OA
HETATM   19  H           1     -32.762  -6.180 -17.111  0.00  0.00     0.210 HD
ENDBRANCH  16  18
ENDBRANCH  15  16
BRANCH  15  20
HETATM   20  N           1     -30.809  -3.069 -18.180  0.00  0.00    -0.064 N 
HETATM   21  H           1     -30.422  -2.117 -17.996  0.00  0.00     0.275 HD
HETATM   22  H           1     -30.349  -3.475 -19.026  0.00  0.00     0.275 HD
HETATM   23  H           1     -31.839  -3.000 -18.342  0.00  0.00     0.275 HD
ENDBRANCH  15  20
ENDBRANCH   2  15
TORSDOF 8
ENDMDL
