MODEL 1
REMARK VINA RESULT:      -7.7      0.000      0.000
REMARK  9 active torsions:
REMARK  status: ('A' for Active; 'I' for Inactive)
REMARK    1  A    between atoms: N_3  and  C_26 
REMARK       I    between atoms: N_3  and  C_23 
REMARK    2  A    between atoms: C_4  and  C_16 
REMARK    3  A    between atoms: O_5  and  C_18 
REMARK    4  A    between atoms: C_7  and  C_13 
REMARK    5  A    between atoms: N_10  and  C_17 
REMARK    6  A    between atoms: C_13  and  C_26 
REMARK    7  A    between atoms: C_16  and  C_17 
REMARK    8  A    between atoms: C_17  and  C_23 
REMARK    9  A    between atoms: C_25  and  C_26 
ROOT
HETATM    1  C           1     -22.133  -5.280  -6.714  0.00  0.00     0.260 C 
ENDROOT
BRANCH   1   2
HETATM    2  N           1     -23.519  -5.022  -6.201  0.00  0.00    -0.067 N 
HETATM    3  H           1     -24.210  -5.179  -6.968  0.00  0.00     0.275 HD
HETATM    4  H           1     -23.724  -5.672  -5.409  0.00  0.00     0.275 HD
HETATM    5  H           1     -23.587  -4.033  -5.867  0.00  0.00     0.275 HD
ENDBRANCH   1   2
BRANCH   1   6
HETATM    6  C           1     -21.525  -3.975  -7.211  0.00  0.00     0.079 C 
BRANCH   6   7
HETATM    7  C           1     -21.569  -3.941  -8.706  0.00  0.00    -0.056 A 
HETATM    8  C           1     -22.765  -3.649  -9.362  0.00  0.00     0.010 A 
HETATM    9  C           1     -22.806  -3.617 -10.757  0.00  0.00     0.037 A 
HETATM   10  C           1     -21.651  -3.878 -11.495  0.00  0.00     0.065 A 
HETATM   11  C           1     -20.455  -4.171 -10.839  0.00  0.00     0.037 A 
HETATM   12  C           1     -20.415  -4.202  -9.444  0.00  0.00     0.010 A 
BRANCH  10  13
HETATM   13  O           1     -21.691  -3.848 -12.848  0.00  0.00    -0.361 OA
HETATM   14  H           1     -22.621  -3.902 -13.123  0.00  0.00     0.217 HD
ENDBRANCH  10  13
ENDBRANCH   6   7
ENDBRANCH   1   6
BRANCH   1  15
HETATM   15  C           1     -21.282  -5.842  -5.602  0.00  0.00     0.130 C 
HETATM   16  N           1     -21.341  -7.176  -5.303  0.00  0.00    -0.359 N 
HETATM   17  H           1     -21.955  -7.787  -5.827  0.00  0.00     0.162 HD
HETATM   18  O           1     -20.549  -5.114  -4.976  0.00  0.00    -0.397 OA
BRANCH  16  19
HETATM   19  C           1     -20.522  -7.716  -4.234  0.00  0.00     0.184 C 
BRANCH  19  20
HETATM   20  C           1     -21.421  -8.222  -3.113  0.00  0.00     0.040 C 
BRANCH  20  21
HETATM   21  C           1     -21.225  -7.357  -1.875  0.00  0.00    -0.018 C 
HETATM   22  C           1     -21.463  -8.195  -0.625  0.00  0.00     0.289 C 
HETATM   23  C           1     -22.215  -6.200  -1.904  0.00  0.00     0.009 C 
ENDBRANCH  20  21
ENDBRANCH  19  20
BRANCH  19  24
HETATM   24  C           1     -19.691  -8.858  -4.766  0.00  0.00     0.196 C 
HETATM   25  O           1     -18.571  -9.101  -4.267  0.00  0.00    -0.646 OA
HETATM   26  O           1     -20.122  -9.559  -5.706  0.00  0.00    -0.646 OA
ENDBRANCH  19  24
ENDBRANCH  16  19
ENDBRANCH   1  15
TORSDOF 9
ENDMDL
MODEL 2
REMARK VINA RESULT:      -7.7      0.050      1.056
REMARK  9 active torsions:
REMARK  status: ('A' for Active; 'I' for Inactive)
REMARK    1  A    between atoms: N_3  and  C_26 
REMARK       I    between atoms: N_3  and  C_23 
REMARK    2  A    between atoms: C_4  and  C_16 
REMARK    3  A    between atoms: O_5  and  C_18 
REMARK    4  A    between atoms: C_7  and  C_13 
REMARK    5  A    between atoms: N_10  and  C_17 
REMARK    6  A    between atoms: C_13  and  C_26 
REMARK    7  A    between atoms: C_16  and  C_17 
REMARK    8  A    between atoms: C_17  and  C_23 
REMARK    9  A    between atoms: C_25  and  C_26 
ROOT
HETATM    1  C           1     -22.146  -5.289  -6.713  0.00  0.00     0.260 C 
ENDROOT
BRANCH   1   2
HETATM    2  N           1     -23.531  -5.034  -6.196  0.00  0.00    -0.067 N 
HETATM    3  H           1     -23.654  -5.511  -5.275  0.00  0.00     0.275 HD
HETATM    4  H           1     -23.675  -4.006  -6.078  0.00  0.00     0.275 HD
HETATM    5  H           1     -24.231  -5.408  -6.878  0.00  0.00     0.275 HD
ENDBRANCH   1   2
BRANCH   1   6
HETATM    6  C           1     -21.540  -3.982  -7.205  0.00  0.00     0.079 C 
BRANCH   6   7
HETATM    7  C           1     -21.578  -3.946  -8.701  0.00  0.00    -0.056 A 
HETATM    8  C           1     -20.418  -4.195  -9.435  0.00  0.00     0.010 A 
HETATM    9  C           1     -20.455  -4.160 -10.829  0.00  0.00     0.037 A 
HETATM   10  C           1     -21.650  -3.877 -11.489  0.00  0.00     0.065 A 
HETATM   11  C           1     -22.810  -3.627 -10.755  0.00  0.00     0.037 A 
HETATM   12  C           1     -22.773  -3.661  -9.361  0.00  0.00     0.010 A 
BRANCH  10  13
HETATM   13  O           1     -21.685  -3.843 -12.843  0.00  0.00    -0.361 OA
HETATM   14  H           1     -22.429  -4.394 -13.138  0.00  0.00     0.217 HD
ENDBRANCH  10  13
ENDBRANCH   6   7
ENDBRANCH   1   6
BRANCH   1  15
HETATM   15  C           1     -21.293  -5.855  -5.604  0.00  0.00     0.130 C 
HETATM   16  N           1     -21.312  -7.198  -5.343  0.00  0.00    -0.359 N 
HETATM   17  H           1     -21.899  -7.813  -5.893  0.00  0.00     0.162 HD
HETATM   18  O           1     -20.593  -5.122  -4.947  0.00  0.00    -0.397 OA
BRANCH  16  19
HETATM   19  C           1     -20.492  -7.742  -4.277  0.00  0.00     0.184 C 
BRANCH  19  20
HETATM   20  C           1     -21.387  -8.219  -3.140  0.00  0.00     0.040 C 
BRANCH  20  21
HETATM   21  C           1     -21.169  -7.338  -1.917  0.00  0.00    -0.018 C 
HETATM   22  C           1     -21.331  -8.172  -0.654  0.00  0.00     0.289 C 
HETATM   23  C           1     -22.194  -6.211  -1.915  0.00  0.00     0.009 C 
ENDBRANCH  20  21
ENDBRANCH  19  20
BRANCH  19  24
HETATM   24  C           1     -19.689  -8.904  -4.805  0.00  0.00     0.196 C 
HETATM   25  O           1     -18.558  -9.149  -4.332  0.00  0.00    -0.646 OA
HETATM   26  O           1     -20.153  -9.622  -5.717  0.00  0.00    -0.646 OA
ENDBRANCH  19  24
ENDBRANCH  16  19
ENDBRANCH   1  15
TORSDOF 9
ENDMDL
MODEL 3
REMARK VINA RESULT:      -7.3      2.080      7.812
REMARK  9 active torsions:
REMARK  status: ('A' for Active; 'I' for Inactive)
REMARK    1  A    between atoms: N_3  and  C_26 
REMARK       I    between atoms: N_3  and  C_23 
REMARK    2  A    between atoms: C_4  and  C_16 
REMARK    3  A    between atoms: O_5  and  C_18 
REMARK    4  A    between atoms: C_7  and  C_13 
REMARK    5  A    between atoms: N_10  and  C_17 
REMARK    6  A    between atoms: C_13  and  C_26 
REMARK    7  A    between atoms: C_16  and  C_17 
REMARK    8  A    between atoms: C_17  and  C_23 
REMARK    9  A    between atoms: C_25  and  C_26 
ROOT
HETATM    1  C           1     -22.348  -4.946  -6.263  0.00  0.00     0.260 C 
ENDROOT
BRANCH   1   2
HETATM    2  N           1     -23.741  -5.445  -6.019  0.00  0.00    -0.067 N 
HETATM    3  H           1     -23.783  -5.924  -5.092  0.00  0.00     0.275 HD
HETATM    4  H           1     -24.406  -4.639  -6.024  0.00  0.00     0.275 HD
HETATM    5  H           1     -24.006  -6.120  -6.773  0.00  0.00     0.275 HD
ENDBRANCH   1   2
BRANCH   1   6
HETATM    6  C           1     -21.390  -6.129  -6.329  0.00  0.00     0.079 C 
BRANCH   6   7
HETATM    7  C           1     -21.381  -6.838  -5.011  0.00  0.00    -0.056 A 
HETATM    8  C           1     -21.463  -8.230  -4.968  0.00  0.00     0.010 A 
HETATM    9  C           1     -21.454  -8.891  -3.739  0.00  0.00     0.037 A 
HETATM   10  C           1     -21.364  -8.161  -2.554  0.00  0.00     0.065 A 
HETATM   11  C           1     -21.283  -6.769  -2.598  0.00  0.00     0.037 A 
HETATM   12  C           1     -21.291  -6.108  -3.827  0.00  0.00     0.010 A 
BRANCH  10  13
HETATM   13  O           1     -21.356  -8.802  -1.362  0.00  0.00    -0.361 OA
HETATM   14  H           1     -20.656  -9.475  -1.386  0.00  0.00     0.217 HD
ENDBRANCH  10  13
ENDBRANCH   6   7
ENDBRANCH   1   6
BRANCH   1  15
HETATM   15  C           1     -22.305  -4.190  -7.568  0.00  0.00     0.130 C 
HETATM   16  N           1     -23.145  -4.542  -8.590  0.00  0.00    -0.359 N 
HETATM   17  H           1     -23.795  -5.309  -8.471  0.00  0.00     0.162 HD
HETATM   18  O           1     -21.529  -3.276  -7.711  0.00  0.00    -0.397 OA
BRANCH  16  19
HETATM   19  C           1     -23.105  -3.816  -9.845  0.00  0.00     0.184 C 
BRANCH  19  20
HETATM   20  C           1     -22.557  -4.723 -10.939  0.00  0.00     0.040 C 
BRANCH  20  21
HETATM   21  C           1     -21.201  -4.204 -11.400  0.00  0.00    -0.018 C 
HETATM   22  C           1     -20.110  -4.760 -10.496  0.00  0.00     0.289 C 
HETATM   23  C           1     -21.191  -2.682 -11.329  0.00  0.00     0.009 C 
ENDBRANCH  20  21
ENDBRANCH  19  20
BRANCH  19  24
HETATM   24  C           1     -24.498  -3.369 -10.212  0.00  0.00     0.196 C 
HETATM   25  O           1     -25.192  -2.740  -9.385  0.00  0.00    -0.646 OA
HETATM   26  O           1     -24.959  -3.631 -11.344  0.00  0.00    -0.646 OA
ENDBRANCH  19  24
ENDBRANCH  16  19
ENDBRANCH   1  15
TORSDOF 9
ENDMDL
MODEL 4
REMARK VINA RESULT:      -6.9      1.924      3.067
REMARK  9 active torsions:
REMARK  status: ('A' for Active; 'I' for Inactive)
REMARK    1  A    between atoms: N_3  and  C_26 
REMARK       I    between atoms: N_3  and  C_23 
REMARK    2  A    between atoms: C_4  and  C_16 
REMARK    3  A    between atoms: O_5  and  C_18 
REMARK    4  A    between atoms: C_7  and  C_13 
REMARK    5  A    between atoms: N_10  and  C_17 
REMARK    6  A    between atoms: C_13  and  C_26 
REMARK    7  A    between atoms: C_16  and  C_17 
REMARK    8  A    between atoms: C_17  and  C_23 
REMARK    9  A    between atoms: C_25  and  C_26 
ROOT
HETATM    1  C           1     -21.095  -5.145  -5.888  0.00  0.00     0.260 C 
ENDROOT
BRANCH   1   2
HETATM    2  N           1     -19.937  -4.494  -5.191  0.00  0.00    -0.067 N 
HETATM    3  H           1     -20.220  -3.546  -4.854  0.00  0.00     0.275 HD
HETATM    4  H           1     -19.646  -5.080  -4.376  0.00  0.00     0.275 HD
HETATM    5  H           1     -19.136  -4.403  -5.858  0.00  0.00     0.275 HD
ENDBRANCH   1   2
BRANCH   1   6
HETATM    6  C           1     -20.600  -5.847  -7.146  0.00  0.00     0.079 C 
BRANCH   6   7
HETATM    7  C           1     -20.974  -5.039  -8.348  0.00  0.00    -0.056 A 
HETATM    8  C           1     -20.058  -4.869  -9.387  0.00  0.00     0.010 A 
HETATM    9  C           1     -20.407  -4.116 -10.508  0.00  0.00     0.037 A 
HETATM   10  C           1     -21.670  -3.531 -10.591  0.00  0.00     0.065 A 
HETATM   11  C           1     -22.586  -3.700  -9.551  0.00  0.00     0.037 A 
HETATM   12  C           1     -22.237  -4.453  -8.431  0.00  0.00     0.010 A 
BRANCH  10  13
HETATM   13  O           1     -22.009  -2.799 -11.679  0.00  0.00    -0.361 OA
HETATM   14  H           1     -21.323  -2.124 -11.812  0.00  0.00     0.217 HD
ENDBRANCH  10  13
ENDBRANCH   6   7
ENDBRANCH   1   6
BRANCH   1  15
HETATM   15  C           1     -21.734  -6.154  -4.966  0.00  0.00     0.130 C 
HETATM   16  N           1     -20.955  -6.899  -4.122  0.00  0.00    -0.359 N 
HETATM   17  H           1     -19.951  -6.774  -4.116  0.00  0.00     0.162 HD
HETATM   18  O           1     -22.932  -6.306  -4.974  0.00  0.00    -0.397 OA
BRANCH  16  19
HETATM   19  C           1     -21.569  -7.869  -3.236  0.00  0.00     0.184 C 
BRANCH  19  20
HETATM   20  C           1     -20.775  -9.169  -3.277  0.00  0.00     0.040 C 
BRANCH  20  21
HETATM   21  C           1     -19.430  -8.922  -3.948  0.00  0.00    -0.018 C 
HETATM   22  C           1     -19.323  -9.776  -5.205  0.00  0.00     0.289 C 
HETATM   23  C           1     -18.309  -9.295  -2.986  0.00  0.00     0.009 C 
ENDBRANCH  20  21
ENDBRANCH  19  20
BRANCH  19  24
HETATM   24  C           1     -21.576  -7.330  -1.827  0.00  0.00     0.196 C 
HETATM   25  O           1     -22.286  -6.343  -1.538  0.00  0.00    -0.646 OA
HETATM   26  O           1     -20.869  -7.869  -0.949  0.00  0.00    -0.646 OA
ENDBRANCH  19  24
ENDBRANCH  16  19
ENDBRANCH   1  15
TORSDOF 9
ENDMDL
MODEL 5
REMARK VINA RESULT:      -6.8      1.837      2.752
REMARK  9 active torsions:
REMARK  status: ('A' for Active; 'I' for Inactive)
REMARK    1  A    between atoms: N_3  and  C_26 
REMARK       I    between atoms: N_3  and  C_23 
REMARK    2  A    between atoms: C_4  and  C_16 
REMARK    3  A    between atoms: O_5  and  C_18 
REMARK    4  A    between atoms: C_7  and  C_13 
REMARK    5  A    between atoms: N_10  and  C_17 
REMARK    6  A    between atoms: C_13  and  C_26 
REMARK    7  A    between atoms: C_16  and  C_17 
REMARK    8  A    between atoms: C_17  and  C_23 
REMARK    9  A    between atoms: C_25  and  C_26 
ROOT
HETATM    1  C           1     -20.394  -5.170  -6.471  0.00  0.00     0.260 C 
ENDROOT
BRANCH   1   2
HETATM    2  N           1     -20.042  -6.039  -7.643  0.00  0.00    -0.067 N 
HETATM    3  H           1     -20.900  -6.525  -7.987  0.00  0.00     0.275 HD
HETATM    4  H           1     -19.646  -5.448  -8.408  0.00  0.00     0.275 HD
HETATM    5  H           1     -19.333  -6.749  -7.348  0.00  0.00     0.275 HD
ENDBRANCH   1   2
BRANCH   1   6
HETATM    6  C           1     -21.116  -3.923  -6.964  0.00  0.00     0.079 C 
BRANCH   6   7
HETATM    7  C           1     -21.411  -4.061  -8.425  0.00  0.00    -0.056 A 
HETATM    8  C           1     -22.705  -4.361  -8.850  0.00  0.00     0.010 A 
HETATM    9  C           1     -22.979  -4.489 -10.212  0.00  0.00     0.037 A 
HETATM   10  C           1     -21.959  -4.317 -11.149  0.00  0.00     0.065 A 
HETATM   11  C           1     -20.665  -4.018 -10.723  0.00  0.00     0.037 A 
HETATM   12  C           1     -20.391  -3.890  -9.361  0.00  0.00     0.010 A 
BRANCH  10  13
HETATM   13  O           1     -22.225  -4.443 -12.471  0.00  0.00    -0.361 OA
HETATM   14  H           1     -21.408  -4.718 -12.917  0.00  0.00     0.217 HD
ENDBRANCH  10  13
ENDBRANCH   6   7
ENDBRANCH   1   6
BRANCH   1  15
HETATM   15  C           1     -21.293  -5.935  -5.531  0.00  0.00     0.130 C 
HETATM   16  N           1     -20.753  -6.820  -4.637  0.00  0.00    -0.359 N 
HETATM   17  H           1     -19.751  -6.963  -4.607  0.00  0.00     0.162 HD
HETATM   18  O           1     -22.488  -5.766  -5.567  0.00  0.00    -0.397 OA
BRANCH  16  19
HETATM   19  C           1     -21.616  -7.555  -3.733  0.00  0.00     0.184 C 
BRANCH  19  20
HETATM   20  C           1     -21.105  -8.983  -3.591  0.00  0.00     0.040 C 
BRANCH  20  21
HETATM   21  C           1     -19.744  -9.106  -4.263  0.00  0.00    -0.018 C 
HETATM   22  C           1     -19.770 -10.257  -5.260  0.00  0.00     0.289 C 
HETATM   23  C           1     -18.680  -9.375  -3.207  0.00  0.00     0.009 C 
ENDBRANCH  20  21
ENDBRANCH  19  20
BRANCH  19  24
HETATM   24  C           1     -21.616  -6.885  -2.382  0.00  0.00     0.196 C 
HETATM   25  O           1     -22.249  -5.821  -2.211  0.00  0.00    -0.646 OA
HETATM   26  O           1     -20.981  -7.393  -1.433  0.00  0.00    -0.646 OA
ENDBRANCH  19  24
ENDBRANCH  16  19
ENDBRANCH   1  15
TORSDOF 9
ENDMDL
MODEL 6
REMARK VINA RESULT:      -6.5      2.150      3.639
REMARK  9 active torsions:
REMARK  status: ('A' for Active; 'I' for Inactive)
REMARK    1  A    between atoms: N_3  and  C_26 
REMARK       I    between atoms: N_3  and  C_23 
REMARK    2  A    between atoms: C_4  and  C_16 
REMARK    3  A    between atoms: O_5  and  C_18 
REMARK    4  A    between atoms: C_7  and  C_13 
REMARK    5  A    between atoms: N_10  and  C_17 
REMARK    6  A    between atoms: C_13  and  C_26 
REMARK    7  A    between atoms: C_16  and  C_17 
REMARK    8  A    between atoms: C_17  and  C_23 
REMARK    9  A    between atoms: C_25  and  C_26 
ROOT
HETATM    1  C           1     -20.206  -7.913  -5.164  0.00  0.00     0.260 C 
ENDROOT
BRANCH   1   2
HETATM    2  N           1     -21.196  -8.702  -5.969  0.00  0.00    -0.067 N 
HETATM    3  H           1     -21.732  -8.057  -6.591  0.00  0.00     0.275 HD
HETATM    4  H           1     -20.689  -9.406  -6.552  0.00  0.00     0.275 HD
HETATM    5  H           1     -21.856  -9.193  -5.324  0.00  0.00     0.275 HD
ENDBRANCH   1   2
BRANCH   1   6
HETATM    6  C           1     -20.760  -6.519  -4.904  0.00  0.00     0.079 C 
BRANCH   6   7
HETATM    7  C           1     -20.903  -5.788  -6.202  0.00  0.00    -0.056 A 
HETATM    8  C           1     -19.826  -5.720  -7.086  0.00  0.00     0.010 A 
HETATM    9  C           1     -19.959  -5.038  -8.296  0.00  0.00     0.037 A 
HETATM   10  C           1     -21.168  -4.424  -8.622  0.00  0.00     0.065 A 
HETATM   11  C           1     -22.245  -4.491  -7.737  0.00  0.00     0.037 A 
HETATM   12  C           1     -22.112  -5.173  -6.527  0.00  0.00     0.010 A 
BRANCH  10  13
HETATM   13  O           1     -21.297  -3.761  -9.796  0.00  0.00    -0.361 OA
HETATM   14  H           1     -20.623  -3.062  -9.822  0.00  0.00     0.217 HD
ENDBRANCH  10  13
ENDBRANCH   6   7
ENDBRANCH   1   6
BRANCH   1  15
HETATM   15  C           1     -19.958  -8.610  -3.849  0.00  0.00     0.130 C 
HETATM   16  N           1     -21.009  -8.904  -3.022  0.00  0.00    -0.359 N 
HETATM   17  H           1     -21.952  -8.655  -3.292  0.00  0.00     0.162 HD
HETATM   18  O           1     -18.833  -8.907  -3.525  0.00  0.00    -0.397 OA
BRANCH  16  19
HETATM   19  C           1     -20.771  -9.574  -1.758  0.00  0.00     0.184 C 
BRANCH  19  20
HETATM   20  C           1     -20.996  -8.594  -0.613  0.00  0.00     0.040 C 
BRANCH  20  21
HETATM   21  C           1     -22.377  -7.967  -0.745  0.00  0.00    -0.018 C 
HETATM   22  C           1     -22.236  -6.504  -1.145  0.00  0.00     0.289 C 
HETATM   23  C           1     -23.105  -8.059   0.590  0.00  0.00     0.009 C 
ENDBRANCH  20  21
ENDBRANCH  19  20
BRANCH  19  24
HETATM   24  C           1     -21.723 -10.737  -1.618  0.00  0.00     0.196 C 
HETATM   25  O           1     -22.532 -10.996  -2.534  0.00  0.00    -0.646 OA
HETATM   26  O           1     -21.703 -11.439  -0.584  0.00  0.00    -0.646 OA
ENDBRANCH  19  24
ENDBRANCH  16  19
ENDBRANCH   1  15
TORSDOF 9
ENDMDL
MODEL 7
REMARK VINA RESULT:      -6.5      1.955      3.160
REMARK  9 active torsions:
REMARK  status: ('A' for Active; 'I' for Inactive)
REMARK    1  A    between atoms: N_3  and  C_26 
REMARK       I    between atoms: N_3  and  C_23 
REMARK    2  A    between atoms: C_4  and  C_16 
REMARK    3  A    between atoms: O_5  and  C_18 
REMARK    4  A    between atoms: C_7  and  C_13 
REMARK    5  A    between atoms: N_10  and  C_17 
REMARK    6  A    between atoms: C_13  and  C_26 
REMARK    7  A    between atoms: C_16  and  C_17 
REMARK    8  A    between atoms: C_17  and  C_23 
REMARK    9  A    between atoms: C_25  and  C_26 
ROOT
HETATM    1  C           1     -20.950  -5.411  -6.144  0.00  0.00     0.260 C 
ENDROOT
BRANCH   1   2
HETATM    2  N           1     -20.075  -4.558  -5.274  0.00  0.00    -0.067 N 
HETATM    3  H           1     -19.861  -5.068  -4.387  0.00  0.00     0.275 HD
HETATM    4  H           1     -19.184  -4.346  -5.777  0.00  0.00     0.275 HD
HETATM    5  H           1     -20.571  -3.664  -5.052  0.00  0.00     0.275 HD
ENDBRANCH   1   2
BRANCH   1   6
HETATM    6  C           1     -20.460  -5.337  -7.584  0.00  0.00     0.079 C 
BRANCH   6   7
HETATM    7  C           1     -21.520  -4.720  -8.441  0.00  0.00    -0.056 A 
HETATM    8  C           1     -22.774  -4.433  -7.902  0.00  0.00     0.010 A 
HETATM    9  C           1     -23.762  -3.858  -8.701  0.00  0.00     0.037 A 
HETATM   10  C           1     -23.497  -3.571 -10.040  0.00  0.00     0.065 A 
HETATM   11  C           1     -22.243  -3.858 -10.580  0.00  0.00     0.037 A 
HETATM   12  C           1     -21.255  -4.433  -9.780  0.00  0.00     0.010 A 
BRANCH  10  13
HETATM   13  O           1     -24.456  -3.013 -10.817  0.00  0.00    -0.361 OA
HETATM   14  H           1     -25.209  -2.785 -10.247  0.00  0.00     0.217 HD
ENDBRANCH  10  13
ENDBRANCH   6   7
ENDBRANCH   1   6
BRANCH   1  15
HETATM   15  C           1     -20.894  -6.841  -5.666  0.00  0.00     0.130 C 
HETATM   16  N           1     -20.452  -7.123  -4.401  0.00  0.00    -0.359 N 
HETATM   17  H           1     -20.163  -6.372  -3.786  0.00  0.00     0.162 HD
HETATM   18  O           1     -21.237  -7.737  -6.399  0.00  0.00    -0.397 OA
BRANCH  16  19
HETATM   19  C           1     -20.397  -8.497  -3.941  0.00  0.00     0.184 C 
BRANCH  19  20
HETATM   20  C           1     -18.943  -8.933  -3.814  0.00  0.00     0.040 C 
BRANCH  20  21
HETATM   21  C           1     -18.655 -10.041  -4.818  0.00  0.00    -0.018 C 
HETATM   22  C           1     -17.928  -9.459  -6.024  0.00  0.00     0.289 C 
HETATM   23  C           1     -19.967 -10.668  -5.272  0.00  0.00     0.009 C 
ENDBRANCH  20  21
ENDBRANCH  19  20
BRANCH  19  24
HETATM   24  C           1     -21.073  -8.604  -2.596  0.00  0.00     0.196 C 
HETATM   25  O           1     -21.859  -7.709  -2.218  0.00  0.00    -0.646 OA
HETATM   26  O           1     -20.844  -9.587  -1.859  0.00  0.00    -0.646 OA
ENDBRANCH  19  24
ENDBRANCH  16  19
ENDBRANCH   1  15
TORSDOF 9
ENDMDL
MODEL 8
REMARK VINA RESULT:      -6.5      2.136      3.456
REMARK  9 active torsions:
REMARK  status: ('A' for Active; 'I' for Inactive)
REMARK    1  A    between atoms: N_3  and  C_26 
REMARK       I    between atoms: N_3  and  C_23 
REMARK    2  A    between atoms: C_4  and  C_16 
REMARK    3  A    between atoms: O_5  and  C_18 
REMARK    4  A    between atoms: C_7  and  C_13 
REMARK    5  A    between atoms: N_10  and  C_17 
REMARK    6  A    between atoms: C_13  and  C_26 
REMARK    7  A    between atoms: C_16  and  C_17 
REMARK    8  A    between atoms: C_17  and  C_23 
REMARK    9  A    between atoms: C_25  and  C_26 
ROOT
HETATM    1  C           1     -21.583  -6.368  -4.910  0.00  0.00     0.260 C 
ENDROOT
BRANCH   1   2
HETATM    2  N           1     -22.130  -6.085  -3.542  0.00  0.00    -0.067 N 
HETATM    3  H           1     -22.713  -5.219  -3.572  0.00  0.00     0.275 HD
HETATM    4  H           1     -22.719  -6.890  -3.230  0.00  0.00     0.275 HD
HETATM    5  H           1     -21.339  -5.951  -2.872  0.00  0.00     0.275 HD
ENDBRANCH   1   2
BRANCH   1   6
HETATM    6  C           1     -20.624  -5.255  -5.312  0.00  0.00     0.079 C 
BRANCH   6   7
HETATM    7  C           1     -20.897  -4.847  -6.726  0.00  0.00    -0.056 A 
HETATM    8  C           1     -19.853  -4.797  -7.651  0.00  0.00     0.010 A 
HETATM    9  C           1     -20.108  -4.417  -8.969  0.00  0.00     0.037 A 
HETATM   10  C           1     -21.404  -4.086  -9.362  0.00  0.00     0.065 A 
HETATM   11  C           1     -22.448  -4.135  -8.437  0.00  0.00     0.037 A 
HETATM   12  C           1     -22.193  -4.516  -7.119  0.00  0.00     0.010 A 
BRANCH  10  13
HETATM   13  O           1     -21.651  -3.716 -10.641  0.00  0.00    -0.361 OA
HETATM   14  H           1     -22.437  -3.146 -10.643  0.00  0.00     0.217 HD
ENDBRANCH  10  13
ENDBRANCH   6   7
ENDBRANCH   1   6
BRANCH   1  15
HETATM   15  C           1     -20.848  -7.685  -4.895  0.00  0.00     0.130 C 
HETATM   16  N           1     -20.395  -8.203  -3.712  0.00  0.00    -0.359 N 
HETATM   17  H           1     -20.554  -7.703  -2.846  0.00  0.00     0.162 HD
HETATM   18  O           1     -20.657  -8.282  -5.928  0.00  0.00    -0.397 OA
BRANCH  16  19
HETATM   19  C           1     -19.689  -9.469  -3.697  0.00  0.00     0.184 C 
BRANCH  19  20
HETATM   20  C           1     -18.465  -9.358  -2.797  0.00  0.00     0.040 C 
BRANCH  20  21
HETATM   21  C           1     -17.291 -10.084  -3.441  0.00  0.00    -0.018 C 
HETATM   22  C           1     -15.985  -9.539  -2.880  0.00  0.00     0.289 C 
HETATM   23  C           1     -17.326  -9.866  -4.948  0.00  0.00     0.009 C 
ENDBRANCH  20  21
ENDBRANCH  19  20
BRANCH  19  24
HETATM   24  C           1     -20.602 -10.549  -3.172  0.00  0.00     0.196 C 
HETATM   25  O           1     -20.390 -11.745  -3.465  0.00  0.00    -0.646 OA
HETATM   26  O           1     -21.572 -10.246  -2.444  0.00  0.00    -0.646 OA
ENDBRANCH  19  24
ENDBRANCH  16  19
ENDBRANCH   1  15
TORSDOF 9
ENDMDL
MODEL 9
REMARK VINA RESULT:      -6.4     12.816     14.963
REMARK  9 active torsions:
REMARK  status: ('A' for Active; 'I' for Inactive)
REMARK    1  A    between atoms: N_3  and  C_26 
REMARK       I    between atoms: N_3  and  C_23 
REMARK    2  A    between atoms: C_4  and  C_16 
REMARK    3  A    between atoms: O_5  and  C_18 
REMARK    4  A    between atoms: C_7  and  C_13 
REMARK    5  A    between atoms: N_10  and  C_17 
REMARK    6  A    between atoms: C_13  and  C_26 
REMARK    7  A    between atoms: C_16  and  C_17 
REMARK    8  A    between atoms: C_17  and  C_23 
REMARK    9  A    between atoms: C_25  and  C_26 
ROOT
HETATM    1  C           1     -26.225  -7.556 -20.474  0.00  0.00     0.260 C 
ENDROOT
BRANCH   1   2
HETATM    2  N           1     -27.071  -8.587 -21.159  0.00  0.00    -0.067 N 
HETATM    3  H           1     -28.032  -8.207 -21.310  0.00  0.00     0.275 HD
HETATM    4  H           1     -26.644  -8.831 -22.082  0.00  0.00     0.275 HD
HETATM    5  H           1     -27.125  -9.445 -20.563  0.00  0.00     0.275 HD
ENDBRANCH   1   2
BRANCH   1   6
HETATM    6  C           1     -25.330  -6.871 -21.499  0.00  0.00     0.079 C 
BRANCH   6   7
HETATM    7  C           1     -24.022  -7.594 -21.581  0.00  0.00    -0.056 A 
HETATM    8  C           1     -23.273  -7.814 -20.425  0.00  0.00     0.010 A 
HETATM    9  C           1     -22.054  -8.487 -20.502  0.00  0.00     0.037 A 
HETATM   10  C           1     -21.583  -8.940 -21.734  0.00  0.00     0.065 A 
HETATM   11  C           1     -22.332  -8.719 -22.891  0.00  0.00     0.037 A 
HETATM   12  C           1     -23.551  -8.046 -22.814  0.00  0.00     0.010 A 
BRANCH  10  13
HETATM   13  O           1     -20.399  -9.593 -21.809  0.00  0.00    -0.361 OA
HETATM   14  H           1     -20.277  -9.891 -22.726  0.00  0.00     0.217 HD
ENDBRANCH  10  13
ENDBRANCH   6   7
ENDBRANCH   1   6
BRANCH   1  15
HETATM   15  C           1     -27.116  -6.529 -19.818  0.00  0.00     0.130 C 
HETATM   16  N           1     -27.472  -6.672 -18.504  0.00  0.00    -0.359 N 
HETATM   17  H           1     -27.137  -7.465 -17.972  0.00  0.00     0.162 HD
HETATM   18  O           1     -27.517  -5.583 -20.454  0.00  0.00    -0.397 OA
BRANCH  16  19
HETATM   19  C           1     -28.329  -5.685 -17.874  0.00  0.00     0.184 C 
BRANCH  19  20
HETATM   20  C           1     -29.432  -6.393 -17.097  0.00  0.00     0.040 C 
BRANCH  20  21
HETATM   21  C           1     -30.786  -5.836 -17.515  0.00  0.00    -0.018 C 
HETATM   22  C           1     -31.259  -4.820 -16.484  0.00  0.00     0.289 C 
HETATM   23  C           1     -31.796  -6.973 -17.605  0.00  0.00     0.009 C 
ENDBRANCH  20  21
ENDBRANCH  19  20
BRANCH  19  24
HETATM   24  C           1     -27.511  -4.841 -16.929  0.00  0.00     0.196 C 
HETATM   25  O           1     -26.422  -5.268 -16.490  0.00  0.00    -0.646 OA
HETATM   26  O           1     -27.925  -3.713 -16.582  0.00  0.00    -0.646 OA
ENDBRANCH  19  24
ENDBRANCH  16  19
ENDBRANCH   1  15
TORSDOF 9
ENDMDL
