MODEL 1
REMARK VINA RESULT:      -8.6      0.000      0.000
REMARK  18 active torsions:
REMARK  status: ('A' for Active; 'I' for Inactive)
REMARK       I    between atoms: N_1  and  C_41 
REMARK    1  A    between atoms: N_2  and  C_23 
REMARK    2  A    between atoms: C_6  and  O_7 
REMARK    3  A    between atoms: O_7  and  P_8 
REMARK    4  A    between atoms: P_8  and  O_10 
REMARK    5  A    between atoms: N_14  and  C_35 
REMARK    6  A    between atoms: N_14  and  C_15 
REMARK    7  A    between atoms: C_15  and  C_16 
REMARK    8  A    between atoms: C_16  and  C_17 
REMARK    9  A    between atoms: C_17  and  C_18 
REMARK   10  A    between atoms: C_17  and  N_21 
REMARK       I    between atoms: N_21  and  C_22 
REMARK   11  A    between atoms: C_22  and  C_23 
REMARK   12  A    between atoms: C_23  and  C_30 
REMARK   13  A    between atoms: C_26  and  C_30 
REMARK   14  A    between atoms: C_26  and  C_27 
REMARK   15  A    between atoms: C_27  and  N_40 
REMARK   16  A    between atoms: C_33  and  C_35 
REMARK   17  A    between atoms: C_35  and  C_36 
REMARK   18  A    between atoms: C_36  and  C_37 
REMARK       I    between atoms: N_40  and  C_41 
ROOT
HETATM    1  C           1     -35.351  -0.934 -15.912  0.00  0.00     0.187 C 
ENDROOT
BRANCH   1   2
HETATM    2  C           1     -35.121  -2.164 -16.781  0.00  0.00     0.066 C 
BRANCH   2   3
HETATM    3  C           1     -33.900  -2.921 -16.277  0.00  0.00     0.273 C 
BRANCH   3   4
HETATM    4  N           1     -33.172  -3.459 -17.394  0.00  0.00     0.098 N 
HETATM    5  H           1     -32.987  -2.715 -18.068  0.00  0.00     0.317 HD
BRANCH   4   6
HETATM    6  C           1     -31.928  -3.978 -16.898  0.00  0.00     0.324 C 
BRANCH   6   7
HETATM    7  C           1     -30.783  -3.336 -17.642  0.00  0.00     0.207 C 
HETATM    8  O           1     -30.325  -3.877 -18.671  0.00  0.00    -0.646 OA
HETATM    9  O           1     -30.291  -2.264 -17.228  0.00  0.00    -0.646 OA
ENDBRANCH   6   7
BRANCH   6  10
HETATM   10  C           1     -31.888  -5.486 -17.106  0.00  0.00     0.085 C 
BRANCH  10  11
HETATM   11  C           1     -30.561  -6.018 -16.660  0.00  0.00    -0.055 A 
HETATM   12  C           1     -29.986  -7.100 -17.325  0.00  0.00     0.010 A 
HETATM   13  C           1     -28.749  -7.596 -16.911  0.00  0.00     0.038 A 
HETATM   14  C           1     -28.089  -7.008 -15.833  0.00  0.00     0.081 A 
HETATM   15  C           1     -28.664  -5.925 -15.168  0.00  0.00     0.038 A 
HETATM   16  C           1     -29.900  -5.429 -15.582  0.00  0.00     0.010 A 
BRANCH  14  17
HETATM   17  O           1     -26.887  -7.490 -15.430  0.00  0.00    -0.247 OA
BRANCH  17  18
HETATM   18  P           1     -25.560  -6.898 -16.134  0.00  0.00     0.411 P 
HETATM   19  O           1     -24.974  -5.843 -15.277  0.00  0.00    -0.624 OA
HETATM   20  O           1     -25.915  -6.321 -17.451  0.00  0.00    -0.624 OA
BRANCH  18  21
HETATM   21  O           1     -24.483  -8.085 -16.337  0.00  0.00    -0.300 OA
HETATM   22  H           1     -24.128  -7.947 -17.199  0.00  0.00     0.223 HD
ENDBRANCH  18  21
ENDBRANCH  17  18
ENDBRANCH  14  17
ENDBRANCH  10  11
ENDBRANCH   6  10
ENDBRANCH   4   6
ENDBRANCH   3   4
ENDBRANCH   2   3
ENDBRANCH   1   2
BRANCH   1  23
HETATM   23  C           1     -36.729  -0.381 -16.177  0.00  0.00     0.196 C 
HETATM   24  O           1     -37.678  -1.158 -16.421  0.00  0.00    -0.646 OA
HETATM   25  O           1     -36.923   0.853 -16.151  0.00  0.00    -0.646 OA
ENDBRANCH   1  23
BRANCH   1  26
HETATM   26  N           1     -35.239  -1.303 -14.514  0.00  0.00    -0.345 N 
HETATM   27  C           1     -34.843  -0.374 -13.590  0.00  0.00     0.249 C 
HETATM   28  O           1     -34.586   0.753 -13.939  0.00  0.00    -0.271 OA
HETATM   29  H           1     -35.455  -2.248 -14.221  0.00  0.00     0.163 HD
BRANCH  27  30
HETATM   30  C           1     -34.727  -0.758 -12.136  0.00  0.00     0.274 C 
BRANCH  30  31
HETATM   31  N           1     -35.869  -0.161 -11.368  0.00  0.00    -0.067 N 
HETATM   32  H           1     -36.114   0.769 -11.775  0.00  0.00     0.275 HD
HETATM   33  H           1     -36.697  -0.796 -11.426  0.00  0.00     0.275 HD
HETATM   34  H           1     -35.590  -0.041 -10.367  0.00  0.00     0.275 HD
ENDBRANCH  30  31
BRANCH  30  35
HETATM   35  C           1     -34.767  -2.275 -12.007  0.00  0.00     0.044 C 
BRANCH  35  36
HETATM   36  C           1     -33.571  -2.749 -11.193  0.00  0.00     0.023 C 
BRANCH  36  37
HETATM   37  C           1     -33.048  -4.058 -11.770  0.00  0.00     0.138 C 
BRANCH  37  38
HETATM   38  N           1     -33.447  -5.173 -10.898  0.00  0.00    -0.227 N 
HETATM   39  H           1     -33.055  -5.246  -9.927  0.00  0.00     0.177 HD
HETATM   40  C           1     -34.266  -6.042 -11.318  0.00  0.00     0.665 C 
HETATM   41  N           1     -34.752  -5.951 -12.521  0.00  0.00    -0.235 N 
HETATM   42  N           1     -34.610  -7.002 -10.568  0.00  0.00    -0.235 N 
HETATM   43  H           1     -35.427  -6.669 -12.867  0.00  0.00     0.174 HD
HETATM   44  H           1     -34.468  -5.159 -13.140  0.00  0.00     0.174 HD
HETATM   45  H           1     -35.289  -7.723 -10.916  0.00  0.00     0.174 HD
HETATM   46  H           1     -34.217  -7.075  -9.596  0.00  0.00     0.174 HD
ENDBRANCH  37  38
ENDBRANCH  36  37
ENDBRANCH  35  36
ENDBRANCH  30  35
ENDBRANCH  27  30
ENDBRANCH   1  26
TORSDOF 18
ENDMDL
MODEL 2
REMARK VINA RESULT:      -8.2     14.253     17.723
REMARK  18 active torsions:
REMARK  status: ('A' for Active; 'I' for Inactive)
REMARK       I    between atoms: N_1  and  C_41 
REMARK    1  A    between atoms: N_2  and  C_23 
REMARK    2  A    between atoms: C_6  and  O_7 
REMARK    3  A    between atoms: O_7  and  P_8 
REMARK    4  A    between atoms: P_8  and  O_10 
REMARK    5  A    between atoms: N_14  and  C_35 
REMARK    6  A    between atoms: N_14  and  C_15 
REMARK    7  A    between atoms: C_15  and  C_16 
REMARK    8  A    between atoms: C_16  and  C_17 
REMARK    9  A    between atoms: C_17  and  C_18 
REMARK   10  A    between atoms: C_17  and  N_21 
REMARK       I    between atoms: N_21  and  C_22 
REMARK   11  A    between atoms: C_22  and  C_23 
REMARK   12  A    between atoms: C_23  and  C_30 
REMARK   13  A    between atoms: C_26  and  C_30 
REMARK   14  A    between atoms: C_26  and  C_27 
REMARK   15  A    between atoms: C_27  and  N_40 
REMARK   16  A    between atoms: C_33  and  C_35 
REMARK   17  A    between atoms: C_35  and  C_36 
REMARK   18  A    between atoms: C_36  and  C_37 
REMARK       I    between atoms: N_40  and  C_41 
ROOT
HETATM    1  C           1     -20.618  -9.469  -4.755  0.00  0.00     0.187 C 
ENDROOT
BRANCH   1   2
HETATM    2  C           1     -20.693  -9.633  -3.242  0.00  0.00     0.066 C 
BRANCH   2   3
HETATM    3  C           1     -19.418  -9.091  -2.609  0.00  0.00     0.273 C 
BRANCH   3   4
HETATM    4  N           1     -19.754  -8.092  -1.632  0.00  0.00     0.098 N 
HETATM    5  H           1     -19.499  -7.170  -1.988  0.00  0.00     0.317 HD
BRANCH   4   6
HETATM    6  C           1     -21.174  -8.147  -1.419  0.00  0.00     0.324 C 
BRANCH   6   7
HETATM    7  C           1     -21.787  -6.813  -1.764  0.00  0.00     0.207 C 
HETATM    8  O           1     -22.756  -6.380  -1.103  0.00  0.00    -0.646 OA
HETATM    9  O           1     -21.327  -6.140  -2.712  0.00  0.00    -0.646 OA
ENDBRANCH   6   7
BRANCH   6  10
HETATM   10  C           1     -21.455  -8.473   0.042  0.00  0.00     0.085 C 
BRANCH  10  11
HETATM   11  C           1     -22.075  -9.833   0.141  0.00  0.00    -0.055 A 
HETATM   12  C           1     -23.421 -10.010  -0.178  0.00  0.00     0.010 A 
HETATM   13  C           1     -23.999 -11.277  -0.087  0.00  0.00     0.038 A 
HETATM   14  C           1     -23.230 -12.365   0.324  0.00  0.00     0.081 A 
HETATM   15  C           1     -21.883 -12.188   0.641  0.00  0.00     0.038 A 
HETATM   16  C           1     -21.305 -10.922   0.550  0.00  0.00     0.010 A 
BRANCH  14  17
HETATM   17  O           1     -23.791 -13.596   0.412  0.00  0.00    -0.247 OA
BRANCH  17  18
HETATM   18  P           1     -23.574 -14.618  -0.819  0.00  0.00     0.411 P 
HETATM   19  O           1     -24.816 -15.389  -1.046  0.00  0.00    -0.624 OA
HETATM   20  O           1     -22.468 -15.549  -0.499  0.00  0.00    -0.624 OA
BRANCH  18  21
HETATM   21  O           1     -23.208 -13.783  -2.153  0.00  0.00    -0.300 OA
HETATM   22  H           1     -22.960 -12.928  -1.845  0.00  0.00     0.223 HD
ENDBRANCH  18  21
ENDBRANCH  17  18
ENDBRANCH  14  17
ENDBRANCH  10  11
ENDBRANCH   6  10
ENDBRANCH   4   6
ENDBRANCH   3   4
ENDBRANCH   2   3
ENDBRANCH   1   2
BRANCH   1  23
HETATM   23  C           1     -21.171 -10.703  -5.423  0.00  0.00     0.196 C 
HETATM   24  O           1     -20.866 -10.962  -6.608  0.00  0.00    -0.646 OA
HETATM   25  O           1     -21.933 -11.467  -4.793  0.00  0.00    -0.646 OA
ENDBRANCH   1  23
BRANCH   1  26
HETATM   26  N           1     -21.397  -8.313  -5.155  0.00  0.00    -0.345 N 
HETATM   27  C           1     -20.807  -7.301  -5.864  0.00  0.00     0.249 C 
HETATM   28  O           1     -19.638  -7.371  -6.156  0.00  0.00    -0.271 OA
HETATM   29  H           1     -22.378  -8.254  -4.910  0.00  0.00     0.163 HD
BRANCH  27  30
HETATM   30  C           1     -21.619  -6.099  -6.279  0.00  0.00     0.274 C 
BRANCH  30  31
HETATM   31  N           1     -22.676  -5.829  -5.250  0.00  0.00    -0.067 N 
HETATM   32  H           1     -22.674  -6.595  -4.539  0.00  0.00     0.275 HD
HETATM   33  H           1     -22.479  -4.917  -4.780  0.00  0.00     0.275 HD
HETATM   34  H           1     -23.612  -5.788  -5.715  0.00  0.00     0.275 HD
ENDBRANCH  30  31
BRANCH  30  35
HETATM   35  C           1     -20.705  -4.886  -6.398  0.00  0.00     0.044 C 
BRANCH  35  36
HETATM   36  C           1     -21.458  -3.746  -7.070  0.00  0.00     0.023 C 
BRANCH  36  37
HETATM   37  C           1     -22.048  -4.232  -8.388  0.00  0.00     0.138 C 
BRANCH  37  38
HETATM   38  N           1     -23.417  -3.715  -8.532  0.00  0.00    -0.227 N 
HETATM   39  H           1     -23.794  -3.026  -7.837  0.00  0.00     0.177 HD
HETATM   40  C           1     -24.140  -4.101  -9.497  0.00  0.00     0.665 C 
HETATM   41  N           1     -23.672  -4.955 -10.360  0.00  0.00    -0.235 N 
HETATM   42  N           1     -25.319  -3.657  -9.622  0.00  0.00    -0.235 N 
HETATM   43  H           1     -24.270  -5.273 -11.155  0.00  0.00     0.174 HD
HETATM   44  H           1     -22.700  -5.322 -10.256  0.00  0.00     0.174 HD
HETATM   45  H           1     -25.919  -3.977 -10.422  0.00  0.00     0.174 HD
HETATM   46  H           1     -25.696  -2.967  -8.926  0.00  0.00     0.174 HD
ENDBRANCH  37  38
ENDBRANCH  36  37
ENDBRANCH  35  36
ENDBRANCH  30  35
ENDBRANCH  27  30
ENDBRANCH   1  26
TORSDOF 18
ENDMDL
MODEL 3
REMARK VINA RESULT:      -8.0     13.529     16.924
REMARK  18 active torsions:
REMARK  status: ('A' for Active; 'I' for Inactive)
REMARK       I    between atoms: N_1  and  C_41 
REMARK    1  A    between atoms: N_2  and  C_23 
REMARK    2  A    between atoms: C_6  and  O_7 
REMARK    3  A    between atoms: O_7  and  P_8 
REMARK    4  A    between atoms: P_8  and  O_10 
REMARK    5  A    between atoms: N_14  and  C_35 
REMARK    6  A    between atoms: N_14  and  C_15 
REMARK    7  A    between atoms: C_15  and  C_16 
REMARK    8  A    between atoms: C_16  and  C_17 
REMARK    9  A    between atoms: C_17  and  C_18 
REMARK   10  A    between atoms: C_17  and  N_21 
REMARK       I    between atoms: N_21  and  C_22 
REMARK   11  A    between atoms: C_22  and  C_23 
REMARK   12  A    between atoms: C_23  and  C_30 
REMARK   13  A    between atoms: C_26  and  C_30 
REMARK   14  A    between atoms: C_26  and  C_27 
REMARK   15  A    between atoms: C_27  and  N_40 
REMARK   16  A    between atoms: C_33  and  C_35 
REMARK   17  A    between atoms: C_35  and  C_36 
REMARK   18  A    between atoms: C_36  and  C_37 
REMARK       I    between atoms: N_40  and  C_41 
ROOT
HETATM    1  C           1     -21.487  -8.055  -1.181  0.00  0.00     0.187 C 
ENDROOT
BRANCH   1   2
HETATM    2  C           1     -21.837  -6.604  -1.486  0.00  0.00     0.066 C 
BRANCH   2   3
HETATM    3  C           1     -22.082  -6.443  -2.981  0.00  0.00     0.273 C 
BRANCH   3   4
HETATM    4  N           1     -20.950  -5.796  -3.586  0.00  0.00     0.098 N 
HETATM    5  H           1     -20.091  -6.242  -3.262  0.00  0.00     0.317 HD
BRANCH   4   6
HETATM    6  C           1     -21.064  -5.955  -5.010  0.00  0.00     0.324 C 
BRANCH   6   7
HETATM    7  C           1     -20.655  -7.355  -5.395  0.00  0.00     0.207 C 
HETATM    8  O           1     -21.403  -8.048  -6.117  0.00  0.00    -0.646 OA
HETATM    9  O           1     -19.568  -7.822  -4.990  0.00  0.00    -0.646 OA
ENDBRANCH   6   7
BRANCH   6  10
HETATM   10  C           1     -20.156  -4.950  -5.706  0.00  0.00     0.085 C 
BRANCH  10  11
HETATM   11  C           1     -20.726  -4.606  -7.048  0.00  0.00    -0.055 A 
HETATM   12  C           1     -22.026  -4.112  -7.147  0.00  0.00     0.010 A 
HETATM   13  C           1     -22.558  -3.791  -8.396  0.00  0.00     0.038 A 
HETATM   14  C           1     -21.788  -3.965  -9.546  0.00  0.00     0.081 A 
HETATM   15  C           1     -20.486  -4.458  -9.447  0.00  0.00     0.038 A 
HETATM   16  C           1     -19.955  -4.779  -8.198  0.00  0.00     0.010 A 
BRANCH  14  17
HETATM   17  O           1     -22.304  -3.653 -10.760  0.00  0.00    -0.247 OA
BRANCH  17  18
HETATM   18  P           1     -23.710  -4.327 -11.181  0.00  0.00     0.411 P 
HETATM   19  O           1     -23.941  -5.540 -10.365  0.00  0.00    -0.624 OA
HETATM   20  O           1     -23.669  -4.698 -12.613  0.00  0.00    -0.624 OA
BRANCH  18  21
HETATM   21  O           1     -24.908  -3.273 -10.929  0.00  0.00    -0.300 OA
HETATM   22  H           1     -24.824  -3.022 -10.025  0.00  0.00     0.223 HD
ENDBRANCH  18  21
ENDBRANCH  17  18
ENDBRANCH  14  17
ENDBRANCH  10  11
ENDBRANCH   6  10
ENDBRANCH   4   6
ENDBRANCH   3   4
ENDBRANCH   2   3
ENDBRANCH   1   2
BRANCH   1  23
HETATM   23  C           1     -22.154  -8.474   0.106  0.00  0.00     0.196 C 
HETATM   24  O           1     -22.902  -9.476   0.125  0.00  0.00    -0.646 OA
HETATM   25  O           1     -21.957  -7.820   1.152  0.00  0.00    -0.646 OA
ENDBRANCH   1  23
BRANCH   1  26
HETATM   26  N           1     -21.952  -8.902  -2.263  0.00  0.00    -0.345 N 
HETATM   27  C           1     -21.145  -9.894  -2.752  0.00  0.00     0.249 C 
HETATM   28  O           1     -20.046 -10.064  -2.282  0.00  0.00    -0.271 OA
HETATM   29  H           1     -22.874  -8.759  -2.657  0.00  0.00     0.163 HD
BRANCH  27  30
HETATM   30  C           1     -21.629 -10.774  -3.877  0.00  0.00     0.274 C 
BRANCH  30  31
HETATM   31  N           1     -20.609 -10.786  -4.977  0.00  0.00    -0.067 N 
HETATM   32  H           1     -20.133  -9.857  -5.021  0.00  0.00     0.275 HD
HETATM   33  H           1     -19.902 -11.532  -4.787  0.00  0.00     0.275 HD
HETATM   34  H           1     -21.083 -10.978  -5.889  0.00  0.00     0.275 HD
ENDBRANCH  30  31
BRANCH  30  35
HETATM   35  C           1     -21.835 -12.191  -3.360  0.00  0.00     0.044 C 
BRANCH  35  36
HETATM   36  C           1     -22.868 -12.180  -2.242  0.00  0.00     0.023 C 
BRANCH  36  37
HETATM   37  C           1     -22.325 -12.941  -1.039  0.00  0.00     0.138 C 
BRANCH  37  38
HETATM   38  N           1     -21.402 -12.078  -0.288  0.00  0.00    -0.227 N 
HETATM   39  H           1     -21.752 -11.191   0.151  0.00  0.00     0.177 HD
HETATM   40  C           1     -20.185 -12.405  -0.169  0.00  0.00     0.665 C 
HETATM   41  N           1     -19.751 -13.505  -0.712  0.00  0.00    -0.235 N 
HETATM   42  N           1     -19.390 -11.663   0.478  0.00  0.00    -0.235 N 
HETATM   43  H           1     -18.747 -13.774  -0.614  0.00  0.00     0.174 HD
HETATM   44  H           1     -20.407 -14.117  -1.246  0.00  0.00     0.174 HD
HETATM   45  H           1     -18.380 -11.934   0.576  0.00  0.00     0.174 HD
HETATM   46  H           1     -19.741 -10.775   0.917  0.00  0.00     0.174 HD
ENDBRANCH  37  38
ENDBRANCH  36  37
ENDBRANCH  35  36
ENDBRANCH  30  35
ENDBRANCH  27  30
ENDBRANCH   1  26
TORSDOF 18
ENDMDL
MODEL 4
REMARK VINA RESULT:      -7.9     13.321     16.837
REMARK  18 active torsions:
REMARK  status: ('A' for Active; 'I' for Inactive)
REMARK       I    between atoms: N_1  and  C_41 
REMARK    1  A    between atoms: N_2  and  C_23 
REMARK    2  A    between atoms: C_6  and  O_7 
REMARK    3  A    between atoms: O_7  and  P_8 
REMARK    4  A    between atoms: P_8  and  O_10 
REMARK    5  A    between atoms: N_14  and  C_35 
REMARK    6  A    between atoms: N_14  and  C_15 
REMARK    7  A    between atoms: C_15  and  C_16 
REMARK    8  A    between atoms: C_16  and  C_17 
REMARK    9  A    between atoms: C_17  and  C_18 
REMARK   10  A    between atoms: C_17  and  N_21 
REMARK       I    between atoms: N_21  and  C_22 
REMARK   11  A    between atoms: C_22  and  C_23 
REMARK   12  A    between atoms: C_23  and  C_30 
REMARK   13  A    between atoms: C_26  and  C_30 
REMARK   14  A    between atoms: C_26  and  C_27 
REMARK   15  A    between atoms: C_27  and  N_40 
REMARK   16  A    between atoms: C_33  and  C_35 
REMARK   17  A    between atoms: C_35  and  C_36 
REMARK   18  A    between atoms: C_36  and  C_37 
REMARK       I    between atoms: N_40  and  C_41 
ROOT
HETATM    1  C           1     -19.907  -9.631  -3.887  0.00  0.00     0.187 C 
ENDROOT
BRANCH   1   2
HETATM    2  C           1     -19.588  -8.623  -4.985  0.00  0.00     0.066 C 
BRANCH   2   3
HETATM    3  C           1     -20.820  -8.413  -5.855  0.00  0.00     0.273 C 
BRANCH   3   4
HETATM    4  N           1     -20.885  -7.039  -6.272  0.00  0.00     0.098 N 
HETATM    5  H           1     -21.835  -6.820  -6.572  0.00  0.00     0.317 HD
BRANCH   4   6
HETATM    6  C           1     -20.539  -6.221  -5.142  0.00  0.00     0.324 C 
BRANCH   6   7
HETATM    7  C           1     -21.754  -6.030  -4.268  0.00  0.00     0.207 C 
HETATM    8  O           1     -21.617  -5.704  -3.069  0.00  0.00    -0.646 OA
HETATM    9  O           1     -22.898  -6.197  -4.744  0.00  0.00    -0.646 OA
ENDBRANCH   6   7
BRANCH   6  10
HETATM   10  C           1     -20.044  -4.866  -5.629  0.00  0.00     0.085 C 
BRANCH  10  11
HETATM   11  C           1     -20.619  -4.580  -6.982  0.00  0.00    -0.055 A 
HETATM   12  C           1     -21.864  -3.962  -7.094  0.00  0.00     0.010 A 
HETATM   13  C           1     -22.400  -3.695  -8.354  0.00  0.00     0.038 A 
HETATM   14  C           1     -21.689  -4.047  -9.502  0.00  0.00     0.081 A 
HETATM   15  C           1     -20.443  -4.664  -9.390  0.00  0.00     0.038 A 
HETATM   16  C           1     -19.908  -4.931  -8.130  0.00  0.00     0.010 A 
BRANCH  14  17
HETATM   17  O           1     -22.209  -3.788 -10.726  0.00  0.00    -0.247 OA
BRANCH  17  18
HETATM   18  P           1     -23.658  -4.406 -11.080  0.00  0.00     0.411 P 
HETATM   19  O           1     -24.699  -3.374 -10.878  0.00  0.00    -0.624 OA
HETATM   20  O           1     -23.931  -5.561 -10.195  0.00  0.00    -0.624 OA
BRANCH  18  21
HETATM   21  O           1     -23.675  -4.891 -12.621  0.00  0.00    -0.300 OA
HETATM   22  H           1     -24.538  -4.678 -12.934  0.00  0.00     0.223 HD
ENDBRANCH  18  21
ENDBRANCH  17  18
ENDBRANCH  14  17
ENDBRANCH  10  11
ENDBRANCH   6  10
ENDBRANCH   4   6
ENDBRANCH   3   4
ENDBRANCH   2   3
ENDBRANCH   1   2
BRANCH   1  23
HETATM   23  C           1     -18.804 -10.658  -3.812  0.00  0.00     0.196 C 
HETATM   24  O           1     -18.981 -11.719  -3.173  0.00  0.00    -0.646 OA
HETATM   25  O           1     -17.715 -10.449  -4.388  0.00  0.00    -0.646 OA
ENDBRANCH   1  23
BRANCH   1  26
HETATM   26  N           1     -20.013  -8.943  -2.615  0.00  0.00    -0.345 N 
HETATM   27  C           1     -21.200  -8.944  -1.933  0.00  0.00     0.249 C 
HETATM   28  O           1     -22.158  -9.519  -2.391  0.00  0.00    -0.271 OA
HETATM   29  H           1     -19.210  -8.461  -2.232  0.00  0.00     0.163 HD
BRANCH  27  30
HETATM   30  C           1     -21.310  -8.228  -0.610  0.00  0.00     0.274 C 
BRANCH  30  31
HETATM   31  N           1     -22.292  -7.101  -0.732  0.00  0.00    -0.067 N 
HETATM   32  H           1     -22.746  -6.932   0.194  0.00  0.00     0.275 HD
HETATM   33  H           1     -21.793  -6.236  -1.039  0.00  0.00     0.275 HD
HETATM   34  H           1     -23.023  -7.351  -1.437  0.00  0.00     0.275 HD
ENDBRANCH  30  31
BRANCH  30  35
HETATM   35  C           1     -21.788  -9.204   0.457  0.00  0.00     0.044 C 
BRANCH  35  36
HETATM   36  C           1     -20.737 -10.285   0.665  0.00  0.00     0.023 C 
BRANCH  36  37
HETATM   37  C           1     -21.388 -11.658   0.553  0.00  0.00     0.138 C 
BRANCH  37  38
HETATM   38  N           1     -21.049 -12.257  -0.746  0.00  0.00    -0.227 N 
HETATM   39  H           1     -20.045 -12.428  -0.999  0.00  0.00     0.177 HD
HETATM   40  C           1     -21.968 -12.569  -1.558  0.00  0.00     0.665 C 
HETATM   41  N           1     -23.213 -12.358  -1.244  0.00  0.00    -0.235 N 
HETATM   42  N           1     -21.677 -13.086  -2.677  0.00  0.00    -0.235 N 
HETATM   43  H           1     -23.971 -12.615  -1.915  0.00  0.00     0.174 HD
HETATM   44  H           1     -23.453 -11.932  -0.321  0.00  0.00     0.174 HD
HETATM   45  H           1     -22.439 -13.344  -3.351  0.00  0.00     0.174 HD
HETATM   46  H           1     -20.672 -13.257  -2.929  0.00  0.00     0.174 HD
ENDBRANCH  37  38
ENDBRANCH  36  37
ENDBRANCH  35  36
ENDBRANCH  30  35
ENDBRANCH  27  30
ENDBRANCH   1  26
TORSDOF 18
ENDMDL
MODEL 5
REMARK VINA RESULT:      -7.8     13.779     17.409
REMARK  18 active torsions:
REMARK  status: ('A' for Active; 'I' for Inactive)
REMARK       I    between atoms: N_1  and  C_41 
REMARK    1  A    between atoms: N_2  and  C_23 
REMARK    2  A    between atoms: C_6  and  O_7 
REMARK    3  A    between atoms: O_7  and  P_8 
REMARK    4  A    between atoms: P_8  and  O_10 
REMARK    5  A    between atoms: N_14  and  C_35 
REMARK    6  A    between atoms: N_14  and  C_15 
REMARK    7  A    between atoms: C_15  and  C_16 
REMARK    8  A    between atoms: C_16  and  C_17 
REMARK    9  A    between atoms: C_17  and  C_18 
REMARK   10  A    between atoms: C_17  and  N_21 
REMARK       I    between atoms: N_21  and  C_22 
REMARK   11  A    between atoms: C_22  and  C_23 
REMARK   12  A    between atoms: C_23  and  C_30 
REMARK   13  A    between atoms: C_26  and  C_30 
REMARK   14  A    between atoms: C_26  and  C_27 
REMARK   15  A    between atoms: C_27  and  N_40 
REMARK   16  A    between atoms: C_33  and  C_35 
REMARK   17  A    between atoms: C_35  and  C_36 
REMARK   18  A    between atoms: C_36  and  C_37 
REMARK       I    between atoms: N_40  and  C_41 
ROOT
HETATM    1  C           1     -21.164  -8.087  -1.043  0.00  0.00     0.187 C 
ENDROOT
BRANCH   1   2
HETATM    2  C           1     -21.963  -6.841  -1.402  0.00  0.00     0.066 C 
BRANCH   2   3
HETATM    3  C           1     -22.123  -6.757  -2.914  0.00  0.00     0.273 C 
BRANCH   3   4
HETATM    4  N           1     -21.049  -5.979  -3.469  0.00  0.00     0.098 N 
HETATM    5  H           1     -20.156  -6.368  -3.165  0.00  0.00     0.317 HD
BRANCH   4   6
HETATM    6  C           1     -21.145  -6.060  -4.900  0.00  0.00     0.324 C 
BRANCH   6   7
HETATM    7  C           1     -20.666  -7.414  -5.361  0.00  0.00     0.207 C 
HETATM    8  O           1     -19.542  -7.833  -5.009  0.00  0.00    -0.646 OA
HETATM    9  O           1     -21.393  -8.117  -6.096  0.00  0.00    -0.646 OA
ENDBRANCH   6   7
BRANCH   6  10
HETATM   10  C           1     -20.281  -4.974  -5.528  0.00  0.00     0.085 C 
BRANCH  10  11
HETATM   11  C           1     -20.809  -4.638  -6.889  0.00  0.00    -0.055 A 
HETATM   12  C           1     -22.127  -4.208  -7.038  0.00  0.00     0.010 A 
HETATM   13  C           1     -22.620  -3.894  -8.305  0.00  0.00     0.038 A 
HETATM   14  C           1     -21.792  -4.011  -9.422  0.00  0.00     0.081 A 
HETATM   15  C           1     -20.473  -4.440  -9.272  0.00  0.00     0.038 A 
HETATM   16  C           1     -19.982  -4.754  -8.006  0.00  0.00     0.010 A 
BRANCH  14  17
HETATM   17  O           1     -22.271  -3.706 -10.653  0.00  0.00    -0.247 OA
BRANCH  17  18
HETATM   18  P           1     -23.692  -4.335 -11.090  0.00  0.00     0.411 P 
HETATM   19  O           1     -23.947  -5.568 -10.313  0.00  0.00    -0.624 OA
HETATM   20  O           1     -23.665  -4.660 -12.534  0.00  0.00    -0.624 OA
BRANCH  18  21
HETATM   21  O           1     -24.867  -3.264 -10.799  0.00  0.00    -0.300 OA
HETATM   22  H           1     -24.439  -2.424 -10.815  0.00  0.00     0.223 HD
ENDBRANCH  18  21
ENDBRANCH  17  18
ENDBRANCH  14  17
ENDBRANCH  10  11
ENDBRANCH   6  10
ENDBRANCH   4   6
ENDBRANCH   3   4
ENDBRANCH   2   3
ENDBRANCH   1   2
BRANCH   1  23
HETATM   23  C           1     -21.484  -8.500   0.372  0.00  0.00     0.196 C 
HETATM   24  O           1     -22.178  -7.755   1.099  0.00  0.00    -0.646 OA
HETATM   25  O           1     -21.057  -9.587   0.818  0.00  0.00    -0.646 OA
ENDBRANCH   1  23
BRANCH   1  26
HETATM   26  N           1     -21.514  -9.163  -1.951  0.00  0.00    -0.345 N 
HETATM   27  C           1     -20.530  -9.925  -2.521  0.00  0.00     0.249 C 
HETATM   28  O           1     -19.371  -9.701  -2.268  0.00  0.00    -0.271 OA
HETATM   29  H           1     -22.486  -9.350  -2.163  0.00  0.00     0.163 HD
BRANCH  27  30
HETATM   30  C           1     -20.895 -11.043  -3.465  0.00  0.00     0.274 C 
BRANCH  30  31
HETATM   31  N           1     -20.404 -10.714  -4.844  0.00  0.00    -0.067 N 
HETATM   32  H           1     -19.366 -10.824  -4.880  0.00  0.00     0.275 HD
HETATM   33  H           1     -20.847 -11.361  -5.535  0.00  0.00     0.275 HD
HETATM   34  H           1     -20.658  -9.727  -5.077  0.00  0.00     0.275 HD
ENDBRANCH  30  31
BRANCH  30  35
HETATM   35  C           1     -20.248 -12.338  -2.992  0.00  0.00     0.044 C 
BRANCH  35  36
HETATM   36  C           1     -19.167 -12.758  -3.979  0.00  0.00     0.023 C 
BRANCH  36  37
HETATM   37  C           1     -17.810 -12.740  -3.286  0.00  0.00     0.138 C 
BRANCH  37  38
HETATM   38  N           1     -17.241 -11.386  -3.357  0.00  0.00    -0.227 N 
HETATM   39  H           1     -17.568 -10.643  -2.691  0.00  0.00     0.177 HD
HETATM   40  C           1     -16.355 -11.116  -4.220  0.00  0.00     0.665 C 
HETATM   41  N           1     -15.949 -12.036  -5.045  0.00  0.00    -0.235 N 
HETATM   42  N           1     -15.864  -9.951  -4.281  0.00  0.00    -0.235 N 
HETATM   43  H           1     -15.218 -11.813  -5.757  0.00  0.00     0.174 HD
HETATM   44  H           1     -16.354 -12.998  -4.994  0.00  0.00     0.174 HD
HETATM   45  H           1     -15.130  -9.727  -4.997  0.00  0.00     0.174 HD
HETATM   46  H           1     -16.192  -9.208  -3.615  0.00  0.00     0.174 HD
ENDBRANCH  37  38
ENDBRANCH  36  37
ENDBRANCH  35  36
ENDBRANCH  30  35
ENDBRANCH  27  30
ENDBRANCH   1  26
TORSDOF 18
ENDMDL
MODEL 6
REMARK VINA RESULT:      -7.6     14.442     17.863
REMARK  18 active torsions:
REMARK  status: ('A' for Active; 'I' for Inactive)
REMARK       I    between atoms: N_1  and  C_41 
REMARK    1  A    between atoms: N_2  and  C_23 
REMARK    2  A    between atoms: C_6  and  O_7 
REMARK    3  A    between atoms: O_7  and  P_8 
REMARK    4  A    between atoms: P_8  and  O_10 
REMARK    5  A    between atoms: N_14  and  C_35 
REMARK    6  A    between atoms: N_14  and  C_15 
REMARK    7  A    between atoms: C_15  and  C_16 
REMARK    8  A    between atoms: C_16  and  C_17 
REMARK    9  A    between atoms: C_17  and  C_18 
REMARK   10  A    between atoms: C_17  and  N_21 
REMARK       I    between atoms: N_21  and  C_22 
REMARK   11  A    between atoms: C_22  and  C_23 
REMARK   12  A    between atoms: C_23  and  C_30 
REMARK   13  A    between atoms: C_26  and  C_30 
REMARK   14  A    between atoms: C_26  and  C_27 
REMARK   15  A    between atoms: C_27  and  N_40 
REMARK   16  A    between atoms: C_33  and  C_35 
REMARK   17  A    between atoms: C_35  and  C_36 
REMARK   18  A    between atoms: C_36  and  C_37 
REMARK       I    between atoms: N_40  and  C_41 
ROOT
HETATM    1  C           1     -20.045  -7.758  -5.157  0.00  0.00     0.187 C 
ENDROOT
BRANCH   1   2
HETATM    2  C           1     -21.376  -8.497  -5.210  0.00  0.00     0.066 C 
BRANCH   2   3
HETATM    3  C           1     -21.672  -9.110  -3.848  0.00  0.00     0.273 C 
BRANCH   3   4
HETATM    4  N           1     -21.019  -8.343  -2.823  0.00  0.00     0.098 N 
HETATM    5  H           1     -20.818  -7.407  -3.176  0.00  0.00     0.317 HD
BRANCH   4   6
HETATM    6  C           1     -21.918  -8.250  -1.705  0.00  0.00     0.324 C 
BRANCH   6   7
HETATM    7  C           1     -22.279  -6.805  -1.468  0.00  0.00     0.207 C 
HETATM    8  O           1     -22.291  -5.999  -2.424  0.00  0.00    -0.646 OA
HETATM    9  O           1     -22.566  -6.413  -0.316  0.00  0.00    -0.646 OA
ENDBRANCH   6   7
BRANCH   6  10
HETATM   10  C           1     -21.242  -8.816  -0.463  0.00  0.00     0.085 C 
BRANCH  10  11
HETATM   11  C           1     -21.869 -10.128  -0.106  0.00  0.00    -0.055 A 
HETATM   12  C           1     -23.202 -10.375  -0.433  0.00  0.00     0.010 A 
HETATM   13  C           1     -23.787 -11.597  -0.101  0.00  0.00     0.038 A 
HETATM   14  C           1     -23.037 -12.572   0.558  0.00  0.00     0.081 A 
HETATM   15  C           1     -21.703 -12.325   0.885  0.00  0.00     0.038 A 
HETATM   16  C           1     -21.119 -11.103   0.553  0.00  0.00     0.010 A 
BRANCH  14  17
HETATM   17  O           1     -23.605 -13.759   0.881  0.00  0.00    -0.247 OA
BRANCH  17  18
HETATM   18  P           1     -23.666 -14.904  -0.257  0.00  0.00     0.411 P 
HETATM   19  O           1     -24.951 -14.809  -0.985  0.00  0.00    -0.624 OA
HETATM   20  O           1     -23.557 -16.237   0.379  0.00  0.00    -0.624 OA
BRANCH  18  21
HETATM   21  O           1     -22.444 -14.698  -1.293  0.00  0.00    -0.300 OA
HETATM   22  H           1     -22.720 -13.997  -1.858  0.00  0.00     0.223 HD
ENDBRANCH  18  21
ENDBRANCH  17  18
ENDBRANCH  14  17
ENDBRANCH  10  11
ENDBRANCH   6  10
ENDBRANCH   4   6
ENDBRANCH   3   4
ENDBRANCH   2   3
ENDBRANCH   1   2
BRANCH   1  23
HETATM   23  C           1     -18.914  -8.752  -5.246  0.00  0.00     0.196 C 
HETATM   24  O           1     -18.487  -9.114  -6.365  0.00  0.00    -0.646 OA
HETATM   25  O           1     -18.403  -9.213  -4.203  0.00  0.00    -0.646 OA
ENDBRANCH   1  23
BRANCH   1  26
HETATM   26  N           1     -19.963  -6.831  -6.269  0.00  0.00    -0.345 N 
HETATM   27  C           1     -20.132  -5.489  -6.056  0.00  0.00     0.249 C 
HETATM   28  O           1     -20.350  -5.078  -4.942  0.00  0.00    -0.271 OA
HETATM   29  H           1     -19.780  -7.176  -7.203  0.00  0.00     0.163 HD
BRANCH  27  30
HETATM   30  C           1     -20.046  -4.525  -7.213  0.00  0.00     0.274 C 
BRANCH  30  31
HETATM   31  N           1     -19.861  -5.292  -8.489  0.00  0.00    -0.067 N 
HETATM   32  H           1     -19.193  -4.781  -9.109  0.00  0.00     0.275 HD
HETATM   33  H           1     -19.480  -6.241  -8.274  0.00  0.00     0.275 HD
HETATM   34  H           1     -20.783  -5.387  -8.975  0.00  0.00     0.275 HD
ENDBRANCH  30  31
BRANCH  30  35
HETATM   35  C           1     -21.331  -3.711  -7.292  0.00  0.00     0.044 C 
BRANCH  35  36
HETATM   36  C           1     -22.495  -4.629  -7.639  0.00  0.00     0.023 C 
BRANCH  36  37
HETATM   37  C           1     -23.190  -4.119  -8.894  0.00  0.00     0.138 C 
BRANCH  37  38
HETATM   38  N           1     -22.233  -3.357  -9.710  0.00  0.00    -0.227 N 
HETATM   39  H           1     -21.707  -2.553  -9.288  0.00  0.00     0.177 HD
HETATM   40  C           1     -22.041  -3.674 -10.920  0.00  0.00     0.665 C 
HETATM   41  N           1     -22.692  -4.671 -11.443  0.00  0.00    -0.235 N 
HETATM   42  N           1     -21.217  -3.019 -11.623  0.00  0.00    -0.235 N 
HETATM   43  H           1     -22.534  -4.932 -12.442  0.00  0.00     0.174 HD
HETATM   44  H           1     -23.373  -5.211 -10.863  0.00  0.00     0.174 HD
HETATM   45  H           1     -21.058  -3.281 -12.627  0.00  0.00     0.174 HD
HETATM   46  H           1     -20.691  -2.214 -11.201  0.00  0.00     0.174 HD
ENDBRANCH  37  38
ENDBRANCH  36  37
ENDBRANCH  35  36
ENDBRANCH  30  35
ENDBRANCH  27  30
ENDBRANCH   1  26
TORSDOF 18
ENDMDL
MODEL 7
REMARK VINA RESULT:      -7.4      4.508      7.590
REMARK  18 active torsions:
REMARK  status: ('A' for Active; 'I' for Inactive)
REMARK       I    between atoms: N_1  and  C_41 
REMARK    1  A    between atoms: N_2  and  C_23 
REMARK    2  A    between atoms: C_6  and  O_7 
REMARK    3  A    between atoms: O_7  and  P_8 
REMARK    4  A    between atoms: P_8  and  O_10 
REMARK    5  A    between atoms: N_14  and  C_35 
REMARK    6  A    between atoms: N_14  and  C_15 
REMARK    7  A    between atoms: C_15  and  C_16 
REMARK    8  A    between atoms: C_16  and  C_17 
REMARK    9  A    between atoms: C_17  and  C_18 
REMARK   10  A    between atoms: C_17  and  N_21 
REMARK       I    between atoms: N_21  and  C_22 
REMARK   11  A    between atoms: C_22  and  C_23 
REMARK   12  A    between atoms: C_23  and  C_30 
REMARK   13  A    between atoms: C_26  and  C_30 
REMARK   14  A    between atoms: C_26  and  C_27 
REMARK   15  A    between atoms: C_27  and  N_40 
REMARK   16  A    between atoms: C_33  and  C_35 
REMARK   17  A    between atoms: C_35  and  C_36 
REMARK   18  A    between atoms: C_36  and  C_37 
REMARK       I    between atoms: N_40  and  C_41 
ROOT
HETATM    1  C           1     -35.526  -1.256 -15.564  0.00  0.00     0.187 C 
ENDROOT
BRANCH   1   2
HETATM    2  C           1     -34.809  -0.082 -14.910  0.00  0.00     0.066 C 
BRANCH   2   3
HETATM    3  C           1     -35.680   0.492 -13.801  0.00  0.00     0.273 C 
BRANCH   3   4
HETATM    4  N           1     -34.965   0.447 -12.555  0.00  0.00     0.098 N 
HETATM    5  H           1     -35.119   1.316 -12.044  0.00  0.00     0.317 HD
BRANCH   4   6
HETATM    6  C           1     -35.483  -0.656 -11.793  0.00  0.00     0.324 C 
BRANCH   6   7
HETATM    7  C           1     -36.630  -0.181 -10.936  0.00  0.00     0.207 C 
HETATM    8  O           1     -37.786  -0.606 -11.148  0.00  0.00    -0.646 OA
HETATM    9  O           1     -36.424   0.638 -10.014  0.00  0.00    -0.646 OA
ENDBRANCH   6   7
BRANCH   6  10
HETATM   10  C           1     -34.382  -1.219 -10.904  0.00  0.00     0.085 C 
BRANCH  10  11
HETATM   11  C           1     -34.350  -2.711 -11.030  0.00  0.00    -0.055 A 
HETATM   12  C           1     -35.513  -3.452 -10.827  0.00  0.00     0.010 A 
HETATM   13  C           1     -35.484  -4.842 -10.945  0.00  0.00     0.038 A 
HETATM   14  C           1     -34.291  -5.489 -11.266  0.00  0.00     0.081 A 
HETATM   15  C           1     -33.128  -4.747 -11.470  0.00  0.00     0.038 A 
HETATM   16  C           1     -33.157  -3.358 -11.352  0.00  0.00     0.010 A 
BRANCH  14  17
HETATM   17  O           1     -34.263  -6.839 -11.381  0.00  0.00    -0.247 OA
BRANCH  17  18
HETATM   18  P           1     -34.333  -7.716 -10.026  0.00  0.00     0.411 P 
HETATM   19  O           1     -35.702  -8.249  -9.853  0.00  0.00    -0.624 OA
HETATM   20  O           1     -33.986  -6.863  -8.868  0.00  0.00    -0.624 OA
BRANCH  18  21
HETATM   21  O           1     -33.287  -8.943 -10.126  0.00  0.00    -0.300 OA
HETATM   22  H           1     -32.540  -8.590 -10.578  0.00  0.00     0.223 HD
ENDBRANCH  18  21
ENDBRANCH  17  18
ENDBRANCH  14  17
ENDBRANCH  10  11
ENDBRANCH   6  10
ENDBRANCH   4   6
ENDBRANCH   3   4
ENDBRANCH   2   3
ENDBRANCH   1   2
BRANCH   1  23
HETATM   23  C           1     -36.763  -0.760 -16.272  0.00  0.00     0.196 C 
HETATM   24  O           1     -37.780  -1.484 -16.334  0.00  0.00    -0.646 OA
HETATM   25  O           1     -36.770   0.376 -16.794  0.00  0.00    -0.646 OA
ENDBRANCH   1  23
BRANCH   1  26
HETATM   26  N           1     -34.642  -1.888 -16.524  0.00  0.00    -0.345 N 
HETATM   27  C           1     -34.085  -3.107 -16.243  0.00  0.00     0.249 C 
HETATM   28  O           1     -34.330  -3.655 -15.195  0.00  0.00    -0.271 OA
HETATM   29  H           1     -34.436  -1.429 -17.403  0.00  0.00     0.163 HD
BRANCH  27  30
HETATM   30  C           1     -33.165  -3.764 -17.241  0.00  0.00     0.274 C 
BRANCH  30  31
HETATM   31  N           1     -31.994  -2.866 -17.509  0.00  0.00    -0.067 N 
HETATM   32  H           1     -31.366  -2.854 -16.674  0.00  0.00     0.275 HD
HETATM   33  H           1     -31.465  -3.221 -18.337  0.00  0.00     0.275 HD
HETATM   34  H           1     -32.336  -1.897 -17.702  0.00  0.00     0.275 HD
ENDBRANCH  30  31
BRANCH  30  35
HETATM   35  C           1     -32.670  -5.090 -16.680  0.00  0.00     0.044 C 
BRANCH  35  36
HETATM   36  C           1     -31.152  -5.062 -16.570  0.00  0.00     0.023 C 
BRANCH  36  37
HETATM   37  C           1     -30.564  -6.236 -17.342  0.00  0.00     0.138 C 
BRANCH  37  38
HETATM   38  N           1     -29.193  -6.492 -16.876  0.00  0.00    -0.227 N 
HETATM   39  H           1     -29.031  -6.933 -15.938  0.00  0.00     0.177 HD
HETATM   40  C           1     -28.208  -6.182 -17.609  0.00  0.00     0.665 C 
HETATM   41  N           1     -28.409  -5.637 -18.773  0.00  0.00    -0.235 N 
HETATM   42  N           1     -27.027  -6.402 -17.209  0.00  0.00    -0.235 N 
HETATM   43  H           1     -27.595  -5.381 -19.376  0.00  0.00     0.174 HD
HETATM   44  H           1     -29.383  -5.455 -19.102  0.00  0.00     0.174 HD
HETATM   45  H           1     -26.210  -6.145 -17.816  0.00  0.00     0.174 HD
HETATM   46  H           1     -26.866  -6.843 -16.269  0.00  0.00     0.174 HD
ENDBRANCH  37  38
ENDBRANCH  36  37
ENDBRANCH  35  36
ENDBRANCH  30  35
ENDBRANCH  27  30
ENDBRANCH   1  26
TORSDOF 18
ENDMDL
MODEL 8
REMARK VINA RESULT:      -7.1     13.609     17.139
REMARK  18 active torsions:
REMARK  status: ('A' for Active; 'I' for Inactive)
REMARK       I    between atoms: N_1  and  C_41 
REMARK    1  A    between atoms: N_2  and  C_23 
REMARK    2  A    between atoms: C_6  and  O_7 
REMARK    3  A    between atoms: O_7  and  P_8 
REMARK    4  A    between atoms: P_8  and  O_10 
REMARK    5  A    between atoms: N_14  and  C_35 
REMARK    6  A    between atoms: N_14  and  C_15 
REMARK    7  A    between atoms: C_15  and  C_16 
REMARK    8  A    between atoms: C_16  and  C_17 
REMARK    9  A    between atoms: C_17  and  C_18 
REMARK   10  A    between atoms: C_17  and  N_21 
REMARK       I    between atoms: N_21  and  C_22 
REMARK   11  A    between atoms: C_22  and  C_23 
REMARK   12  A    between atoms: C_23  and  C_30 
REMARK   13  A    between atoms: C_26  and  C_30 
REMARK   14  A    between atoms: C_26  and  C_27 
REMARK   15  A    between atoms: C_27  and  N_40 
REMARK   16  A    between atoms: C_33  and  C_35 
REMARK   17  A    between atoms: C_35  and  C_36 
REMARK   18  A    between atoms: C_36  and  C_37 
REMARK       I    between atoms: N_40  and  C_41 
ROOT
HETATM    1  C           1     -21.335 -12.247  -5.408  0.00  0.00     0.187 C 
ENDROOT
BRANCH   1   2
HETATM    2  C           1     -19.820 -12.186  -5.256  0.00  0.00     0.066 C 
BRANCH   2   3
HETATM    3  C           1     -19.329 -10.791  -5.620  0.00  0.00     0.273 C 
BRANCH   3   4
HETATM    4  N           1     -20.403  -9.848  -5.470  0.00  0.00     0.098 N 
HETATM    5  H           1     -21.124 -10.248  -4.868  0.00  0.00     0.317 HD
BRANCH   4   6
HETATM    6  C           1     -19.866  -8.665  -4.856  0.00  0.00     0.324 C 
BRANCH   6   7
HETATM    7  C           1     -19.116  -9.046  -3.603  0.00  0.00     0.207 C 
HETATM    8  O           1     -17.869  -9.129  -3.623  0.00  0.00    -0.646 OA
HETATM    9  O           1     -19.742  -9.277  -2.546  0.00  0.00    -0.646 OA
ENDBRANCH   6   7
BRANCH   6  10
HETATM   10  C           1     -21.004  -7.718  -4.500  0.00  0.00     0.085 C 
BRANCH  10  11
HETATM   11  C           1     -21.153  -6.688  -5.576  0.00  0.00    -0.055 A 
HETATM   12  C           1     -22.317  -5.925  -5.654  0.00  0.00     0.010 A 
HETATM   13  C           1     -22.457  -4.964  -6.656  0.00  0.00     0.038 A 
HETATM   14  C           1     -21.430  -4.768  -7.580  0.00  0.00     0.081 A 
HETATM   15  C           1     -20.265  -5.530  -7.501  0.00  0.00     0.038 A 
HETATM   16  C           1     -20.126  -6.490  -6.500  0.00  0.00     0.010 A 
BRANCH  14  17
HETATM   17  O           1     -21.565  -3.835  -8.554  0.00  0.00    -0.247 OA
BRANCH  17  18
HETATM   18  P           1     -22.873  -3.910  -9.499  0.00  0.00     0.411 P 
HETATM   19  O           1     -23.101  -5.311  -9.918  0.00  0.00    -0.624 OA
HETATM   20  O           1     -22.664  -3.066 -10.697  0.00  0.00    -0.624 OA
BRANCH  18  21
HETATM   21  O           1     -24.160  -3.378  -8.680  0.00  0.00    -0.300 OA
HETATM   22  H           1     -24.866  -3.945  -8.941  0.00  0.00     0.223 HD
ENDBRANCH  18  21
ENDBRANCH  17  18
ENDBRANCH  14  17
ENDBRANCH  10  11
ENDBRANCH   6  10
ENDBRANCH   4   6
ENDBRANCH   3   4
ENDBRANCH   2   3
ENDBRANCH   1   2
BRANCH   1  23
HETATM   23  C           1     -21.689 -13.144  -6.567  0.00  0.00     0.196 C 
HETATM   24  O           1     -22.577 -14.016  -6.435  0.00  0.00    -0.646 OA
HETATM   25  O           1     -21.097 -13.017  -7.660  0.00  0.00    -0.646 OA
ENDBRANCH   1  23
BRANCH   1  26
HETATM   26  N           1     -21.921 -12.775  -4.191  0.00  0.00    -0.345 N 
HETATM   27  C           1     -22.537 -11.933  -3.305  0.00  0.00     0.249 C 
HETATM   28  O           1     -22.593 -10.749  -3.538  0.00  0.00    -0.271 OA
HETATM   29  H           1     -21.874 -13.768  -3.996  0.00  0.00     0.163 HD
BRANCH  27  30
HETATM   30  C           1     -23.147 -12.483  -2.040  0.00  0.00     0.274 C 
BRANCH  30  31
HETATM   31  N           1     -22.129 -13.313  -1.315  0.00  0.00    -0.067 N 
HETATM   32  H           1     -21.271 -12.742  -1.144  0.00  0.00     0.275 HD
HETATM   33  H           1     -22.525 -13.629  -0.401  0.00  0.00     0.275 HD
HETATM   34  H           1     -21.882 -14.147  -1.897  0.00  0.00     0.275 HD
ENDBRANCH  30  31
BRANCH  30  35
HETATM   35  C           1     -23.591 -11.331  -1.148  0.00  0.00     0.044 C 
BRANCH  35  36
HETATM   36  C           1     -22.841 -11.394   0.175  0.00  0.00     0.023 C 
BRANCH  36  37
HETATM   37  C           1     -21.745 -10.336   0.189  0.00  0.00     0.138 C 
BRANCH  37  38
HETATM   38  N           1     -22.135  -9.213  -0.676  0.00  0.00    -0.227 N 
HETATM   39  H           1     -22.371  -9.385  -1.684  0.00  0.00     0.177 HD
HETATM   40  C           1     -22.188  -8.040  -0.204  0.00  0.00     0.665 C 
HETATM   41  N           1     -21.896  -7.827   1.045  0.00  0.00    -0.235 N 
HETATM   42  N           1     -22.524  -7.073  -0.949  0.00  0.00    -0.235 N 
HETATM   43  H           1     -21.939  -6.859   1.434  0.00  0.00     0.174 HD
HETATM   44  H           1     -21.618  -8.626   1.659  0.00  0.00     0.174 HD
HETATM   45  H           1     -22.568  -6.099  -0.558  0.00  0.00     0.174 HD
HETATM   46  H           1     -22.760  -7.245  -1.958  0.00  0.00     0.174 HD
ENDBRANCH  37  38
ENDBRANCH  36  37
ENDBRANCH  35  36
ENDBRANCH  30  35
ENDBRANCH  27  30
ENDBRANCH   1  26
TORSDOF 18
ENDMDL
MODEL 9
REMARK VINA RESULT:      -6.9     13.910     17.715
REMARK  18 active torsions:
REMARK  status: ('A' for Active; 'I' for Inactive)
REMARK       I    between atoms: N_1  and  C_41 
REMARK    1  A    between atoms: N_2  and  C_23 
REMARK    2  A    between atoms: C_6  and  O_7 
REMARK    3  A    between atoms: O_7  and  P_8 
REMARK    4  A    between atoms: P_8  and  O_10 
REMARK    5  A    between atoms: N_14  and  C_35 
REMARK    6  A    between atoms: N_14  and  C_15 
REMARK    7  A    between atoms: C_15  and  C_16 
REMARK    8  A    between atoms: C_16  and  C_17 
REMARK    9  A    between atoms: C_17  and  C_18 
REMARK   10  A    between atoms: C_17  and  N_21 
REMARK       I    between atoms: N_21  and  C_22 
REMARK   11  A    between atoms: C_22  and  C_23 
REMARK   12  A    between atoms: C_23  and  C_30 
REMARK   13  A    between atoms: C_26  and  C_30 
REMARK   14  A    between atoms: C_26  and  C_27 
REMARK   15  A    between atoms: C_27  and  N_40 
REMARK   16  A    between atoms: C_33  and  C_35 
REMARK   17  A    between atoms: C_35  and  C_36 
REMARK   18  A    between atoms: C_36  and  C_37 
REMARK       I    between atoms: N_40  and  C_41 
ROOT
HETATM    1  C           1     -18.789  -9.467  -2.718  0.00  0.00     0.187 C 
ENDROOT
BRANCH   1   2
HETATM    2  C           1     -19.314 -10.833  -2.295  0.00  0.00     0.066 C 
BRANCH   2   3
HETATM    3  C           1     -20.005 -10.716  -0.943  0.00  0.00     0.273 C 
BRANCH   3   4
HETATM    4  N           1     -21.125 -11.616  -0.896  0.00  0.00     0.098 N 
HETATM    5  H           1     -21.386 -11.782   0.076  0.00  0.00     0.317 HD
BRANCH   4   6
HETATM    6  C           1     -22.219 -10.991  -1.587  0.00  0.00     0.324 C 
BRANCH   6   7
HETATM    7  C           1     -23.081 -10.249  -0.596  0.00  0.00     0.207 C 
HETATM    8  O           1     -22.866  -9.040  -0.362  0.00  0.00    -0.646 OA
HETATM    9  O           1     -24.011 -10.844  -0.009  0.00  0.00    -0.646 OA
ENDBRANCH   6   7
BRANCH   6  10
HETATM   10  C           1     -23.051 -12.057  -2.288  0.00  0.00     0.085 C 
BRANCH  10  11
HETATM   11  C           1     -22.519 -12.277  -3.671  0.00  0.00    -0.055 A 
HETATM   12  C           1     -22.448 -13.568  -4.192  0.00  0.00     0.010 A 
HETATM   13  C           1     -21.953 -13.774  -5.480  0.00  0.00     0.038 A 
HETATM   14  C           1     -21.531 -12.688  -6.246  0.00  0.00     0.081 A 
HETATM   15  C           1     -21.604 -11.396  -5.725  0.00  0.00     0.038 A 
HETATM   16  C           1     -22.098 -11.190  -4.437  0.00  0.00     0.010 A 
BRANCH  14  17
HETATM   17  O           1     -21.051 -12.888  -7.498  0.00  0.00    -0.247 OA
BRANCH  17  18
HETATM   18  P           1     -19.449 -12.938  -7.696  0.00  0.00     0.411 P 
HETATM   19  O           1     -19.133 -13.502  -9.027  0.00  0.00    -0.624 OA
HETATM   20  O           1     -18.849 -13.789  -6.644  0.00  0.00    -0.624 OA
BRANCH  18  21
HETATM   21  O           1     -18.847 -11.442  -7.590  0.00  0.00    -0.300 OA
HETATM   22  H           1     -19.570 -10.874  -7.797  0.00  0.00     0.223 HD
ENDBRANCH  18  21
ENDBRANCH  17  18
ENDBRANCH  14  17
ENDBRANCH  10  11
ENDBRANCH   6  10
ENDBRANCH   4   6
ENDBRANCH   3   4
ENDBRANCH   2   3
ENDBRANCH   1   2
BRANCH   1  23
HETATM   23  C           1     -17.410  -9.618  -3.310  0.00  0.00     0.196 C 
HETATM   24  O           1     -16.407  -9.242  -2.664  0.00  0.00    -0.646 OA
HETATM   25  O           1     -17.269 -10.121  -4.445  0.00  0.00    -0.646 OA
ENDBRANCH   1  23
BRANCH   1  26
HETATM   26  N           1     -19.679  -8.893  -3.708  0.00  0.00    -0.345 N 
HETATM   27  C           1     -20.575  -7.924  -3.344  0.00  0.00     0.249 C 
HETATM   28  O           1     -20.623  -7.546  -2.198  0.00  0.00    -0.271 OA
HETATM   29  H           1     -19.639  -9.209  -4.669  0.00  0.00     0.163 HD
BRANCH  27  30
HETATM   30  C           1     -21.501  -7.327  -4.375  0.00  0.00     0.274 C 
BRANCH  30  31
HETATM   31  N           1     -22.250  -6.178  -3.769  0.00  0.00    -0.067 N 
HETATM   32  H           1     -23.255  -6.230  -4.049  0.00  0.00     0.275 HD
HETATM   33  H           1     -22.175  -6.224  -2.727  0.00  0.00     0.275 HD
HETATM   34  H           1     -21.840  -5.277  -4.109  0.00  0.00     0.275 HD
ENDBRANCH  30  31
BRANCH  30  35
HETATM   35  C           1     -20.686  -6.832  -5.563  0.00  0.00     0.044 C 
BRANCH  35  36
HETATM   36  C           1     -20.549  -5.318  -5.490  0.00  0.00     0.023 C 
BRANCH  36  37
HETATM   37  C           1     -20.792  -4.718  -6.869  0.00  0.00     0.138 C 
BRANCH  37  38
HETATM   38  N           1     -22.217  -4.386  -7.016  0.00  0.00    -0.227 N 
HETATM   39  H           1     -22.818  -4.264  -6.164  0.00  0.00     0.177 HD
HETATM   40  C           1     -22.718  -4.245  -8.170  0.00  0.00     0.665 C 
HETATM   41  N           1     -21.973  -4.395  -9.225  0.00  0.00    -0.235 N 
HETATM   42  N           1     -23.945  -3.959  -8.297  0.00  0.00    -0.235 N 
HETATM   43  H           1     -22.388  -4.280 -10.177  0.00  0.00     0.174 HD
HETATM   44  H           1     -20.961  -4.632  -9.120  0.00  0.00     0.174 HD
HETATM   45  H           1     -24.361  -3.842  -9.254  0.00  0.00     0.174 HD
HETATM   46  H           1     -24.546  -3.837  -7.444  0.00  0.00     0.174 HD
ENDBRANCH  37  38
ENDBRANCH  36  37
ENDBRANCH  35  36
ENDBRANCH  30  35
ENDBRANCH  27  30
ENDBRANCH   1  26
TORSDOF 18
ENDMDL
