MODEL 1
REMARK VINA RESULT:      -7.4      0.000      0.000
REMARK  7 active torsions:
REMARK  status: ('A' for Active; 'I' for Inactive)
REMARK    1  A    between atoms: C_2  and  C_5 
REMARK    2  A    between atoms: C_2  and  N_17 
REMARK    3  A    between atoms: N_4  and  C_11 
REMARK    4  A    between atoms: C_6  and  O_7 
REMARK    5  A    between atoms: C_11  and  C_23 
REMARK    6  A    between atoms: C_11  and  C_16 
REMARK    7  A    between atoms: C_14  and  C_16 
REMARK       I    between atoms: N_17  and  C_23 
ROOT
HETATM    1  C           1     -22.132  -5.206  -6.646  0.00  0.00     0.278 C 
ENDROOT
BRANCH   1   2
HETATM    2  N           1     -23.582  -4.984  -6.331  0.00  0.00    -0.066 N 
HETATM    3  H           1     -23.803  -5.399  -5.398  0.00  0.00     0.275 HD
HETATM    4  H           1     -23.781  -3.958  -6.311  0.00  0.00     0.275 HD
HETATM    5  H           1     -24.171  -5.441  -7.063  0.00  0.00     0.275 HD
ENDBRANCH   1   2
BRANCH   1   6
HETATM    6  C           1     -21.405  -5.626  -5.391  0.00  0.00     0.249 C 
HETATM    7  O           1     -20.219  -5.422  -5.284  0.00  0.00    -0.271 OA
HETATM    8  N           1     -22.088  -6.239  -4.376  0.00  0.00    -0.345 N 
HETATM    9  H           1     -23.082  -6.411  -4.467  0.00  0.00     0.163 HD
BRANCH   8  10
HETATM   10  C           1     -21.390  -6.643  -3.172  0.00  0.00     0.181 C 
HETATM   11  C           1     -22.171  -6.178  -1.951  0.00  0.00     0.043 C 
BRANCH  10  12
HETATM   12  C           1     -21.265  -8.147  -3.145  0.00  0.00     0.196 C 
HETATM   13  O           1     -21.757  -8.832  -4.067  0.00  0.00    -0.646 OA
HETATM   14  O           1     -20.667  -8.708  -2.201  0.00  0.00    -0.646 OA
ENDBRANCH  10  12
ENDBRANCH   8  10
ENDBRANCH   1   6
BRANCH   1  15
HETATM   15  C           1     -21.525  -3.915  -7.177  0.00  0.00     0.081 C 
BRANCH  15  16
HETATM   16  C           1     -21.574  -3.917  -8.673  0.00  0.00    -0.056 A 
HETATM   17  C           1     -20.429  -4.229  -9.407  0.00  0.00     0.010 A 
HETATM   18  C           1     -20.473  -4.232 -10.801  0.00  0.00     0.037 A 
HETATM   19  C           1     -21.663  -3.923 -11.460  0.00  0.00     0.065 A 
HETATM   20  C           1     -22.807  -3.613 -10.727  0.00  0.00     0.037 A 
HETATM   21  C           1     -22.763  -3.610  -9.334  0.00  0.00     0.010 A 
BRANCH  19  22
HETATM   22  O           1     -21.707  -3.926 -12.816  0.00  0.00    -0.361 OA
HETATM   23  H           1     -22.401  -4.547 -13.092  0.00  0.00     0.217 HD
ENDBRANCH  19  22
ENDBRANCH  15  16
ENDBRANCH   1  15
TORSDOF 7
ENDMDL
MODEL 2
REMARK VINA RESULT:      -7.0      2.157      7.278
REMARK  7 active torsions:
REMARK  status: ('A' for Active; 'I' for Inactive)
REMARK    1  A    between atoms: C_2  and  C_5 
REMARK    2  A    between atoms: C_2  and  N_17 
REMARK    3  A    between atoms: N_4  and  C_11 
REMARK    4  A    between atoms: C_6  and  O_7 
REMARK    5  A    between atoms: C_11  and  C_23 
REMARK    6  A    between atoms: C_11  and  C_16 
REMARK    7  A    between atoms: C_14  and  C_16 
REMARK       I    between atoms: N_17  and  C_23 
ROOT
HETATM    1  C           1     -21.177  -5.669  -6.904  0.00  0.00     0.278 C 
ENDROOT
BRANCH   1   2
HETATM    2  N           1     -19.902  -6.154  -7.529  0.00  0.00    -0.066 N 
HETATM    3  H           1     -20.030  -6.236  -8.563  0.00  0.00     0.275 HD
HETATM    4  H           1     -19.134  -5.475  -7.327  0.00  0.00     0.275 HD
HETATM    5  H           1     -19.655  -7.090  -7.135  0.00  0.00     0.275 HD
ENDBRANCH   1   2
BRANCH   1   6
HETATM    6  C           1     -21.718  -4.509  -7.705  0.00  0.00     0.249 C 
HETATM    7  O           1     -21.601  -3.381  -7.288  0.00  0.00    -0.271 OA
HETATM    8  N           1     -22.341  -4.734  -8.902  0.00  0.00    -0.345 N 
HETATM    9  H           1     -22.439  -5.680  -9.251  0.00  0.00     0.163 HD
BRANCH   8  10
HETATM   10  C           1     -22.861  -3.620  -9.671  0.00  0.00     0.181 C 
HETATM   11  C           1     -21.972  -3.380 -10.883  0.00  0.00     0.043 C 
BRANCH  10  12
HETATM   12  C           1     -24.262  -3.939 -10.131  0.00  0.00     0.196 C 
HETATM   13  O           1     -24.884  -3.129 -10.851  0.00  0.00    -0.646 OA
HETATM   14  O           1     -24.802  -5.015  -9.792  0.00  0.00    -0.646 OA
ENDBRANCH  10  12
ENDBRANCH   8  10
ENDBRANCH   1   6
BRANCH   1  15
HETATM   15  C           1     -20.901  -5.217  -5.477  0.00  0.00     0.081 C 
BRANCH  15  16
HETATM   16  C           1     -21.168  -6.348  -4.534  0.00  0.00    -0.056 A 
HETATM   17  C           1     -21.311  -7.646  -5.025  0.00  0.00     0.010 A 
HETATM   18  C           1     -21.559  -8.701  -4.147  0.00  0.00     0.037 A 
HETATM   19  C           1     -21.662  -8.457  -2.777  0.00  0.00     0.065 A 
HETATM   20  C           1     -21.518  -7.161  -2.286  0.00  0.00     0.037 A 
HETATM   21  C           1     -21.270  -6.106  -3.164  0.00  0.00     0.010 A 
BRANCH  19  22
HETATM   22  O           1     -21.903  -9.482  -1.923  0.00  0.00    -0.361 OA
HETATM   23  H           1     -21.886  -9.129  -1.018  0.00  0.00     0.217 HD
ENDBRANCH  19  22
ENDBRANCH  15  16
ENDBRANCH   1  15
TORSDOF 7
ENDMDL
MODEL 3
REMARK VINA RESULT:      -6.8      1.484      2.094
REMARK  7 active torsions:
REMARK  status: ('A' for Active; 'I' for Inactive)
REMARK    1  A    between atoms: C_2  and  C_5 
REMARK    2  A    between atoms: C_2  and  N_17 
REMARK    3  A    between atoms: N_4  and  C_11 
REMARK    4  A    between atoms: C_6  and  O_7 
REMARK    5  A    between atoms: C_11  and  C_23 
REMARK    6  A    between atoms: C_11  and  C_16 
REMARK    7  A    between atoms: C_14  and  C_16 
REMARK       I    between atoms: N_17  and  C_23 
ROOT
HETATM    1  C           1     -22.194  -5.428  -6.662  0.00  0.00     0.278 C 
ENDROOT
BRANCH   1   2
HETATM    2  N           1     -23.555  -4.968  -6.229  0.00  0.00    -0.066 N 
HETATM    3  H           1     -23.535  -3.939  -6.049  0.00  0.00     0.275 HD
HETATM    4  H           1     -24.249  -5.176  -6.983  0.00  0.00     0.275 HD
HETATM    5  H           1     -23.829  -5.469  -5.354  0.00  0.00     0.275 HD
ENDBRANCH   1   2
BRANCH   1   6
HETATM    6  C           1     -21.501  -6.103  -5.504  0.00  0.00     0.249 C 
HETATM    7  O           1     -21.018  -5.438  -4.618  0.00  0.00    -0.271 OA
HETATM    8  N           1     -21.418  -7.469  -5.457  0.00  0.00    -0.345 N 
HETATM    9  H           1     -21.822  -8.026  -6.200  0.00  0.00     0.163 HD
BRANCH   8  10
HETATM   10  C           1     -20.752  -8.117  -4.344  0.00  0.00     0.181 C 
HETATM   11  C           1     -21.613  -9.263  -3.833  0.00  0.00     0.043 C 
BRANCH  10  12
HETATM   12  C           1     -19.419  -8.656  -4.804  0.00  0.00     0.196 C 
HETATM   13  O           1     -18.596  -9.087  -3.967  0.00  0.00    -0.646 OA
HETATM   14  O           1     -19.138  -8.673  -6.022  0.00  0.00    -0.646 OA
ENDBRANCH  10  12
ENDBRANCH   8  10
ENDBRANCH   1   6
BRANCH   1  15
HETATM   15  C           1     -21.374  -4.228  -7.116  0.00  0.00     0.081 C 
BRANCH  15  16
HETATM   16  C           1     -21.443  -4.110  -8.606  0.00  0.00    -0.056 A 
HETATM   17  C           1     -22.620  -3.679  -9.218  0.00  0.00     0.010 A 
HETATM   18  C           1     -22.685  -3.568 -10.607  0.00  0.00     0.037 A 
HETATM   19  C           1     -21.571  -3.888 -11.383  0.00  0.00     0.065 A 
HETATM   20  C           1     -20.394  -4.317 -10.772  0.00  0.00     0.037 A 
HETATM   21  C           1     -20.330  -4.428  -9.384  0.00  0.00     0.010 A 
BRANCH  19  22
HETATM   22  O           1     -21.633  -3.780 -12.734  0.00  0.00    -0.361 OA
HETATM   23  H           1     -21.050  -4.457 -13.115  0.00  0.00     0.217 HD
ENDBRANCH  19  22
ENDBRANCH  15  16
ENDBRANCH   1  15
TORSDOF 7
ENDMDL
MODEL 4
REMARK VINA RESULT:      -6.8      1.662      2.131
REMARK  7 active torsions:
REMARK  status: ('A' for Active; 'I' for Inactive)
REMARK    1  A    between atoms: C_2  and  C_5 
REMARK    2  A    between atoms: C_2  and  N_17 
REMARK    3  A    between atoms: N_4  and  C_11 
REMARK    4  A    between atoms: C_6  and  O_7 
REMARK    5  A    between atoms: C_11  and  C_23 
REMARK    6  A    between atoms: C_11  and  C_16 
REMARK    7  A    between atoms: C_14  and  C_16 
REMARK       I    between atoms: N_17  and  C_23 
ROOT
HETATM    1  C           1     -21.141  -5.257  -5.882  0.00  0.00     0.278 C 
ENDROOT
BRANCH   1   2
HETATM    2  N           1     -20.009  -4.494  -5.261  0.00  0.00    -0.066 N 
HETATM    3  H           1     -20.366  -3.589  -4.880  0.00  0.00     0.275 HD
HETATM    4  H           1     -19.593  -5.058  -4.485  0.00  0.00     0.275 HD
HETATM    5  H           1     -19.280  -4.303  -5.985  0.00  0.00     0.275 HD
ENDBRANCH   1   2
BRANCH   1   6
HETATM    6  C           1     -21.626  -6.311  -4.915  0.00  0.00     0.249 C 
HETATM    7  O           1     -22.603  -6.970  -5.181  0.00  0.00    -0.271 OA
HETATM    8  N           1     -20.961  -6.516  -3.737  0.00  0.00    -0.345 N 
HETATM    9  H           1     -20.144  -5.962  -3.514  0.00  0.00     0.163 HD
BRANCH   8  10
HETATM   10  C           1     -21.428  -7.527  -2.808  0.00  0.00     0.181 C 
HETATM   11  C           1     -20.244  -8.345  -2.310  0.00  0.00     0.043 C 
BRANCH  10  12
HETATM   12  C           1     -22.105  -6.858  -1.637  0.00  0.00     0.196 C 
HETATM   13  O           1     -22.384  -7.519  -0.614  0.00  0.00    -0.646 OA
HETATM   14  O           1     -22.386  -5.641  -1.689  0.00  0.00    -0.646 OA
ENDBRANCH  10  12
ENDBRANCH   8  10
ENDBRANCH   1   6
BRANCH   1  15
HETATM   15  C           1     -20.660  -5.926  -7.163  0.00  0.00     0.081 C 
BRANCH  15  16
HETATM   16  C           1     -21.031  -5.079  -8.339  0.00  0.00    -0.056 A 
HETATM   17  C           1     -20.112  -4.874  -9.368  0.00  0.00     0.010 A 
HETATM   18  C           1     -20.457  -4.085 -10.465  0.00  0.00     0.037 A 
HETATM   19  C           1     -21.721  -3.501 -10.533  0.00  0.00     0.065 A 
HETATM   20  C           1     -22.641  -3.706  -9.505  0.00  0.00     0.037 A 
HETATM   21  C           1     -22.296  -4.494  -8.408  0.00  0.00     0.010 A 
BRANCH  19  22
HETATM   22  O           1     -22.058  -2.734 -11.600  0.00  0.00    -0.361 OA
HETATM   23  H           1     -21.803  -3.213 -12.406  0.00  0.00     0.217 HD
ENDBRANCH  19  22
ENDBRANCH  15  16
ENDBRANCH   1  15
TORSDOF 7
ENDMDL
MODEL 5
REMARK VINA RESULT:      -6.5      2.105      2.612
REMARK  7 active torsions:
REMARK  status: ('A' for Active; 'I' for Inactive)
REMARK    1  A    between atoms: C_2  and  C_5 
REMARK    2  A    between atoms: C_2  and  N_17 
REMARK    3  A    between atoms: N_4  and  C_11 
REMARK    4  A    between atoms: C_6  and  O_7 
REMARK    5  A    between atoms: C_11  and  C_23 
REMARK    6  A    between atoms: C_11  and  C_16 
REMARK    7  A    between atoms: C_14  and  C_16 
REMARK       I    between atoms: N_17  and  C_23 
ROOT
HETATM    1  C           1     -20.680  -5.323  -6.341  0.00  0.00     0.278 C 
ENDROOT
BRANCH   1   2
HETATM    2  N           1     -20.206  -4.345  -5.307  0.00  0.00    -0.066 N 
HETATM    3  H           1     -20.121  -4.827  -4.385  0.00  0.00     0.275 HD
HETATM    4  H           1     -19.273  -3.966  -5.589  0.00  0.00     0.275 HD
HETATM    5  H           1     -20.893  -3.562  -5.229  0.00  0.00     0.275 HD
ENDBRANCH   1   2
BRANCH   1   6
HETATM    6  C           1     -20.124  -6.692  -6.029  0.00  0.00     0.249 C 
HETATM    7  O           1     -19.284  -7.181  -6.747  0.00  0.00    -0.271 OA
HETATM    8  N           1     -20.572  -7.379  -4.933  0.00  0.00    -0.345 N 
HETATM    9  H           1     -21.276  -6.970  -4.332  0.00  0.00     0.163 HD
BRANCH   8  10
HETATM   10  C           1     -20.038  -8.694  -4.634  0.00  0.00     0.181 C 
HETATM   11  C           1     -19.720  -8.787  -3.148  0.00  0.00     0.043 C 
BRANCH  10  12
HETATM   12  C           1     -21.059  -9.744  -4.995  0.00  0.00     0.196 C 
HETATM   13  O           1     -21.943 -10.067  -4.173  0.00  0.00    -0.646 OA
HETATM   14  O           1     -21.022 -10.292  -6.119  0.00  0.00    -0.646 OA
ENDBRANCH  10  12
ENDBRANCH   8  10
ENDBRANCH   1   6
BRANCH   1  15
HETATM   15  C           1     -20.199  -4.881  -7.716  0.00  0.00     0.081 C 
BRANCH  15  16
HETATM   16  C           1     -21.377  -4.517  -8.565  0.00  0.00    -0.056 A 
HETATM   17  C           1     -22.634  -4.358  -7.981  0.00  0.00     0.010 A 
HETATM   18  C           1     -23.732  -4.018  -8.771  0.00  0.00     0.037 A 
HETATM   19  C           1     -23.572  -3.836 -10.145  0.00  0.00     0.065 A 
HETATM   20  C           1     -22.316  -3.993 -10.728  0.00  0.00     0.037 A 
HETATM   21  C           1     -21.218  -4.334  -9.939  0.00  0.00     0.010 A 
BRANCH  19  22
HETATM   22  O           1     -24.639  -3.505 -10.913  0.00  0.00    -0.361 OA
HETATM   23  H           1     -25.414  -3.983 -10.572  0.00  0.00     0.217 HD
ENDBRANCH  19  22
ENDBRANCH  15  16
ENDBRANCH   1  15
TORSDOF 7
ENDMDL
MODEL 6
REMARK VINA RESULT:      -6.4      1.473      7.372
REMARK  7 active torsions:
REMARK  status: ('A' for Active; 'I' for Inactive)
REMARK    1  A    between atoms: C_2  and  C_5 
REMARK    2  A    between atoms: C_2  and  N_17 
REMARK    3  A    between atoms: N_4  and  C_11 
REMARK    4  A    between atoms: C_6  and  O_7 
REMARK    5  A    between atoms: C_11  and  C_23 
REMARK    6  A    between atoms: C_11  and  C_16 
REMARK    7  A    between atoms: C_14  and  C_16 
REMARK       I    between atoms: N_17  and  C_23 
ROOT
HETATM    1  C           1     -22.073  -5.059  -6.391  0.00  0.00     0.278 C 
ENDROOT
BRANCH   1   2
HETATM    2  N           1     -23.567  -4.981  -6.500  0.00  0.00    -0.066 N 
HETATM    3  H           1     -23.873  -5.408  -7.404  0.00  0.00     0.275 HD
HETATM    4  H           1     -24.002  -5.502  -5.705  0.00  0.00     0.275 HD
HETATM    5  H           1     -23.867  -3.981  -6.469  0.00  0.00     0.275 HD
ENDBRANCH   1   2
BRANCH   1   6
HETATM    6  C           1     -21.446  -4.337  -7.560  0.00  0.00     0.249 C 
HETATM    7  O           1     -20.599  -3.499  -7.367  0.00  0.00    -0.271 OA
HETATM    8  N           1     -21.840  -4.632  -8.837  0.00  0.00    -0.345 N 
HETATM    9  H           1     -22.551  -5.335  -8.998  0.00  0.00     0.163 HD
BRANCH   8  10
HETATM   10  C           1     -21.238  -3.938  -9.959  0.00  0.00     0.181 C 
HETATM   11  C           1     -20.099  -4.776 -10.524  0.00  0.00     0.043 C 
BRANCH  10  12
HETATM   12  C           1     -22.279  -3.720 -11.030  0.00  0.00     0.196 C 
HETATM   13  O           1     -23.389  -3.227 -10.733  0.00  0.00    -0.646 OA
HETATM   14  O           1     -22.032  -4.032 -12.215  0.00  0.00    -0.646 OA
ENDBRANCH  10  12
ENDBRANCH   8  10
ENDBRANCH   1   6
BRANCH   1  15
HETATM   15  C           1     -21.639  -6.518  -6.402  0.00  0.00     0.081 C 
BRANCH  15  16
HETATM   16  C           1     -21.504  -7.011  -4.996  0.00  0.00    -0.056 A 
HETATM   17  C           1     -21.461  -6.101  -3.939  0.00  0.00     0.010 A 
HETATM   18  C           1     -21.336  -6.560  -2.628  0.00  0.00     0.037 A 
HETATM   19  C           1     -21.253  -7.929  -2.374  0.00  0.00     0.065 A 
HETATM   20  C           1     -21.297  -8.839  -3.429  0.00  0.00     0.037 A 
HETATM   21  C           1     -21.422  -8.380  -4.740  0.00  0.00     0.010 A 
BRANCH  19  22
HETATM   22  O           1     -21.132  -8.375  -1.099  0.00  0.00    -0.361 OA
HETATM   23  H           1     -22.022  -8.570  -0.764  0.00  0.00     0.217 HD
ENDBRANCH  19  22
ENDBRANCH  15  16
ENDBRANCH   1  15
TORSDOF 7
ENDMDL
MODEL 7
REMARK VINA RESULT:      -6.3      2.435      7.791
REMARK  7 active torsions:
REMARK  status: ('A' for Active; 'I' for Inactive)
REMARK    1  A    between atoms: C_2  and  C_5 
REMARK    2  A    between atoms: C_2  and  N_17 
REMARK    3  A    between atoms: N_4  and  C_11 
REMARK    4  A    between atoms: C_6  and  O_7 
REMARK    5  A    between atoms: C_11  and  C_23 
REMARK    6  A    between atoms: C_11  and  C_16 
REMARK    7  A    between atoms: C_14  and  C_16 
REMARK       I    between atoms: N_17  and  C_23 
ROOT
HETATM    1  C           1     -21.477  -7.946  -4.883  0.00  0.00     0.278 C 
ENDROOT
BRANCH   1   2
HETATM    2  N           1     -21.084  -8.905  -5.967  0.00  0.00    -0.066 N 
HETATM    3  H           1     -21.090  -9.879  -5.589  0.00  0.00     0.275 HD
HETATM    4  H           1     -21.764  -8.834  -6.757  0.00  0.00     0.275 HD
HETATM    5  H           1     -20.125  -8.671  -6.308  0.00  0.00     0.275 HD
ENDBRANCH   1   2
BRANCH   1   6
HETATM    6  C           1     -21.373  -6.532  -5.403  0.00  0.00     0.249 C 
HETATM    7  O           1     -21.898  -5.627  -4.799  0.00  0.00    -0.271 OA
HETATM    8  N           1     -20.686  -6.276  -6.559  0.00  0.00    -0.345 N 
HETATM    9  H           1     -20.247  -7.035  -7.065  0.00  0.00     0.163 HD
BRANCH   8  10
HETATM   10  C           1     -20.587  -4.919  -7.058  0.00  0.00     0.181 C 
HETATM   11  C           1     -19.176  -4.668  -7.574  0.00  0.00     0.043 C 
BRANCH  10  12
HETATM   12  C           1     -21.574  -4.725  -8.182  0.00  0.00     0.196 C 
HETATM   13  O           1     -22.777  -4.502  -7.928  0.00  0.00    -0.646 OA
HETATM   14  O           1     -21.189  -4.787  -9.370  0.00  0.00    -0.646 OA
ENDBRANCH  10  12
ENDBRANCH   8  10
ENDBRANCH   1   6
BRANCH   1  15
HETATM   15  C           1     -20.546  -8.118  -3.691  0.00  0.00     0.081 C 
BRANCH  15  16
HETATM   16  C           1     -21.347  -8.116  -2.426  0.00  0.00    -0.056 A 
HETATM   17  C           1     -21.754  -9.323  -1.856  0.00  0.00     0.010 A 
HETATM   18  C           1     -22.499  -9.321  -0.678  0.00  0.00     0.037 A 
HETATM   19  C           1     -22.838  -8.112  -0.069  0.00  0.00     0.065 A 
HETATM   20  C           1     -22.431  -6.906  -0.638  0.00  0.00     0.037 A 
HETATM   21  C           1     -21.685  -6.908  -1.816  0.00  0.00     0.010 A 
BRANCH  19  22
HETATM   22  O           1     -23.563  -8.110   1.077  0.00  0.00    -0.361 OA
HETATM   23  H           1     -24.479  -8.342   0.852  0.00  0.00     0.217 HD
ENDBRANCH  19  22
ENDBRANCH  15  16
ENDBRANCH   1  15
TORSDOF 7
ENDMDL
MODEL 8
REMARK VINA RESULT:      -6.2      2.208      2.978
REMARK  7 active torsions:
REMARK  status: ('A' for Active; 'I' for Inactive)
REMARK    1  A    between atoms: C_2  and  C_5 
REMARK    2  A    between atoms: C_2  and  N_17 
REMARK    3  A    between atoms: N_4  and  C_11 
REMARK    4  A    between atoms: C_6  and  O_7 
REMARK    5  A    between atoms: C_11  and  C_23 
REMARK    6  A    between atoms: C_11  and  C_16 
REMARK    7  A    between atoms: C_14  and  C_16 
REMARK       I    between atoms: N_17  and  C_23 
ROOT
HETATM    1  C           1     -21.461  -6.460  -5.591  0.00  0.00     0.278 C 
ENDROOT
BRANCH   1   2
HETATM    2  N           1     -21.883  -6.016  -4.221  0.00  0.00    -0.066 N 
HETATM    3  H           1     -22.866  -6.321  -4.044  0.00  0.00     0.275 HD
HETATM    4  H           1     -21.252  -6.443  -3.507  0.00  0.00     0.275 HD
HETATM    5  H           1     -21.826  -4.974  -4.161  0.00  0.00     0.275 HD
ENDBRANCH   1   2
BRANCH   1   6
HETATM    6  C           1     -20.830  -7.829  -5.501  0.00  0.00     0.249 C 
HETATM    7  O           1     -21.406  -8.789  -5.956  0.00  0.00    -0.271 OA
HETATM    8  N           1     -19.608  -7.983  -4.904  0.00  0.00    -0.345 N 
HETATM    9  H           1     -19.127  -7.178  -4.522  0.00  0.00     0.163 HD
BRANCH   8  10
HETATM   10  C           1     -19.004  -9.298  -4.817  0.00  0.00     0.181 C 
HETATM   11  C           1     -17.948  -9.444  -5.904  0.00  0.00     0.043 C 
BRANCH  10  12
HETATM   12  C           1     -18.358  -9.465  -3.464  0.00  0.00     0.196 C 
HETATM   13  O           1     -17.238 -10.012  -3.368  0.00  0.00    -0.646 OA
HETATM   14  O           1     -18.943  -9.055  -2.438  0.00  0.00    -0.646 OA
ENDBRANCH  10  12
ENDBRANCH   8  10
ENDBRANCH   1   6
BRANCH   1  15
HETATM   15  C           1     -20.451  -5.471  -6.156  0.00  0.00     0.081 C 
BRANCH  15  16
HETATM   16  C           1     -20.969  -4.907  -7.442  0.00  0.00    -0.056 A 
HETATM   17  C           1     -20.143  -4.858  -8.565  0.00  0.00     0.010 A 
HETATM   18  C           1     -20.625  -4.333  -9.764  0.00  0.00     0.037 A 
HETATM   19  C           1     -21.934  -3.856  -9.839  0.00  0.00     0.065 A 
HETATM   20  C           1     -22.760  -3.905  -8.717  0.00  0.00     0.037 A 
HETATM   21  C           1     -22.278  -4.430  -7.518  0.00  0.00     0.010 A 
BRANCH  19  22
HETATM   22  O           1     -22.404  -3.345 -11.004  0.00  0.00    -0.361 OA
HETATM   23  H           1     -21.679  -2.861 -11.433  0.00  0.00     0.217 HD
ENDBRANCH  19  22
ENDBRANCH  15  16
ENDBRANCH   1  15
TORSDOF 7
ENDMDL
MODEL 9
REMARK VINA RESULT:      -6.2     14.642     18.208
REMARK  7 active torsions:
REMARK  status: ('A' for Active; 'I' for Inactive)
REMARK    1  A    between atoms: C_2  and  C_5 
REMARK    2  A    between atoms: C_2  and  N_17 
REMARK    3  A    between atoms: N_4  and  C_11 
REMARK    4  A    between atoms: C_6  and  O_7 
REMARK    5  A    between atoms: C_11  and  C_23 
REMARK    6  A    between atoms: C_11  and  C_16 
REMARK    7  A    between atoms: C_14  and  C_16 
REMARK       I    between atoms: N_17  and  C_23 
ROOT
HETATM    1  C           1     -22.900  11.050 -12.944  0.00  0.00     0.278 C 
ENDROOT
BRANCH   1   2
HETATM    2  N           1     -22.089  11.984 -12.095  0.00  0.00    -0.066 N 
HETATM    3  H           1     -21.374  11.439 -11.563  0.00  0.00     0.275 HD
HETATM    4  H           1     -21.610  12.684 -12.706  0.00  0.00     0.275 HD
HETATM    5  H           1     -22.719  12.479 -11.424  0.00  0.00     0.275 HD
ENDBRANCH   1   2
BRANCH   1   6
HETATM    6  C           1     -22.852  11.511 -14.381  0.00  0.00     0.249 C 
HETATM    7  O           1     -23.601  12.380 -14.761  0.00  0.00    -0.271 OA
HETATM    8  N           1     -21.963  10.944 -15.254  0.00  0.00    -0.345 N 
HETATM    9  H           1     -21.337  10.215 -14.935  0.00  0.00     0.163 HD
BRANCH   8  10
HETATM   10  C           1     -21.919  11.387 -16.634  0.00  0.00     0.181 C 
HETATM   11  C           1     -20.747  12.341 -16.824  0.00  0.00     0.043 C 
BRANCH  10  12
HETATM   12  C           1     -21.745  10.192 -17.538  0.00  0.00     0.196 C 
HETATM   13  O           1     -21.306   9.116 -17.077  0.00  0.00    -0.646 OA
HETATM   14  O           1     -22.041  10.277 -18.750  0.00  0.00    -0.646 OA
ENDBRANCH  10  12
ENDBRANCH   8  10
ENDBRANCH   1   6
BRANCH   1  15
HETATM   15  C           1     -24.342  11.046 -12.459  0.00  0.00     0.081 C 
BRANCH  15  16
HETATM   16  C           1     -24.704   9.676 -11.977  0.00  0.00    -0.056 A 
HETATM   17  C           1     -23.908   8.583 -12.323  0.00  0.00     0.010 A 
HETATM   18  C           1     -24.244   7.306 -11.873  0.00  0.00     0.037 A 
HETATM   19  C           1     -25.374   7.122 -11.077  0.00  0.00     0.065 A 
HETATM   20  C           1     -26.169   8.214 -10.731  0.00  0.00     0.037 A 
HETATM   21  C           1     -25.834   9.491 -11.180  0.00  0.00     0.010 A 
BRANCH  19  22
HETATM   22  O           1     -25.701   5.881 -10.640  0.00  0.00    -0.361 OA
HETATM   23  H           1     -26.659   5.862 -10.480  0.00  0.00     0.217 HD
ENDBRANCH  19  22
ENDBRANCH  15  16
ENDBRANCH   1  15
TORSDOF 7
ENDMDL
