MODEL 1
REMARK VINA RESULT:      -6.7      0.000      0.000
REMARK  9 active torsions:
REMARK  status: ('A' for Active; 'I' for Inactive)
REMARK    1  A    between atoms: C_2  and  C_11 
REMARK    2  A    between atoms: C_4  and  C_5 
REMARK    3  A    between atoms: C_4  and  C_21 
REMARK    4  A    between atoms: C_4  and  N_24 
REMARK       I    between atoms: C_5  and  N_6 
REMARK    5  A    between atoms: N_6  and  C_10 
REMARK    6  A    between atoms: C_9  and  C_10 
REMARK    7  A    between atoms: C_10  and  C_11 
REMARK       I    between atoms: N_17  and  C_18 
REMARK    8  A    between atoms: C_18  and  C_23 
REMARK    9  A    between atoms: C_21  and  C_23 
ROOT
HETATM    1  C           1     -33.521  -2.836 -11.319  0.00  0.00     0.275 C 
ENDROOT
BRANCH   1   2
HETATM    2  C           1     -34.398  -2.377 -12.458  0.00  0.00     0.249 C 
HETATM    3  O           1     -34.559  -3.087 -13.421  0.00  0.00    -0.271 OA
HETATM    4  N           1     -35.013  -1.154 -12.398  0.00  0.00    -0.344 N 
HETATM    5  H           1     -34.878  -0.558 -11.591  0.00  0.00     0.163 HD
BRANCH   4   6
HETATM    6  C           1     -35.855  -0.712 -13.494  0.00  0.00     0.195 C 
BRANCH   6   7
HETATM    7  C           1     -35.100   0.284 -14.339  0.00  0.00     0.197 C 
HETATM    8  O           1     -34.743  -0.022 -15.497  0.00  0.00    -0.646 OA
HETATM    9  O           1     -34.834   1.416 -13.882  0.00  0.00    -0.646 OA
ENDBRANCH   6   7
BRANCH   6  10
HETATM   10  C           1     -37.111  -0.056 -12.934  0.00  0.00     0.149 C 
BRANCH  10  11
HETATM   11  C           1     -37.132  -0.212 -11.432  0.00  0.00     0.175 C 
HETATM   12  O           1     -36.462   0.561 -10.714  0.00  0.00    -0.648 OA
HETATM   13  O           1     -37.821  -1.113 -10.908  0.00  0.00    -0.648 OA
ENDBRANCH  10  11
ENDBRANCH   6  10
ENDBRANCH   4   6
ENDBRANCH   1   2
BRANCH   1  14
HETATM   14  C           1     -34.215  -3.964 -10.567  0.00  0.00     0.052 C 
BRANCH  14  15
HETATM   15  C           1     -33.508  -5.281 -10.860  0.00  0.00     0.105 C 
BRANCH  15  16
HETATM   16  C           1     -34.502  -6.276 -11.403  0.00  0.00     0.215 C 
HETATM   17  O           1     -34.847  -7.216 -10.727  0.00  0.00    -0.274 OA
HETATM   18  N           1     -35.013  -6.116 -12.663  0.00  0.00    -0.370 N 
HETATM   19  H           1     -35.680  -6.784 -13.028  0.00  0.00     0.159 HD
HETATM   20  H           1     -34.725  -5.329 -13.230  0.00  0.00     0.159 HD
ENDBRANCH  15  16
ENDBRANCH  14  15
ENDBRANCH   1  14
BRANCH   1  21
HETATM   21  N           1     -33.275  -1.689 -10.384  0.00  0.00    -0.066 N 
HETATM   22  H           1     -32.258  -1.644 -10.147  0.00  0.00     0.275 HD
HETATM   23  H           1     -33.829  -1.827  -9.508  0.00  0.00     0.275 HD
HETATM   24  H           1     -33.566  -0.797 -10.843  0.00  0.00     0.275 HD
ENDBRANCH   1  21
TORSDOF 9
ENDMDL
MODEL 2
REMARK VINA RESULT:      -6.3      9.989     11.464
REMARK  9 active torsions:
REMARK  status: ('A' for Active; 'I' for Inactive)
REMARK    1  A    between atoms: C_2  and  C_11 
REMARK    2  A    between atoms: C_4  and  C_5 
REMARK    3  A    between atoms: C_4  and  C_21 
REMARK    4  A    between atoms: C_4  and  N_24 
REMARK       I    between atoms: C_5  and  N_6 
REMARK    5  A    between atoms: N_6  and  C_10 
REMARK    6  A    between atoms: C_9  and  C_10 
REMARK    7  A    between atoms: C_10  and  C_11 
REMARK       I    between atoms: N_17  and  C_18 
REMARK    8  A    between atoms: C_18  and  C_23 
REMARK    9  A    between atoms: C_21  and  C_23 
ROOT
HETATM    1  C           1     -25.127  -6.759 -17.148  0.00  0.00     0.275 C 
ENDROOT
BRANCH   1   2
HETATM    2  C           1     -26.459  -6.924 -16.459  0.00  0.00     0.249 C 
HETATM    3  O           1     -26.506  -7.347 -15.328  0.00  0.00    -0.271 OA
HETATM    4  N           1     -27.615  -6.592 -17.114  0.00  0.00    -0.344 N 
HETATM    5  H           1     -27.576  -6.238 -18.061  0.00  0.00     0.163 HD
BRANCH   4   6
HETATM    6  C           1     -28.895  -6.752 -16.452  0.00  0.00     0.195 C 
BRANCH   6   7
HETATM    7  C           1     -29.877  -7.392 -17.401  0.00  0.00     0.197 C 
HETATM    8  O           1     -29.502  -8.304 -18.169  0.00  0.00    -0.646 OA
HETATM    9  O           1     -31.068  -7.012 -17.418  0.00  0.00    -0.646 OA
ENDBRANCH   6   7
BRANCH   6  10
HETATM   10  C           1     -29.417  -5.386 -16.023  0.00  0.00     0.149 C 
BRANCH  10  11
HETATM   11  C           1     -28.814  -4.319 -16.904  0.00  0.00     0.175 C 
HETATM   12  O           1     -29.307  -4.084 -18.029  0.00  0.00    -0.648 OA
HETATM   13  O           1     -27.822  -3.670 -16.509  0.00  0.00    -0.648 OA
ENDBRANCH  10  11
ENDBRANCH   6  10
ENDBRANCH   4   6
ENDBRANCH   1   2
BRANCH   1  14
HETATM   14  C           1     -25.324  -6.826 -18.657  0.00  0.00     0.052 C 
BRANCH  14  15
HETATM   15  C           1     -23.997  -7.153 -19.329  0.00  0.00     0.105 C 
BRANCH  15  16
HETATM   16  C           1     -24.247  -7.991 -20.558  0.00  0.00     0.215 C 
HETATM   17  O           1     -25.337  -7.989 -21.079  0.00  0.00    -0.274 OA
HETATM   18  N           1     -23.239  -8.755 -21.082  0.00  0.00    -0.370 N 
HETATM   19  H           1     -23.407  -9.318 -21.907  0.00  0.00     0.159 HD
HETATM   20  H           1     -22.327  -8.758 -20.646  0.00  0.00     0.159 HD
ENDBRANCH  15  16
ENDBRANCH  14  15
ENDBRANCH   1  14
BRANCH   1  21
HETATM   21  N           1     -24.201  -7.857 -16.716  0.00  0.00    -0.066 N 
HETATM   22  H           1     -23.220  -7.496 -16.690  0.00  0.00     0.275 HD
HETATM   23  H           1     -24.261  -8.651 -17.393  0.00  0.00     0.275 HD
HETATM   24  H           1     -24.476  -8.190 -15.765  0.00  0.00     0.275 HD
ENDBRANCH   1  21
TORSDOF 9
ENDMDL
MODEL 3
REMARK VINA RESULT:      -6.1     11.723     13.225
REMARK  9 active torsions:
REMARK  status: ('A' for Active; 'I' for Inactive)
REMARK    1  A    between atoms: C_2  and  C_11 
REMARK    2  A    between atoms: C_4  and  C_5 
REMARK    3  A    between atoms: C_4  and  C_21 
REMARK    4  A    between atoms: C_4  and  N_24 
REMARK       I    between atoms: C_5  and  N_6 
REMARK    5  A    between atoms: N_6  and  C_10 
REMARK    6  A    between atoms: C_9  and  C_10 
REMARK    7  A    between atoms: C_10  and  C_11 
REMARK       I    between atoms: N_17  and  C_18 
REMARK    8  A    between atoms: C_18  and  C_23 
REMARK    9  A    between atoms: C_21  and  C_23 
ROOT
HETATM    1  C           1     -25.413  -7.628 -20.298  0.00  0.00     0.275 C 
ENDROOT
BRANCH   1   2
HETATM    2  C           1     -25.324  -6.900 -18.980  0.00  0.00     0.249 C 
HETATM    3  O           1     -24.257  -6.500 -18.581  0.00  0.00    -0.271 OA
HETATM    4  N           1     -26.456  -6.691 -18.236  0.00  0.00    -0.344 N 
HETATM    5  H           1     -27.350  -7.025 -18.570  0.00  0.00     0.163 HD
BRANCH   4   6
HETATM    6  C           1     -26.370  -5.991 -16.968  0.00  0.00     0.195 C 
BRANCH   6   7
HETATM    7  C           1     -26.209  -6.992 -15.851  0.00  0.00     0.197 C 
HETATM    8  O           1     -27.218  -7.506 -15.322  0.00  0.00    -0.646 OA
HETATM    9  O           1     -25.067  -7.309 -15.455  0.00  0.00    -0.646 OA
ENDBRANCH   6   7
BRANCH   6  10
HETATM   10  C           1     -27.643  -5.184 -16.749  0.00  0.00     0.149 C 
BRANCH  10  11
HETATM   11  C           1     -28.667  -5.566 -17.790  0.00  0.00     0.175 C 
HETATM   12  O           1     -29.381  -6.578 -17.623  0.00  0.00    -0.648 OA
HETATM   13  O           1     -28.800  -4.870 -18.820  0.00  0.00    -0.648 OA
ENDBRANCH  10  11
ENDBRANCH   6  10
ENDBRANCH   4   6
ENDBRANCH   1   2
BRANCH   1  14
HETATM   14  C           1     -24.607  -6.876 -21.349  0.00  0.00     0.052 C 
BRANCH  14  15
HETATM   15  C           1     -24.098  -7.857 -22.397  0.00  0.00     0.105 C 
BRANCH  15  16
HETATM   16  C           1     -22.779  -8.437 -21.947  0.00  0.00     0.215 C 
HETATM   17  O           1     -22.027  -8.926 -22.756  0.00  0.00    -0.274 OA
HETATM   18  N           1     -22.436  -8.408 -20.622  0.00  0.00    -0.370 N 
HETATM   19  H           1     -21.551  -8.797 -20.320  0.00  0.00     0.159 HD
HETATM   20  H           1     -23.066  -7.999 -19.945  0.00  0.00     0.159 HD
ENDBRANCH  15  16
ENDBRANCH  14  15
ENDBRANCH   1  14
BRANCH   1  21
HETATM   21  N           1     -26.847  -7.706 -20.731  0.00  0.00    -0.066 N 
HETATM   22  H           1     -27.367  -6.876 -20.364  0.00  0.00     0.275 HD
HETATM   23  H           1     -27.279  -8.580 -20.355  0.00  0.00     0.275 HD
HETATM   24  H           1     -26.896  -7.715 -21.775  0.00  0.00     0.275 HD
ENDBRANCH   1  21
TORSDOF 9
ENDMDL
MODEL 4
REMARK VINA RESULT:      -5.9     11.404     12.775
REMARK  9 active torsions:
REMARK  status: ('A' for Active; 'I' for Inactive)
REMARK    1  A    between atoms: C_2  and  C_11 
REMARK    2  A    between atoms: C_4  and  C_5 
REMARK    3  A    between atoms: C_4  and  C_21 
REMARK    4  A    between atoms: C_4  and  N_24 
REMARK       I    between atoms: C_5  and  N_6 
REMARK    5  A    between atoms: N_6  and  C_10 
REMARK    6  A    between atoms: C_9  and  C_10 
REMARK    7  A    between atoms: C_10  and  C_11 
REMARK       I    between atoms: N_17  and  C_18 
REMARK    8  A    between atoms: C_18  and  C_23 
REMARK    9  A    between atoms: C_21  and  C_23 
ROOT
HETATM    1  C           1     -25.997  -7.661 -20.392  0.00  0.00     0.275 C 
ENDROOT
BRANCH   1   2
HETATM    2  C           1     -26.887  -6.537 -19.919  0.00  0.00     0.249 C 
HETATM    3  O           1     -27.024  -5.548 -20.598  0.00  0.00    -0.271 OA
HETATM    4  N           1     -27.539  -6.640 -18.718  0.00  0.00    -0.344 N 
HETATM    5  H           1     -27.424  -7.469 -18.149  0.00  0.00     0.163 HD
BRANCH   4   6
HETATM    6  C           1     -28.393  -5.560 -18.263  0.00  0.00     0.195 C 
BRANCH   6   7
HETATM    7  C           1     -27.779  -4.911 -17.048  0.00  0.00     0.197 C 
HETATM    8  O           1     -28.362  -3.958 -16.486  0.00  0.00    -0.646 OA
HETATM    9  O           1     -26.689  -5.327 -16.600  0.00  0.00    -0.646 OA
ENDBRANCH   6   7
BRANCH   6  10
HETATM   10  C           1     -29.765  -6.117 -17.905  0.00  0.00     0.149 C 
BRANCH  10  11
HETATM   11  C           1     -29.725  -7.625 -17.955  0.00  0.00     0.175 C 
HETATM   12  O           1     -29.295  -8.271 -16.975  0.00  0.00    -0.648 OA
HETATM   13  O           1     -30.122  -8.226 -18.975  0.00  0.00    -0.648 OA
ENDBRANCH  10  11
ENDBRANCH   6  10
ENDBRANCH   4   6
ENDBRANCH   1   2
BRANCH   1  14
HETATM   14  C           1     -24.805  -7.083 -21.143  0.00  0.00     0.052 C 
BRANCH  14  15
HETATM   15  C           1     -24.357  -8.065 -22.217  0.00  0.00     0.105 C 
BRANCH  15  16
HETATM   16  C           1     -22.924  -8.466 -21.967  0.00  0.00     0.215 C 
HETATM   17  O           1     -22.188  -8.690 -22.899  0.00  0.00    -0.274 OA
HETATM   18  N           1     -22.459  -8.577 -20.685  0.00  0.00    -0.370 N 
HETATM   19  H           1     -21.497  -8.847 -20.517  0.00  0.00     0.159 HD
HETATM   20  H           1     -23.075  -8.391 -19.905  0.00  0.00     0.159 HD
ENDBRANCH  15  16
ENDBRANCH  14  15
ENDBRANCH   1  14
BRANCH   1  21
HETATM   21  N           1     -26.774  -8.561 -21.306  0.00  0.00    -0.066 N 
HETATM   22  H           1     -26.141  -9.301 -21.687  0.00  0.00     0.275 HD
HETATM   23  H           1     -27.168  -8.002 -22.096  0.00  0.00     0.275 HD
HETATM   24  H           1     -27.553  -9.010 -20.774  0.00  0.00     0.275 HD
ENDBRANCH   1  21
TORSDOF 9
ENDMDL
MODEL 5
REMARK VINA RESULT:      -5.8     14.063     16.838
REMARK  9 active torsions:
REMARK  status: ('A' for Active; 'I' for Inactive)
REMARK    1  A    between atoms: C_2  and  C_11 
REMARK    2  A    between atoms: C_4  and  C_5 
REMARK    3  A    between atoms: C_4  and  C_21 
REMARK    4  A    between atoms: C_4  and  N_24 
REMARK       I    between atoms: C_5  and  N_6 
REMARK    5  A    between atoms: N_6  and  C_10 
REMARK    6  A    between atoms: C_9  and  C_10 
REMARK    7  A    between atoms: C_10  and  C_11 
REMARK       I    between atoms: N_17  and  C_18 
REMARK    8  A    between atoms: C_18  and  C_23 
REMARK    9  A    between atoms: C_21  and  C_23 
ROOT
HETATM    1  C           1     -20.430  -5.003  -6.525  0.00  0.00     0.275 C 
ENDROOT
BRANCH   1   2
HETATM    2  C           1     -21.346  -5.791  -5.622  0.00  0.00     0.249 C 
HETATM    3  O           1     -22.541  -5.625  -5.679  0.00  0.00    -0.271 OA
HETATM    4  N           1     -20.822  -6.698  -4.739  0.00  0.00    -0.344 N 
HETATM    5  H           1     -19.821  -6.838  -4.691  0.00  0.00     0.163 HD
BRANCH   4   6
HETATM    6  C           1     -21.703  -7.455  -3.870  0.00  0.00     0.195 C 
BRANCH   6   7
HETATM    7  C           1     -21.659  -6.876  -2.479  0.00  0.00     0.197 C 
HETATM    8  O           1     -22.335  -5.861  -2.202  0.00  0.00    -0.646 OA
HETATM    9  O           1     -20.948  -7.410  -1.601  0.00  0.00    -0.646 OA
ENDBRANCH   6   7
BRANCH   6  10
HETATM   10  C           1     -21.248  -8.909  -3.831  0.00  0.00     0.149 C 
BRANCH  10  11
HETATM   11  C           1     -19.938  -9.045  -4.568  0.00  0.00     0.175 C 
HETATM   12  O           1     -18.858  -8.915  -3.953  0.00  0.00    -0.648 OA
HETATM   13  O           1     -19.933  -9.289  -5.794  0.00  0.00    -0.648 OA
ENDBRANCH  10  11
ENDBRANCH   6  10
ENDBRANCH   4   6
ENDBRANCH   1   2
BRANCH   1  14
HETATM   14  C           1     -21.195  -3.833  -7.129  0.00  0.00     0.052 C 
BRANCH  14  15
HETATM   15  C           1     -21.428  -4.089  -8.612  0.00  0.00     0.105 C 
BRANCH  15  16
HETATM   16  C           1     -22.882  -3.859  -8.941  0.00  0.00     0.215 C 
HETATM   17  O           1     -23.198  -3.460 -10.037  0.00  0.00    -0.274 OA
HETATM   18  N           1     -23.844  -4.102  -7.998  0.00  0.00    -0.370 N 
HETATM   19  H           1     -24.820  -3.948  -8.219  0.00  0.00     0.159 HD
HETATM   20  H           1     -23.581  -4.436  -7.081  0.00  0.00     0.159 HD
ENDBRANCH  15  16
ENDBRANCH  14  15
ENDBRANCH   1  14
BRANCH   1  21
HETATM   21  N           1     -19.927  -5.890  -7.625  0.00  0.00    -0.066 N 
HETATM   22  H           1     -20.614  -5.893  -8.412  0.00  0.00     0.275 HD
HETATM   23  H           1     -19.810  -6.863  -7.262  0.00  0.00     0.275 HD
HETATM   24  H           1     -19.006  -5.534  -7.966  0.00  0.00     0.275 HD
ENDBRANCH   1  21
TORSDOF 9
ENDMDL
MODEL 6
REMARK VINA RESULT:      -5.8     13.057     14.750
REMARK  9 active torsions:
REMARK  status: ('A' for Active; 'I' for Inactive)
REMARK    1  A    between atoms: C_2  and  C_11 
REMARK    2  A    between atoms: C_4  and  C_5 
REMARK    3  A    between atoms: C_4  and  C_21 
REMARK    4  A    between atoms: C_4  and  N_24 
REMARK       I    between atoms: C_5  and  N_6 
REMARK    5  A    between atoms: N_6  and  C_10 
REMARK    6  A    between atoms: C_9  and  C_10 
REMARK    7  A    between atoms: C_10  and  C_11 
REMARK       I    between atoms: N_17  and  C_18 
REMARK    8  A    between atoms: C_18  and  C_23 
REMARK    9  A    between atoms: C_21  and  C_23 
ROOT
HETATM    1  C           1     -21.259  -5.935  -6.814  0.00  0.00     0.275 C 
ENDROOT
BRANCH   1   2
HETATM    2  C           1     -21.754  -4.754  -7.613  0.00  0.00     0.249 C 
HETATM    3  O           1     -21.683  -3.640  -7.152  0.00  0.00    -0.271 OA
HETATM    4  N           1     -22.284  -4.946  -8.862  0.00  0.00    -0.344 N 
HETATM    5  H           1     -22.344  -5.880  -9.248  0.00  0.00     0.163 HD
BRANCH   4   6
HETATM    6  C           1     -22.761  -3.811  -9.629  0.00  0.00     0.195 C 
BRANCH   6   7
HETATM    7  C           1     -24.268  -3.828  -9.669  0.00  0.00     0.197 C 
HETATM    8  O           1     -24.877  -4.903  -9.863  0.00  0.00    -0.646 OA
HETATM    9  O           1     -24.910  -2.769  -9.505  0.00  0.00    -0.646 OA
ENDBRANCH   6   7
BRANCH   6  10
HETATM   10  C           1     -22.213  -3.894 -11.048  0.00  0.00     0.149 C 
BRANCH  10  11
HETATM   11  C           1     -20.711  -3.742 -11.017  0.00  0.00     0.175 C 
HETATM   12  O           1     -19.990  -4.717 -10.713  0.00  0.00    -0.648 OA
HETATM   13  O           1     -20.189  -2.641 -11.294  0.00  0.00    -0.648 OA
ENDBRANCH  10  11
ENDBRANCH   6  10
ENDBRANCH   4   6
ENDBRANCH   1   2
BRANCH   1  14
HETATM   14  C           1     -21.180  -5.555  -5.342  0.00  0.00     0.052 C 
BRANCH  14  15
HETATM   15  C           1     -20.819  -6.784  -4.518  0.00  0.00     0.105 C 
BRANCH  15  16
HETATM   16  C           1     -21.463  -6.687  -3.158  0.00  0.00     0.215 C 
HETATM   17  O           1     -22.427  -5.977  -2.995  0.00  0.00    -0.274 OA
HETATM   18  N           1     -20.956  -7.403  -2.107  0.00  0.00    -0.370 N 
HETATM   19  H           1     -21.388  -7.338  -1.194  0.00  0.00     0.159 HD
HETATM   20  H           1     -20.148  -7.997  -2.243  0.00  0.00     0.159 HD
ENDBRANCH  15  16
ENDBRANCH  14  15
ENDBRANCH   1  14
BRANCH   1  21
HETATM   21  N           1     -19.897  -6.331  -7.301  0.00  0.00    -0.066 N 
HETATM   22  H           1     -19.244  -6.405  -6.488  0.00  0.00     0.275 HD
HETATM   23  H           1     -19.541  -5.610  -7.969  0.00  0.00     0.275 HD
HETATM   24  H           1     -19.955  -7.255  -7.786  0.00  0.00     0.275 HD
ENDBRANCH   1  21
TORSDOF 9
ENDMDL
MODEL 7
REMARK VINA RESULT:      -5.6      9.593     11.647
REMARK  9 active torsions:
REMARK  status: ('A' for Active; 'I' for Inactive)
REMARK    1  A    between atoms: C_2  and  C_11 
REMARK    2  A    between atoms: C_4  and  C_5 
REMARK    3  A    between atoms: C_4  and  C_21 
REMARK    4  A    between atoms: C_4  and  N_24 
REMARK       I    between atoms: C_5  and  N_6 
REMARK    5  A    between atoms: N_6  and  C_10 
REMARK    6  A    between atoms: C_9  and  C_10 
REMARK    7  A    between atoms: C_10  and  C_11 
REMARK       I    between atoms: N_17  and  C_18 
REMARK    8  A    between atoms: C_18  and  C_23 
REMARK    9  A    between atoms: C_21  and  C_23 
ROOT
HETATM    1  C           1     -30.596  -6.189 -17.902  0.00  0.00     0.275 C 
ENDROOT
BRANCH   1   2
HETATM    2  C           1     -29.365  -6.936 -18.352  0.00  0.00     0.249 C 
HETATM    3  O           1     -29.427  -8.121 -18.579  0.00  0.00    -0.271 OA
HETATM    4  N           1     -28.177  -6.271 -18.506  0.00  0.00    -0.344 N 
HETATM    5  H           1     -28.125  -5.278 -18.316  0.00  0.00     0.163 HD
BRANCH   4   6
HETATM    6  C           1     -26.994  -6.990 -18.937  0.00  0.00     0.195 C 
BRANCH   6   7
HETATM    7  C           1     -25.804  -6.530 -18.134  0.00  0.00     0.197 C 
HETATM    8  O           1     -24.646  -6.723 -18.564  0.00  0.00    -0.646 OA
HETATM    9  O           1     -25.974  -5.952 -17.039  0.00  0.00    -0.646 OA
ENDBRANCH   6   7
BRANCH   6  10
HETATM   10  C           1     -26.747  -6.716 -20.416  0.00  0.00     0.149 C 
BRANCH  10  11
HETATM   11  C           1     -26.539  -8.023 -21.141  0.00  0.00     0.175 C 
HETATM   12  O           1     -27.515  -8.764 -21.389  0.00  0.00    -0.648 OA
HETATM   13  O           1     -25.390  -8.365 -21.494  0.00  0.00    -0.648 OA
ENDBRANCH  10  11
ENDBRANCH   6  10
ENDBRANCH   4   6
ENDBRANCH   1   2
BRANCH   1  14
HETATM   14  C           1     -30.206  -5.148 -16.861  0.00  0.00     0.052 C 
BRANCH  14  15
HETATM   15  C           1     -30.403  -3.753 -17.438  0.00  0.00     0.105 C 
BRANCH  15  16
HETATM   16  C           1     -29.156  -2.933 -17.212  0.00  0.00     0.215 C 
HETATM   17  O           1     -28.134  -3.472 -16.859  0.00  0.00    -0.274 OA
HETATM   18  N           1     -29.184  -1.578 -17.407  0.00  0.00    -0.370 N 
HETATM   19  H           1     -28.348  -1.028 -17.255  0.00  0.00     0.159 HD
HETATM   20  H           1     -30.039  -1.126 -17.702  0.00  0.00     0.159 HD
ENDBRANCH  15  16
ENDBRANCH  14  15
ENDBRANCH   1  14
BRANCH   1  21
HETATM   21  N           1     -31.574  -7.153 -17.301  0.00  0.00    -0.066 N 
HETATM   22  H           1     -31.685  -7.978 -17.935  0.00  0.00     0.275 HD
HETATM   23  H           1     -32.499  -6.683 -17.179  0.00  0.00     0.275 HD
HETATM   24  H           1     -31.221  -7.474 -16.371  0.00  0.00     0.275 HD
ENDBRANCH   1  21
TORSDOF 9
ENDMDL
MODEL 8
REMARK VINA RESULT:      -5.5     13.367     15.870
REMARK  9 active torsions:
REMARK  status: ('A' for Active; 'I' for Inactive)
REMARK    1  A    between atoms: C_2  and  C_11 
REMARK    2  A    between atoms: C_4  and  C_5 
REMARK    3  A    between atoms: C_4  and  C_21 
REMARK    4  A    between atoms: C_4  and  N_24 
REMARK       I    between atoms: C_5  and  N_6 
REMARK    5  A    between atoms: N_6  and  C_10 
REMARK    6  A    between atoms: C_9  and  C_10 
REMARK    7  A    between atoms: C_10  and  C_11 
REMARK       I    between atoms: N_17  and  C_18 
REMARK    8  A    between atoms: C_18  and  C_23 
REMARK    9  A    between atoms: C_21  and  C_23 
ROOT
HETATM    1  C           1     -21.199  -3.854  -7.900  0.00  0.00     0.275 C 
ENDROOT
BRANCH   1   2
HETATM    2  C           1     -20.694  -4.717  -6.769  0.00  0.00     0.249 C 
HETATM    3  O           1     -19.546  -4.626  -6.406  0.00  0.00    -0.271 OA
HETATM    4  N           1     -21.540  -5.603  -6.155  0.00  0.00    -0.344 N 
HETATM    5  H           1     -22.502  -5.679  -6.459  0.00  0.00     0.163 HD
BRANCH   4   6
HETATM    6  C           1     -21.054  -6.433  -5.069  0.00  0.00     0.195 C 
BRANCH   6   7
HETATM    7  C           1     -20.544  -7.739  -5.623  0.00  0.00     0.197 C 
HETATM    8  O           1     -19.314  -7.935  -5.730  0.00  0.00    -0.646 OA
HETATM    9  O           1     -21.350  -8.627  -5.973  0.00  0.00    -0.646 OA
ENDBRANCH   6   7
BRANCH   6  10
HETATM   10  C           1     -22.192  -6.703  -4.092  0.00  0.00     0.149 C 
BRANCH  10  11
HETATM   11  C           1     -21.686  -6.556  -2.677  0.00  0.00     0.175 C 
HETATM   12  O           1     -22.217  -5.727  -1.907  0.00  0.00    -0.648 OA
HETATM   13  O           1     -20.736  -7.262  -2.277  0.00  0.00    -0.648 OA
ENDBRANCH  10  11
ENDBRANCH   6  10
ENDBRANCH   4   6
ENDBRANCH   1   2
BRANCH   1  14
HETATM   14  C           1     -22.660  -4.182  -8.177  0.00  0.00     0.052 C 
BRANCH  14  15
HETATM   15  C           1     -22.871  -4.336  -9.677  0.00  0.00     0.105 C 
BRANCH  15  16
HETATM   16  C           1     -24.176  -3.691 -10.072  0.00  0.00     0.215 C 
HETATM   17  O           1     -24.544  -3.725 -11.222  0.00  0.00    -0.274 OA
HETATM   18  N           1     -24.944  -3.067  -9.126  0.00  0.00    -0.370 N 
HETATM   19  H           1     -25.820  -2.633  -9.391  0.00  0.00     0.159 HD
HETATM   20  H           1     -24.637  -3.037  -8.163  0.00  0.00     0.159 HD
ENDBRANCH  15  16
ENDBRANCH  14  15
ENDBRANCH   1  14
BRANCH   1  21
HETATM   21  N           1     -20.386  -4.120  -9.132  0.00  0.00    -0.066 N 
HETATM   22  H           1     -20.042  -5.107  -9.117  0.00  0.00     0.275 HD
HETATM   23  H           1     -19.569  -3.469  -9.159  0.00  0.00     0.275 HD
HETATM   24  H           1     -20.978  -3.970  -9.980  0.00  0.00     0.275 HD
ENDBRANCH   1  21
TORSDOF 9
ENDMDL
MODEL 9
REMARK VINA RESULT:      -5.5     12.419     14.055
REMARK  9 active torsions:
REMARK  status: ('A' for Active; 'I' for Inactive)
REMARK    1  A    between atoms: C_2  and  C_11 
REMARK    2  A    between atoms: C_4  and  C_5 
REMARK    3  A    between atoms: C_4  and  C_21 
REMARK    4  A    between atoms: C_4  and  N_24 
REMARK       I    between atoms: C_5  and  N_6 
REMARK    5  A    between atoms: N_6  and  C_10 
REMARK    6  A    between atoms: C_9  and  C_10 
REMARK    7  A    between atoms: C_10  and  C_11 
REMARK       I    between atoms: N_17  and  C_18 
REMARK    8  A    between atoms: C_18  and  C_23 
REMARK    9  A    between atoms: C_21  and  C_23 
ROOT
HETATM    1  C           1     -22.330  -5.014  -6.167  0.00  0.00     0.275 C 
ENDROOT
BRANCH   1   2
HETATM    2  C           1     -22.237  -4.283  -7.484  0.00  0.00     0.249 C 
HETATM    3  O           1     -21.248  -3.643  -7.751  0.00  0.00    -0.271 OA
HETATM    4  N           1     -23.274  -4.346  -8.377  0.00  0.00    -0.344 N 
HETATM    5  H           1     -24.103  -4.882  -8.153  0.00  0.00     0.163 HD
BRANCH   4   6
HETATM    6  C           1     -23.185  -3.642  -9.642  0.00  0.00     0.195 C 
BRANCH   6   7
HETATM    7  C           1     -24.573  -3.346 -10.153  0.00  0.00     0.197 C 
HETATM    8  O           1     -25.409  -2.792  -9.407  0.00  0.00    -0.646 OA
HETATM    9  O           1     -24.887  -3.653 -11.323  0.00  0.00    -0.646 OA
ENDBRANCH   6   7
BRANCH   6  10
HETATM   10  C           1     -22.444  -4.509 -10.652  0.00  0.00     0.149 C 
BRANCH  10  11
HETATM   11  C           1     -21.293  -3.727 -11.238  0.00  0.00     0.175 C 
HETATM   12  O           1     -20.136  -4.198 -11.204  0.00  0.00    -0.648 OA
HETATM   13  O           1     -21.499  -2.609 -11.757  0.00  0.00    -0.648 OA
ENDBRANCH  10  11
ENDBRANCH   6  10
ENDBRANCH   4   6
ENDBRANCH   1   2
BRANCH   1  14
HETATM   14  C           1     -21.381  -6.205  -6.180  0.00  0.00     0.052 C 
BRANCH  14  15
HETATM   15  C           1     -21.379  -6.868  -4.809  0.00  0.00     0.105 C 
BRANCH  15  16
HETATM   16  C           1     -21.352  -8.367  -4.973  0.00  0.00     0.215 C 
HETATM   17  O           1     -21.152  -8.852  -6.062  0.00  0.00    -0.274 OA
HETATM   18  N           1     -21.552  -9.179  -3.889  0.00  0.00    -0.370 N 
HETATM   19  H           1     -21.534 -10.185  -3.999  0.00  0.00     0.159 HD
HETATM   20  H           1     -21.720  -8.773  -2.977  0.00  0.00     0.159 HD
ENDBRANCH  15  16
ENDBRANCH  14  15
ENDBRANCH   1  14
BRANCH   1  21
HETATM   21  N           1     -23.735  -5.498  -5.963  0.00  0.00    -0.066 N 
HETATM   22  H           1     -24.292  -4.756  -5.479  0.00  0.00     0.275 HD
HETATM   23  H           1     -23.726  -6.363  -5.377  0.00  0.00     0.275 HD
HETATM   24  H           1     -24.169  -5.710  -6.890  0.00  0.00     0.275 HD
ENDBRANCH   1  21
TORSDOF 9
ENDMDL
