MODEL 1
REMARK VINA RESULT:      -6.1      0.000      0.000
REMARK  9 active torsions:
REMARK  status: ('A' for Active; 'I' for Inactive)
REMARK       I    between atoms: C_5  and  N_10 
REMARK    1  A    between atoms: C_5  and  C_6 
REMARK    2  A    between atoms: C_6  and  C_7 
REMARK    3  A    between atoms: C_6  and  N_8 
REMARK    4  A    between atoms: C_7  and  S_21 
REMARK    5  A    between atoms: N_10  and  C_15 
REMARK    6  A    between atoms: C_13  and  C_20 
REMARK    7  A    between atoms: C_13  and  C_14 
REMARK    8  A    between atoms: C_14  and  C_15 
REMARK    9  A    between atoms: C_15  and  C_16 
ROOT
HETATM    1  C           1     -26.451  -6.461 -18.591  0.00  0.00     0.249 C 
HETATM    2  O           1     -26.283  -6.012 -17.482  0.00  0.00    -0.271 OA
HETATM    3  N           1     -27.719  -6.706 -19.046  0.00  0.00    -0.345 N 
HETATM    4  H           1     -27.859  -7.082 -19.975  0.00  0.00     0.163 HD
ENDROOT
BRANCH   3   5
HETATM    5  C           1     -28.861  -6.427 -18.196  0.00  0.00     0.186 C 
BRANCH   5   6
HETATM    6  C           1     -29.436  -5.063 -18.553  0.00  0.00     0.046 C 
BRANCH   6   7
HETATM    7  C           1     -29.690  -4.269 -17.278  0.00  0.00     0.116 C 
BRANCH   7   8
HETATM    8  C           1     -31.150  -3.891 -17.202  0.00  0.00     0.172 C 
HETATM    9  O           1     -31.601  -2.992 -17.943  0.00  0.00    -0.648 OA
HETATM   10  O           1     -31.907  -4.478 -16.399  0.00  0.00    -0.648 OA
ENDBRANCH   7   8
ENDBRANCH   6   7
ENDBRANCH   5   6
BRANCH   5  11
HETATM   11  C           1     -29.913  -7.488 -18.405  0.00  0.00     0.196 C 
HETATM   12  O           1     -31.021  -7.391 -17.834  0.00  0.00    -0.646 OA
HETATM   13  O           1     -29.676  -8.464 -19.150  0.00  0.00    -0.646 OA
ENDBRANCH   5  11
ENDBRANCH   3   5
BRANCH   1  14
HETATM   14  C           1     -25.263  -6.751 -19.475  0.00  0.00     0.283 C 
BRANCH  14  15
HETATM   15  C           1     -25.719  -7.534 -20.699  0.00  0.00     0.113 C 
BRANCH  15  16
HETATM   16  S           1     -24.282  -7.930 -21.734  0.00  0.00    -0.180 SA
HETATM   17  H           1     -23.424  -7.105 -21.106  0.00  0.00     0.101 HD
ENDBRANCH  15  16
ENDBRANCH  14  15
BRANCH  14  18
HETATM   18  N           1     -24.256  -7.558 -18.711  0.00  0.00    -0.066 N 
HETATM   19  H           1     -24.409  -8.575 -18.901  0.00  0.00     0.275 HD
HETATM   20  H           1     -24.368  -7.375 -17.688  0.00  0.00     0.275 HD
HETATM   21  H           1     -23.293  -7.288 -19.010  0.00  0.00     0.275 HD
ENDBRANCH  14  18
ENDBRANCH   1  14
TORSDOF 9
ENDMDL
MODEL 2
REMARK VINA RESULT:      -5.8      1.802      2.998
REMARK  9 active torsions:
REMARK  status: ('A' for Active; 'I' for Inactive)
REMARK       I    between atoms: C_5  and  N_10 
REMARK    1  A    between atoms: C_5  and  C_6 
REMARK    2  A    between atoms: C_6  and  C_7 
REMARK    3  A    between atoms: C_6  and  N_8 
REMARK    4  A    between atoms: C_7  and  S_21 
REMARK    5  A    between atoms: N_10  and  C_15 
REMARK    6  A    between atoms: C_13  and  C_20 
REMARK    7  A    between atoms: C_13  and  C_14 
REMARK    8  A    between atoms: C_14  and  C_15 
REMARK    9  A    between atoms: C_15  and  C_16 
ROOT
HETATM    1  C           1     -25.402  -6.852 -18.978  0.00  0.00     0.249 C 
HETATM    2  O           1     -24.343  -6.460 -18.547  0.00  0.00    -0.271 OA
HETATM    3  N           1     -26.551  -6.643 -18.263  0.00  0.00    -0.345 N 
HETATM    4  H           1     -27.438  -6.971 -18.623  0.00  0.00     0.163 HD
ENDROOT
BRANCH   3   5
HETATM    5  C           1     -26.498  -5.951 -16.989  0.00  0.00     0.186 C 
BRANCH   5   6
HETATM    6  C           1     -27.739  -5.083 -16.831  0.00  0.00     0.046 C 
BRANCH   6   7
HETATM    7  C           1     -28.609  -5.210 -18.075  0.00  0.00     0.116 C 
BRANCH   7   8
HETATM    8  C           1     -29.761  -6.143 -17.789  0.00  0.00     0.172 C 
HETATM    9  O           1     -29.651  -7.363 -18.034  0.00  0.00    -0.648 OA
HETATM   10  O           1     -30.824  -5.695 -17.309  0.00  0.00    -0.648 OA
ENDBRANCH   7   8
ENDBRANCH   6   7
ENDBRANCH   5   6
BRANCH   5  11
HETATM   11  C           1     -26.445  -6.963 -15.871  0.00  0.00     0.196 C 
HETATM   12  O           1     -27.504  -7.389 -15.362  0.00  0.00    -0.646 OA
HETATM   13  O           1     -25.341  -7.374 -15.453  0.00  0.00    -0.646 OA
ENDBRANCH   5  11
ENDBRANCH   3   5
BRANCH   1  14
HETATM   14  C           1     -25.458  -7.571 -20.303  0.00  0.00     0.283 C 
BRANCH  14  15
HETATM   15  C           1     -24.838  -6.695 -21.383  0.00  0.00     0.113 C 
BRANCH  15  16
HETATM   16  S           1     -23.883  -7.729 -22.528  0.00  0.00    -0.180 SA
HETATM   17  H           1     -24.837  -7.814 -23.472  0.00  0.00     0.101 HD
ENDBRANCH  15  16
ENDBRANCH  14  15
BRANCH  14  18
HETATM   18  N           1     -26.887  -7.862 -20.654  0.00  0.00    -0.066 N 
HETATM   19  H           1     -27.055  -8.893 -20.600  0.00  0.00     0.275 HD
HETATM   20  H           1     -27.081  -7.528 -21.624  0.00  0.00     0.275 HD
HETATM   21  H           1     -27.518  -7.370 -19.982  0.00  0.00     0.275 HD
ENDBRANCH  14  18
ENDBRANCH   1  14
TORSDOF 9
ENDMDL
MODEL 3
REMARK VINA RESULT:      -5.6      1.984      3.455
REMARK  9 active torsions:
REMARK  status: ('A' for Active; 'I' for Inactive)
REMARK       I    between atoms: C_5  and  N_10 
REMARK    1  A    between atoms: C_5  and  C_6 
REMARK    2  A    between atoms: C_6  and  C_7 
REMARK    3  A    between atoms: C_6  and  N_8 
REMARK    4  A    between atoms: C_7  and  S_21 
REMARK    5  A    between atoms: N_10  and  C_15 
REMARK    6  A    between atoms: C_13  and  C_20 
REMARK    7  A    between atoms: C_13  and  C_14 
REMARK    8  A    between atoms: C_14  and  C_15 
REMARK    9  A    between atoms: C_15  and  C_16 
ROOT
HETATM    1  C           1     -26.858  -6.460 -19.988  0.00  0.00     0.249 C 
HETATM    2  O           1     -27.075  -5.526 -20.723  0.00  0.00    -0.271 OA
HETATM    3  N           1     -27.360  -6.460 -18.714  0.00  0.00    -0.345 N 
HETATM    4  H           1     -27.178  -7.242 -18.098  0.00  0.00     0.163 HD
ENDROOT
BRANCH   3   5
HETATM    5  C           1     -28.152  -5.338 -18.247  0.00  0.00     0.186 C 
BRANCH   5   6
HETATM    6  C           1     -29.571  -5.808 -17.955  0.00  0.00     0.046 C 
BRANCH   6   7
HETATM    7  C           1     -29.552  -7.284 -17.581  0.00  0.00     0.116 C 
BRANCH   7   8
HETATM    8  C           1     -30.195  -8.090 -18.683  0.00  0.00     0.172 C 
HETATM    9  O           1     -31.433  -8.048 -18.846  0.00  0.00    -0.648 OA
HETATM   10  O           1     -29.490  -8.801 -19.431  0.00  0.00    -0.648 OA
ENDBRANCH   7   8
ENDBRANCH   6   7
ENDBRANCH   5   6
BRANCH   5  11
HETATM   11  C           1     -27.537  -4.780 -16.987  0.00  0.00     0.196 C 
HETATM   12  O           1     -28.027  -3.762 -16.450  0.00  0.00    -0.646 OA
HETATM   13  O           1     -26.538  -5.335 -16.481  0.00  0.00    -0.646 OA
ENDBRANCH   5  11
ENDBRANCH   3   5
BRANCH   1  14
HETATM   14  C           1     -26.034  -7.627 -20.474  0.00  0.00     0.283 C 
BRANCH  14  15
HETATM   15  C           1     -24.946  -7.124 -21.413  0.00  0.00     0.113 C 
BRANCH  15  16
HETATM   16  S           1     -23.587  -8.327 -21.465  0.00  0.00    -0.180 SA
HETATM   17  H           1     -23.177  -8.023 -22.709  0.00  0.00     0.101 HD
ENDBRANCH  15  16
ENDBRANCH  14  15
BRANCH  14  18
HETATM   18  N           1     -26.918  -8.593 -21.205  0.00  0.00    -0.066 N 
HETATM   19  H           1     -27.636  -8.973 -20.547  0.00  0.00     0.275 HD
HETATM   20  H           1     -26.339  -9.378 -21.580  0.00  0.00     0.275 HD
HETATM   21  H           1     -27.393  -8.102 -21.995  0.00  0.00     0.275 HD
ENDBRANCH  14  18
ENDBRANCH   1  14
TORSDOF 9
ENDMDL
MODEL 4
REMARK VINA RESULT:      -5.5      1.780      3.477
REMARK  9 active torsions:
REMARK  status: ('A' for Active; 'I' for Inactive)
REMARK       I    between atoms: C_5  and  N_10 
REMARK    1  A    between atoms: C_5  and  C_6 
REMARK    2  A    between atoms: C_6  and  C_7 
REMARK    3  A    between atoms: C_6  and  N_8 
REMARK    4  A    between atoms: C_7  and  S_21 
REMARK    5  A    between atoms: N_10  and  C_15 
REMARK    6  A    between atoms: C_13  and  C_20 
REMARK    7  A    between atoms: C_13  and  C_14 
REMARK    8  A    between atoms: C_14  and  C_15 
REMARK    9  A    between atoms: C_15  and  C_16 
ROOT
HETATM    1  C           1     -28.036  -6.330 -19.058  0.00  0.00     0.249 C 
HETATM    2  O           1     -28.814  -7.241 -19.222  0.00  0.00    -0.271 OA
HETATM    3  N           1     -28.431  -5.206 -18.384  0.00  0.00    -0.345 N 
HETATM    4  H           1     -27.780  -4.443 -18.247  0.00  0.00     0.163 HD
ENDROOT
BRANCH   3   5
HETATM    5  C           1     -29.783  -5.107 -17.868  0.00  0.00     0.186 C 
BRANCH   5   6
HETATM    6  C           1     -29.911  -5.964 -16.616  0.00  0.00     0.046 C 
BRANCH   6   7
HETATM    7  C           1     -28.952  -5.451 -15.549  0.00  0.00     0.116 C 
BRANCH   7   8
HETATM    8  C           1     -27.753  -6.365 -15.469  0.00  0.00     0.172 C 
HETATM    9  O           1     -26.632  -5.959 -15.842  0.00  0.00    -0.648 OA
HETATM   10  O           1     -27.882  -7.528 -15.029  0.00  0.00    -0.648 OA
ENDBRANCH   7   8
ENDBRANCH   6   7
ENDBRANCH   5   6
BRANCH   5  11
HETATM   11  C           1     -30.086  -3.668 -17.527  0.00  0.00     0.196 C 
HETATM   12  O           1     -29.153  -2.846 -17.399  0.00  0.00    -0.646 OA
HETATM   13  O           1     -31.270  -3.299 -17.372  0.00  0.00    -0.646 OA
ENDBRANCH   5  11
ENDBRANCH   3   5
BRANCH   1  14
HETATM   14  C           1     -26.630  -6.433 -19.595  0.00  0.00     0.283 C 
BRANCH  14  15
HETATM   15  C           1     -26.578  -7.497 -20.683  0.00  0.00     0.113 C 
BRANCH  15  16
HETATM   16  S           1     -24.849  -7.828 -21.125  0.00  0.00    -0.180 SA
HETATM   17  H           1     -24.317  -6.878 -20.335  0.00  0.00     0.101 HD
ENDBRANCH  15  16
ENDBRANCH  14  15
BRANCH  14  18
HETATM   18  N           1     -25.696  -6.810 -18.483  0.00  0.00    -0.066 N 
HETATM   19  H           1     -26.170  -6.656 -17.564  0.00  0.00     0.275 HD
HETATM   20  H           1     -24.837  -6.219 -18.536  0.00  0.00     0.275 HD
HETATM   21  H           1     -25.433  -7.817 -18.575  0.00  0.00     0.275 HD
ENDBRANCH  14  18
ENDBRANCH   1  14
TORSDOF 9
ENDMDL
MODEL 5
REMARK VINA RESULT:      -5.5     12.587     13.817
REMARK  9 active torsions:
REMARK  status: ('A' for Active; 'I' for Inactive)
REMARK       I    between atoms: C_5  and  N_10 
REMARK    1  A    between atoms: C_5  and  C_6 
REMARK    2  A    between atoms: C_6  and  C_7 
REMARK    3  A    between atoms: C_6  and  N_8 
REMARK    4  A    between atoms: C_7  and  S_21 
REMARK    5  A    between atoms: N_10  and  C_15 
REMARK    6  A    between atoms: C_13  and  C_20 
REMARK    7  A    between atoms: C_13  and  C_14 
REMARK    8  A    between atoms: C_14  and  C_15 
REMARK    9  A    between atoms: C_15  and  C_16 
ROOT
HETATM    1  C           1     -21.195  -6.304  -5.971  0.00  0.00     0.249 C 
HETATM    2  O           1     -21.198  -7.299  -6.657  0.00  0.00    -0.271 OA
HETATM    3  N           1     -21.364  -5.074  -6.547  0.00  0.00    -0.345 N 
HETATM    4  H           1     -21.362  -4.241  -5.973  0.00  0.00     0.163 HD
ENDROOT
BRANCH   3   5
HETATM    5  C           1     -21.547  -4.964  -7.982  0.00  0.00     0.186 C 
BRANCH   5   6
HETATM    6  C           1     -22.586  -3.892  -8.280  0.00  0.00     0.046 C 
BRANCH   6   7
HETATM    7  C           1     -23.655  -4.464  -9.202  0.00  0.00     0.116 C 
BRANCH   7   8
HETATM    8  C           1     -23.833  -3.553 -10.393  0.00  0.00     0.172 C 
HETATM    9  O           1     -22.835  -3.167 -11.038  0.00  0.00    -0.648 OA
HETATM   10  O           1     -24.978  -3.185 -10.733  0.00  0.00    -0.648 OA
ENDBRANCH   7   8
ENDBRANCH   6   7
ENDBRANCH   5   6
BRANCH   5  11
HETATM   11  C           1     -20.235  -4.587  -8.627  0.00  0.00     0.196 C 
HETATM   12  O           1     -20.081  -4.729  -9.860  0.00  0.00    -0.646 OA
HETATM   13  O           1     -19.303  -4.133  -7.928  0.00  0.00    -0.646 OA
ENDBRANCH   5  11
ENDBRANCH   3   5
BRANCH   1  14
HETATM   14  C           1     -21.006  -6.418  -4.478  0.00  0.00     0.283 C 
BRANCH  14  15
HETATM   15  C           1     -20.522  -7.820  -4.133  0.00  0.00     0.113 C 
BRANCH  15  16
HETATM   16  S           1     -20.701  -8.100  -2.349  0.00  0.00    -0.180 SA
HETATM   17  H           1     -20.329  -9.393  -2.371  0.00  0.00     0.101 HD
ENDBRANCH  15  16
ENDBRANCH  14  15
BRANCH  14  18
HETATM   18  N           1     -22.311  -6.156  -3.787  0.00  0.00    -0.066 N 
HETATM   19  H           1     -22.680  -7.049  -3.390  0.00  0.00     0.275 HD
HETATM   20  H           1     -22.996  -5.770  -4.475  0.00  0.00     0.275 HD
HETATM   21  H           1     -22.164  -5.466  -3.016  0.00  0.00     0.275 HD
ENDBRANCH  14  18
ENDBRANCH   1  14
TORSDOF 9
ENDMDL
MODEL 6
REMARK VINA RESULT:      -5.5      2.083      4.036
REMARK  9 active torsions:
REMARK  status: ('A' for Active; 'I' for Inactive)
REMARK       I    between atoms: C_5  and  N_10 
REMARK    1  A    between atoms: C_5  and  C_6 
REMARK    2  A    between atoms: C_6  and  C_7 
REMARK    3  A    between atoms: C_6  and  N_8 
REMARK    4  A    between atoms: C_7  and  S_21 
REMARK    5  A    between atoms: N_10  and  C_15 
REMARK    6  A    between atoms: C_13  and  C_20 
REMARK    7  A    between atoms: C_13  and  C_14 
REMARK    8  A    between atoms: C_14  and  C_15 
REMARK    9  A    between atoms: C_15  and  C_16 
ROOT
HETATM    1  C           1     -26.662  -6.710 -19.331  0.00  0.00     0.249 C 
HETATM    2  O           1     -27.665  -7.117 -19.869  0.00  0.00    -0.271 OA
HETATM    3  N           1     -26.739  -6.105 -18.106  0.00  0.00    -0.345 N 
HETATM    4  H           1     -25.899  -5.765 -17.656  0.00  0.00     0.163 HD
ENDROOT
BRANCH   3   5
HETATM    5  C           1     -28.024  -5.952 -17.452  0.00  0.00     0.186 C 
BRANCH   5   6
HETATM    6  C           1     -27.838  -6.036 -15.943  0.00  0.00     0.046 C 
BRANCH   6   7
HETATM    7  C           1     -27.009  -7.267 -15.601  0.00  0.00     0.116 C 
BRANCH   7   8
HETATM    8  C           1     -25.542  -6.939 -15.734  0.00  0.00     0.172 C 
HETATM    9  O           1     -24.725  -7.837 -16.030  0.00  0.00    -0.648 OA
HETATM   10  O           1     -25.144  -5.769 -15.548  0.00  0.00    -0.648 OA
ENDBRANCH   7   8
ENDBRANCH   6   7
ENDBRANCH   5   6
BRANCH   5  11
HETATM   11  C           1     -28.614  -4.611 -17.812  0.00  0.00     0.196 C 
HETATM   12  O           1     -29.411  -4.515 -18.771  0.00  0.00    -0.646 OA
HETATM   13  O           1     -28.305  -3.595 -17.152  0.00  0.00    -0.646 OA
ENDBRANCH   5  11
ENDBRANCH   3   5
BRANCH   1  14
HETATM   14  C           1     -25.325  -6.870 -20.012  0.00  0.00     0.283 C 
BRANCH  14  15
HETATM   15  C           1     -25.464  -7.828 -21.187  0.00  0.00     0.113 C 
BRANCH  15  16
HETATM   16  S           1     -23.852  -8.030 -21.997  0.00  0.00    -0.180 SA
HETATM   17  H           1     -23.251  -7.002 -21.373  0.00  0.00     0.101 HD
ENDBRANCH  15  16
ENDBRANCH  14  15
BRANCH  14  18
HETATM   18  N           1     -24.329  -7.420 -19.034  0.00  0.00    -0.066 N 
HETATM   19  H           1     -24.378  -6.874 -18.144  0.00  0.00     0.275 HD
HETATM   20  H           1     -23.368  -7.344 -19.437  0.00  0.00     0.275 HD
HETATM   21  H           1     -24.547  -8.423 -18.841  0.00  0.00     0.275 HD
ENDBRANCH  14  18
ENDBRANCH   1  14
TORSDOF 9
ENDMDL
MODEL 7
REMARK VINA RESULT:      -5.1     14.279     15.468
REMARK  9 active torsions:
REMARK  status: ('A' for Active; 'I' for Inactive)
REMARK       I    between atoms: C_5  and  N_10 
REMARK    1  A    between atoms: C_5  and  C_6 
REMARK    2  A    between atoms: C_6  and  C_7 
REMARK    3  A    between atoms: C_6  and  N_8 
REMARK    4  A    between atoms: C_7  and  S_21 
REMARK    5  A    between atoms: N_10  and  C_15 
REMARK    6  A    between atoms: C_13  and  C_20 
REMARK    7  A    between atoms: C_13  and  C_14 
REMARK    8  A    between atoms: C_14  and  C_15 
REMARK    9  A    between atoms: C_15  and  C_16 
ROOT
HETATM    1  C           1     -21.016  -5.137  -6.874  0.00  0.00     0.249 C 
HETATM    2  O           1     -20.454  -4.327  -6.175  0.00  0.00    -0.271 OA
HETATM    3  N           1     -21.249  -6.402  -6.405  0.00  0.00    -0.345 N 
HETATM    4  H           1     -21.719  -7.080  -6.991  0.00  0.00     0.163 HD
ENDROOT
BRANCH   3   5
HETATM    5  C           1     -20.820  -6.771  -5.069  0.00  0.00     0.186 C 
BRANCH   5   6
HETATM    6  C           1     -21.998  -6.659  -4.111  0.00  0.00     0.046 C 
BRANCH   6   7
HETATM    7  C           1     -21.512  -6.136  -2.766  0.00  0.00     0.116 C 
BRANCH   7   8
HETATM    8  C           1     -21.899  -7.107  -1.677  0.00  0.00     0.172 C 
HETATM    9  O           1     -21.429  -8.265  -1.677  0.00  0.00    -0.648 OA
HETATM   10  O           1     -22.690  -6.753  -0.776  0.00  0.00    -0.648 OA
ENDBRANCH   7   8
ENDBRANCH   6   7
ENDBRANCH   5   6
BRANCH   5  11
HETATM   11  C           1     -20.312  -8.191  -5.080  0.00  0.00     0.196 C 
HETATM   12  O           1     -19.314  -8.503  -4.394  0.00  0.00    -0.646 OA
HETATM   13  O           1     -20.888  -9.056  -5.775  0.00  0.00    -0.646 OA
ENDBRANCH   5  11
ENDBRANCH   3   5
BRANCH   1  14
HETATM   14  C           1     -21.462  -4.753  -8.263  0.00  0.00     0.283 C 
BRANCH  14  15
HETATM   15  C           1     -20.245  -4.408  -9.110  0.00  0.00     0.113 C 
BRANCH  15  16
HETATM   16  S           1     -20.778  -3.985 -10.793  0.00  0.00    -0.180 SA
HETATM   17  H           1     -21.683  -3.060 -10.426  0.00  0.00     0.101 HD
ENDBRANCH  15  16
ENDBRANCH  14  15
BRANCH  14  18
HETATM   18  N           1     -22.371  -3.562  -8.186  0.00  0.00    -0.066 N 
HETATM   19  H           1     -23.365  -3.884  -8.172  0.00  0.00     0.275 HD
HETATM   20  H           1     -22.214  -2.951  -9.018  0.00  0.00     0.275 HD
HETATM   21  H           1     -22.166  -3.024  -7.314  0.00  0.00     0.275 HD
ENDBRANCH  14  18
ENDBRANCH   1  14
TORSDOF 9
ENDMDL
MODEL 8
REMARK VINA RESULT:      -4.8     14.995     16.054
REMARK  9 active torsions:
REMARK  status: ('A' for Active; 'I' for Inactive)
REMARK       I    between atoms: C_5  and  N_10 
REMARK    1  A    between atoms: C_5  and  C_6 
REMARK    2  A    between atoms: C_6  and  C_7 
REMARK    3  A    between atoms: C_6  and  N_8 
REMARK    4  A    between atoms: C_7  and  S_21 
REMARK    5  A    between atoms: N_10  and  C_15 
REMARK    6  A    between atoms: C_13  and  C_20 
REMARK    7  A    between atoms: C_13  and  C_14 
REMARK    8  A    between atoms: C_14  and  C_15 
REMARK    9  A    between atoms: C_15  and  C_16 
ROOT
HETATM    1  C           1     -20.788  -6.957  -5.713  0.00  0.00     0.249 C 
HETATM    2  O           1     -19.590  -7.116  -5.735  0.00  0.00    -0.271 OA
HETATM    3  N           1     -21.580  -7.822  -5.008  0.00  0.00    -0.345 N 
HETATM    4  H           1     -22.583  -7.688  -4.989  0.00  0.00     0.163 HD
ENDROOT
BRANCH   3   5
HETATM    5  C           1     -20.983  -8.930  -4.287  0.00  0.00     0.186 C 
BRANCH   5   6
HETATM    6  C           1     -21.506  -8.946  -2.857  0.00  0.00     0.046 C 
BRANCH   6   7
HETATM    7  C           1     -20.957  -7.742  -2.102  0.00  0.00     0.116 C 
BRANCH   7   8
HETATM    8  C           1     -22.074  -6.764  -1.834  0.00  0.00     0.172 C 
HETATM    9  O           1     -22.668  -6.781  -0.735  0.00  0.00    -0.648 OA
HETATM   10  O           1     -22.404  -5.936  -2.710  0.00  0.00    -0.648 OA
ENDBRANCH   7   8
ENDBRANCH   6   7
ENDBRANCH   5   6
BRANCH   5  11
HETATM   11  C           1     -21.345 -10.226  -4.970  0.00  0.00     0.196 C 
HETATM   12  O           1     -22.058 -11.066  -4.380  0.00  0.00    -0.646 OA
HETATM   13  O           1     -20.932 -10.459  -6.127  0.00  0.00    -0.646 OA
ENDBRANCH   5  11
ENDBRANCH   3   5
BRANCH   1  14
HETATM   14  C           1     -21.409  -5.804  -6.462  0.00  0.00     0.283 C 
BRANCH  14  15
HETATM   15  C           1     -20.476  -4.601  -6.408  0.00  0.00     0.113 C 
BRANCH  15  16
HETATM   16  S           1     -19.922  -4.188  -8.086  0.00  0.00    -0.180 SA
HETATM   17  H           1     -21.054  -4.570  -8.706  0.00  0.00     0.101 HD
ENDBRANCH  15  16
ENDBRANCH  14  15
BRANCH  14  18
HETATM   18  N           1     -22.722  -5.447  -5.831  0.00  0.00    -0.066 N 
HETATM   19  H           1     -23.398  -6.232  -5.969  0.00  0.00     0.275 HD
HETATM   20  H           1     -23.097  -4.580  -6.277  0.00  0.00     0.275 HD
HETATM   21  H           1     -22.584  -5.281  -4.809  0.00  0.00     0.275 HD
ENDBRANCH  14  18
ENDBRANCH   1  14
TORSDOF 9
ENDMDL
MODEL 9
REMARK VINA RESULT:      -4.6     14.696     16.123
REMARK  9 active torsions:
REMARK  status: ('A' for Active; 'I' for Inactive)
REMARK       I    between atoms: C_5  and  N_10 
REMARK    1  A    between atoms: C_5  and  C_6 
REMARK    2  A    between atoms: C_6  and  C_7 
REMARK    3  A    between atoms: C_6  and  N_8 
REMARK    4  A    between atoms: C_7  and  S_21 
REMARK    5  A    between atoms: N_10  and  C_15 
REMARK    6  A    between atoms: C_13  and  C_20 
REMARK    7  A    between atoms: C_13  and  C_14 
REMARK    8  A    between atoms: C_14  and  C_15 
REMARK    9  A    between atoms: C_15  and  C_16 
ROOT
HETATM    1  C           1     -21.391  -6.022  -5.339  0.00  0.00     0.249 C 
HETATM    2  O           1     -22.595  -5.944  -5.406  0.00  0.00    -0.271 OA
HETATM    3  N           1     -20.809  -6.842  -4.410  0.00  0.00    -0.345 N 
HETATM    4  H           1     -19.801  -6.908  -4.354  0.00  0.00     0.163 HD
ENDROOT
BRANCH   3   5
HETATM    5  C           1     -21.637  -7.617  -3.505  0.00  0.00     0.186 C 
BRANCH   5   6
HETATM    6  C           1     -21.044  -9.009  -3.342  0.00  0.00     0.046 C 
BRANCH   6   7
HETATM    7  C           1     -21.732  -9.971  -4.302  0.00  0.00     0.116 C 
BRANCH   7   8
HETATM    8  C           1     -20.864 -10.172  -5.521  0.00  0.00     0.172 C 
HETATM    9  O           1     -19.788  -9.547  -5.631  0.00  0.00    -0.648 OA
HETATM   10  O           1     -21.223 -10.963  -6.420  0.00  0.00    -0.648 OA
ENDBRANCH   7   8
ENDBRANCH   6   7
ENDBRANCH   5   6
BRANCH   5  11
HETATM   11  C           1     -21.690  -6.931  -2.162  0.00  0.00     0.196 C 
HETATM   12  O           1     -22.251  -5.819  -2.050  0.00  0.00    -0.646 OA
HETATM   13  O           1     -21.174  -7.476  -1.162  0.00  0.00    -0.646 OA
ENDBRANCH   5  11
ENDBRANCH   3   5
BRANCH   1  14
HETATM   14  C           1     -20.530  -5.217  -6.280  0.00  0.00     0.283 C 
BRANCH  14  15
HETATM   15  C           1     -21.375  -4.141  -6.948  0.00  0.00     0.113 C 
BRANCH  15  16
HETATM   16  S           1     -21.585  -4.541  -8.706  0.00  0.00    -0.180 SA
HETATM   17  H           1     -22.883  -4.195  -8.776  0.00  0.00     0.101 HD
ENDBRANCH  15  16
ENDBRANCH  14  15
BRANCH  14  18
HETATM   18  N           1     -19.953  -6.122  -7.328  0.00  0.00    -0.066 N 
HETATM   19  H           1     -19.924  -7.101  -6.964  0.00  0.00     0.275 HD
HETATM   20  H           1     -18.984  -5.808  -7.563  0.00  0.00     0.275 HD
HETATM   21  H           1     -20.548  -6.086  -8.186  0.00  0.00     0.275 HD
ENDBRANCH  14  18
ENDBRANCH   1  14
TORSDOF 9
ENDMDL
