MODEL 1
REMARK VINA RESULT:      -7.6      0.000      0.000
REMARK  10 active torsions:
REMARK  status: ('A' for Active; 'I' for Inactive)
REMARK    1  A    between atoms: C_1  and  C_30 
REMARK    2  A    between atoms: N_10  and  C_17 
REMARK    3  A    between atoms: O_13  and  P_14 
REMARK    4  A    between atoms: P_14  and  O_15 
REMARK    5  A    between atoms: O_15  and  C_16 
REMARK    6  A    between atoms: C_16  and  C_17 
REMARK    7  A    between atoms: C_17  and  C_18 
REMARK       I    between atoms: C_18  and  N_19 
REMARK    8  A    between atoms: N_19  and  C_30 
REMARK    9  A    between atoms: C_28  and  C_29 
REMARK   10  A    between atoms: C_29  and  C_30 
ROOT
HETATM    1  H           1     -20.092  -7.513  -7.528  0.00  0.00     0.163 HD
HETATM    2  O           1     -19.170  -4.869  -7.126  0.00  0.00    -0.271 OA
HETATM    3  C           1     -20.177  -5.519  -6.981  0.00  0.00     0.251 C 
HETATM    4  N           1     -20.095  -6.865  -6.750  0.00  0.00    -0.344 N 
ENDROOT
BRANCH   4   5
HETATM    5  C           1     -20.013  -7.364  -5.391  0.00  0.00     0.190 C 
BRANCH   5   6
HETATM    6  C           1     -19.024  -8.503  -5.332  0.00  0.00     0.197 C 
HETATM    7  O           1     -18.470  -8.903  -6.378  0.00  0.00    -0.646 OA
HETATM    8  O           1     -18.761  -9.046  -4.237  0.00  0.00    -0.646 OA
ENDBRANCH   5   6
BRANCH   5   9
HETATM    9  C           1     -21.384  -7.858  -4.948  0.00  0.00     0.077 C 
BRANCH   9  10
HETATM   10  C           1     -21.705  -7.296  -3.599  0.00  0.00    -0.028 A 
HETATM   11  C           1     -21.804  -8.033  -2.386  0.00  0.00    -0.002 A 
HETATM   12  C           1     -21.656  -9.392  -2.050  0.00  0.00     0.014 A 
HETATM   13  C           1     -22.120  -7.122  -1.377  0.00  0.00     0.042 A 
HETATM   14  C           1     -21.827  -9.792  -0.720  0.00  0.00     0.001 A 
HETATM   15  C           1     -22.141  -8.860   0.268  0.00  0.00     0.002 A 
HETATM   16  C           1     -22.294  -7.505  -0.041  0.00  0.00     0.030 A 
HETATM   17  N           1     -22.207  -5.881  -1.965  0.00  0.00    -0.365 N 
HETATM   18  H           1     -22.431  -4.990  -1.457  0.00  0.00     0.165 HD
HETATM   19  C           1     -21.958  -5.974  -3.309  0.00  0.00     0.096 A 
ENDBRANCH   9  10
ENDBRANCH   5   9
ENDBRANCH   4   5
BRANCH   3  20
HETATM   20  C           1     -21.526  -4.846  -7.056  0.00  0.00     0.298 C 
BRANCH  20  21
HETATM   21  N           1     -21.369  -3.381  -6.778  0.00  0.00    -0.064 N 
HETATM   22  H           1     -22.303  -2.915  -6.827  0.00  0.00     0.275 HD
HETATM   23  H           1     -20.731  -2.958  -7.489  0.00  0.00     0.275 HD
HETATM   24  H           1     -20.963  -3.248  -5.824  0.00  0.00     0.275 HD
ENDBRANCH  20  21
BRANCH  20  25
HETATM   25  C           1     -22.114  -5.040  -8.447  0.00  0.00     0.224 C 
BRANCH  25  26
HETATM   26  O           1     -23.286  -4.279  -8.569  0.00  0.00    -0.287 OA
BRANCH  26  27
HETATM   27  P           1     -23.791  -3.996 -10.077  0.00  0.00     0.406 P 
HETATM   28  O           1     -22.805  -3.142 -10.776  0.00  0.00    -0.624 OA
HETATM   29  O           1     -23.932  -5.281 -10.798  0.00  0.00    -0.624 OA
BRANCH  27  30
HETATM   30  O           1     -25.220  -3.245 -10.036  0.00  0.00    -0.300 OA
HETATM   31  H           1     -25.205  -2.652 -10.767  0.00  0.00     0.223 HD
ENDBRANCH  27  30
ENDBRANCH  26  27
ENDBRANCH  25  26
ENDBRANCH  20  25
ENDBRANCH   3  20
TORSDOF 10
ENDMDL
MODEL 2
REMARK VINA RESULT:      -7.4      2.184      2.979
REMARK  10 active torsions:
REMARK  status: ('A' for Active; 'I' for Inactive)
REMARK    1  A    between atoms: C_1  and  C_30 
REMARK    2  A    between atoms: N_10  and  C_17 
REMARK    3  A    between atoms: O_13  and  P_14 
REMARK    4  A    between atoms: P_14  and  O_15 
REMARK    5  A    between atoms: O_15  and  C_16 
REMARK    6  A    between atoms: C_16  and  C_17 
REMARK    7  A    between atoms: C_17  and  C_18 
REMARK       I    between atoms: C_18  and  N_19 
REMARK    8  A    between atoms: N_19  and  C_30 
REMARK    9  A    between atoms: C_28  and  C_29 
REMARK   10  A    between atoms: C_29  and  C_30 
ROOT
HETATM    1  H           1     -19.652  -7.150  -6.798  0.00  0.00     0.163 HD
HETATM    2  O           1     -20.237  -4.491  -6.028  0.00  0.00    -0.271 OA
HETATM    3  C           1     -20.720  -5.381  -6.686  0.00  0.00     0.251 C 
HETATM    4  N           1     -20.447  -6.686  -6.377  0.00  0.00    -0.344 N 
ENDROOT
BRANCH   4   5
HETATM    5  C           1     -21.297  -7.404  -5.447  0.00  0.00     0.190 C 
BRANCH   5   6
HETATM    6  C           1     -22.098  -6.417  -4.633  0.00  0.00     0.197 C 
HETATM    7  O           1     -21.602  -5.906  -3.606  0.00  0.00    -0.646 OA
HETATM    8  O           1     -23.258  -6.111  -4.985  0.00  0.00    -0.646 OA
ENDBRANCH   5   6
BRANCH   5   9
HETATM    9  C           1     -20.434  -8.247  -4.517  0.00  0.00     0.077 C 
BRANCH   9  10
HETATM   10  C           1     -21.235  -9.402  -4.003  0.00  0.00    -0.028 A 
HETATM   11  C           1     -21.807  -9.514  -2.705  0.00  0.00    -0.002 A 
HETATM   12  C           1     -21.826  -8.683  -1.568  0.00  0.00     0.014 A 
HETATM   13  C           1     -22.464 -10.743  -2.651  0.00  0.00     0.042 A 
HETATM   14  C           1     -22.502  -9.110  -0.419  0.00  0.00     0.001 A 
HETATM   15  C           1     -23.151 -10.344  -0.394  0.00  0.00     0.002 A 
HETATM   16  C           1     -23.145 -11.185  -1.510  0.00  0.00     0.030 A 
HETATM   17  N           1     -22.293 -11.348  -3.875  0.00  0.00    -0.365 N 
HETATM   18  H           1     -22.677 -12.289  -4.139  0.00  0.00     0.165 HD
HETATM   19  C           1     -21.551 -10.546  -4.701  0.00  0.00     0.096 A 
ENDBRANCH   9  10
ENDBRANCH   5   9
ENDBRANCH   4   5
BRANCH   3  20
HETATM   20  C           1     -21.625  -5.053  -7.849  0.00  0.00     0.298 C 
BRANCH  20  21
HETATM   21  N           1     -22.815  -4.286  -7.353  0.00  0.00    -0.064 N 
HETATM   22  H           1     -23.014  -3.493  -8.004  0.00  0.00     0.275 HD
HETATM   23  H           1     -22.616  -3.912  -6.399  0.00  0.00     0.275 HD
HETATM   24  H           1     -23.646  -4.920  -7.312  0.00  0.00     0.275 HD
ENDBRANCH  20  21
BRANCH  20  25
HETATM   25  C           1     -20.864  -4.210  -8.863  0.00  0.00     0.224 C 
BRANCH  25  26
HETATM   26  O           1     -21.117  -4.691 -10.155  0.00  0.00    -0.287 OA
BRANCH  26  27
HETATM   27  P           1     -22.158  -3.829 -11.039  0.00  0.00     0.406 P 
HETATM   28  O           1     -23.299  -3.414 -10.192  0.00  0.00    -0.624 OA
HETATM   29  O           1     -21.475  -2.629 -11.573  0.00  0.00    -0.624 OA
BRANCH  27  30
HETATM   30  O           1     -22.699  -4.729 -12.266  0.00  0.00    -0.300 OA
HETATM   31  H           1     -22.846  -5.583 -11.897  0.00  0.00     0.223 HD
ENDBRANCH  27  30
ENDBRANCH  26  27
ENDBRANCH  25  26
ENDBRANCH  20  25
ENDBRANCH   3  20
TORSDOF 10
ENDMDL
MODEL 3
REMARK VINA RESULT:      -7.1     12.785     15.294
REMARK  10 active torsions:
REMARK  status: ('A' for Active; 'I' for Inactive)
REMARK    1  A    between atoms: C_1  and  C_30 
REMARK    2  A    between atoms: N_10  and  C_17 
REMARK    3  A    between atoms: O_13  and  P_14 
REMARK    4  A    between atoms: P_14  and  O_15 
REMARK    5  A    between atoms: O_15  and  C_16 
REMARK    6  A    between atoms: C_16  and  C_17 
REMARK    7  A    between atoms: C_17  and  C_18 
REMARK       I    between atoms: C_18  and  N_19 
REMARK    8  A    between atoms: N_19  and  C_30 
REMARK    9  A    between atoms: C_28  and  C_29 
REMARK   10  A    between atoms: C_29  and  C_30 
ROOT
HETATM    1  H           1     -30.159  -7.115 -17.797  0.00  0.00     0.163 HD
HETATM    2  O           1     -29.382  -4.693 -19.038  0.00  0.00    -0.271 OA
HETATM    3  C           1     -29.723  -5.098 -17.952  0.00  0.00     0.251 C 
HETATM    4  N           1     -29.475  -6.396 -17.597  0.00  0.00    -0.344 N 
ENDROOT
BRANCH   4   5
HETATM    5  C           1     -28.233  -6.742 -16.934  0.00  0.00     0.190 C 
BRANCH   5   6
HETATM    6  C           1     -28.460  -6.808 -15.443  0.00  0.00     0.197 C 
HETATM    7  O           1     -28.022  -7.776 -14.787  0.00  0.00    -0.646 OA
HETATM    8  O           1     -29.089  -5.893 -14.865  0.00  0.00    -0.646 OA
ENDBRANCH   5   6
BRANCH   5   9
HETATM    9  C           1     -27.181  -5.683 -17.241  0.00  0.00     0.077 C 
BRANCH   9  10
HETATM   10  C           1     -25.917  -6.349 -17.684  0.00  0.00    -0.028 A 
HETATM   11  C           1     -25.602  -6.751 -19.011  0.00  0.00    -0.002 A 
HETATM   12  C           1     -26.280  -6.680 -20.244  0.00  0.00     0.014 A 
HETATM   13  C           1     -24.332  -7.327 -18.976  0.00  0.00     0.042 A 
HETATM   14  C           1     -25.664  -7.186 -21.394  0.00  0.00     0.001 A 
HETATM   15  C           1     -24.394  -7.756 -21.329  0.00  0.00     0.002 A 
HETATM   16  C           1     -23.701  -7.838 -20.117  0.00  0.00     0.030 A 
HETATM   17  N           1     -23.899  -7.272 -17.670  0.00  0.00    -0.365 N 
HETATM   18  H           1     -22.973  -7.630 -17.329  0.00  0.00     0.165 HD
HETATM   19  C           1     -24.850  -6.682 -16.880  0.00  0.00     0.096 A 
ENDBRANCH   9  10
ENDBRANCH   5   9
ENDBRANCH   4   5
BRANCH   3  20
HETATM   20  C           1     -30.421  -4.171 -16.987  0.00  0.00     0.298 C 
BRANCH  20  21
HETATM   21  N           1     -30.702  -2.863 -17.666  0.00  0.00    -0.064 N 
HETATM   22  H           1     -30.088  -2.121 -17.261  0.00  0.00     0.275 HD
HETATM   23  H           1     -31.704  -2.604 -17.523  0.00  0.00     0.275 HD
HETATM   24  H           1     -30.510  -2.954 -18.690  0.00  0.00     0.275 HD
ENDBRANCH  20  21
BRANCH  20  25
HETATM   25  C           1     -31.732  -4.801 -16.536  0.00  0.00     0.224 C 
BRANCH  25  26
HETATM   26  O           1     -32.791  -3.923 -16.809  0.00  0.00    -0.287 OA
BRANCH  26  27
HETATM   27  P           1     -34.022  -3.955 -15.766  0.00  0.00     0.406 P 
HETATM   28  O           1     -33.500  -3.876 -14.383  0.00  0.00    -0.624 OA
HETATM   29  O           1     -34.916  -2.803 -16.023  0.00  0.00    -0.624 OA
BRANCH  27  30
HETATM   30  O           1     -34.852  -5.328 -15.950  0.00  0.00    -0.300 OA
HETATM   31  H           1     -34.264  -5.910 -16.401  0.00  0.00     0.223 HD
ENDBRANCH  27  30
ENDBRANCH  26  27
ENDBRANCH  25  26
ENDBRANCH  20  25
ENDBRANCH   3  20
TORSDOF 10
ENDMDL
MODEL 4
REMARK VINA RESULT:      -7.1      4.035      8.191
REMARK  10 active torsions:
REMARK  status: ('A' for Active; 'I' for Inactive)
REMARK    1  A    between atoms: C_1  and  C_30 
REMARK    2  A    between atoms: N_10  and  C_17 
REMARK    3  A    between atoms: O_13  and  P_14 
REMARK    4  A    between atoms: P_14  and  O_15 
REMARK    5  A    between atoms: O_15  and  C_16 
REMARK    6  A    between atoms: C_16  and  C_17 
REMARK    7  A    between atoms: C_17  and  C_18 
REMARK       I    between atoms: C_18  and  N_19 
REMARK    8  A    between atoms: N_19  and  C_30 
REMARK    9  A    between atoms: C_28  and  C_29 
REMARK   10  A    between atoms: C_29  and  C_30 
ROOT
HETATM    1  H           1     -23.356  -6.112  -4.221  0.00  0.00     0.163 HD
HETATM    2  O           1     -20.893  -5.600  -2.925  0.00  0.00    -0.271 OA
HETATM    3  C           1     -21.533  -6.537  -3.337  0.00  0.00     0.251 C 
HETATM    4  N           1     -22.391  -6.369  -4.390  0.00  0.00    -0.344 N 
ENDROOT
BRANCH   4   5
HETATM    5  C           1     -21.919  -6.562  -5.748  0.00  0.00     0.190 C 
BRANCH   5   6
HETATM    6  C           1     -20.921  -7.693  -5.777  0.00  0.00     0.197 C 
HETATM    7  O           1     -21.318  -8.877  -5.758  0.00  0.00    -0.646 OA
HETATM    8  O           1     -19.696  -7.444  -5.819  0.00  0.00    -0.646 OA
ENDBRANCH   5   6
BRANCH   5   9
HETATM    9  C           1     -21.253  -5.283  -6.239  0.00  0.00     0.077 C 
BRANCH   9  10
HETATM   10  C           1     -22.054  -4.704  -7.364  0.00  0.00    -0.028 A 
HETATM   11  C           1     -21.583  -4.444  -8.681  0.00  0.00    -0.002 A 
HETATM   12  C           1     -20.345  -4.613  -9.330  0.00  0.00     0.014 A 
HETATM   13  C           1     -22.652  -3.908  -9.401  0.00  0.00     0.042 A 
HETATM   14  C           1     -20.221  -4.243 -10.674  0.00  0.00     0.001 A 
HETATM   15  C           1     -21.306  -3.710 -11.369  0.00  0.00     0.002 A 
HETATM   16  C           1     -22.544  -3.532 -10.745  0.00  0.00     0.030 A 
HETATM   17  N           1     -23.728  -3.849  -8.544  0.00  0.00    -0.365 N 
HETATM   18  H           1     -24.680  -3.489  -8.799  0.00  0.00     0.165 HD
HETATM   19  C           1     -23.377  -4.328  -7.309  0.00  0.00     0.096 A 
ENDBRANCH   9  10
ENDBRANCH   5   9
ENDBRANCH   4   5
BRANCH   3  20
HETATM   20  C           1     -21.387  -7.893  -2.691  0.00  0.00     0.298 C 
BRANCH  20  21
HETATM   21  N           1     -19.978  -8.378  -2.863  0.00  0.00    -0.064 N 
HETATM   22  H           1     -19.463  -8.279  -1.959  0.00  0.00     0.275 HD
HETATM   23  H           1     -19.501  -7.811  -3.599  0.00  0.00     0.275 HD
HETATM   24  H           1     -19.987  -9.383  -3.150  0.00  0.00     0.275 HD
ENDBRANCH  20  21
BRANCH  20  25
HETATM   25  C           1     -21.710  -7.787  -1.207  0.00  0.00     0.224 C 
BRANCH  25  26
HETATM   26  O           1     -22.341  -8.964  -0.779  0.00  0.00    -0.287 OA
BRANCH  26  27
HETATM   27  P           1     -21.442  -9.964   0.114  0.00  0.00     0.406 P 
HETATM   28  O           1     -20.995  -9.263   1.339  0.00  0.00    -0.624 OA
HETATM   29  O           1     -22.247 -11.148   0.488  0.00  0.00    -0.624 OA
BRANCH  27  30
HETATM   30  O           1     -20.153 -10.437  -0.736  0.00  0.00    -0.300 OA
HETATM   31  H           1     -20.282 -11.358  -0.883  0.00  0.00     0.223 HD
ENDBRANCH  27  30
ENDBRANCH  26  27
ENDBRANCH  25  26
ENDBRANCH  20  25
ENDBRANCH   3  20
TORSDOF 10
ENDMDL
MODEL 5
REMARK VINA RESULT:      -6.9      2.929      5.191
REMARK  10 active torsions:
REMARK  status: ('A' for Active; 'I' for Inactive)
REMARK    1  A    between atoms: C_1  and  C_30 
REMARK    2  A    between atoms: N_10  and  C_17 
REMARK    3  A    between atoms: O_13  and  P_14 
REMARK    4  A    between atoms: P_14  and  O_15 
REMARK    5  A    between atoms: O_15  and  C_16 
REMARK    6  A    between atoms: C_16  and  C_17 
REMARK    7  A    between atoms: C_17  and  C_18 
REMARK       I    between atoms: C_18  and  N_19 
REMARK    8  A    between atoms: N_19  and  C_30 
REMARK    9  A    between atoms: C_28  and  C_29 
REMARK   10  A    between atoms: C_29  and  C_30 
ROOT
HETATM    1  H           1     -19.945  -7.187  -2.153  0.00  0.00     0.163 HD
HETATM    2  O           1     -22.397  -5.802  -2.432  0.00  0.00    -0.271 OA
HETATM    3  C           1     -21.693  -6.554  -3.062  0.00  0.00     0.251 C 
HETATM    4  N           1     -20.889  -7.449  -2.409  0.00  0.00    -0.344 N 
ENDROOT
BRANCH   4   5
HETATM    5  C           1     -21.389  -8.771  -2.085  0.00  0.00     0.190 C 
BRANCH   5   6
HETATM    6  C           1     -22.029  -8.745  -0.718  0.00  0.00     0.197 C 
HETATM    7  O           1     -21.572  -7.996   0.171  0.00  0.00    -0.646 OA
HETATM    8  O           1     -23.015  -9.475  -0.476  0.00  0.00    -0.646 OA
ENDBRANCH   5   6
BRANCH   5   9
HETATM    9  C           1     -20.234  -9.764  -2.087  0.00  0.00     0.077 C 
BRANCH   9  10
HETATM   10  C           1     -19.658  -9.858  -3.465  0.00  0.00    -0.028 A 
HETATM   11  C           1     -18.277  -9.799  -3.802  0.00  0.00    -0.002 A 
HETATM   12  C           1     -17.092  -9.650  -3.057  0.00  0.00     0.014 A 
HETATM   13  C           1     -18.188  -9.925  -5.189  0.00  0.00     0.042 A 
HETATM   14  C           1     -15.861  -9.633  -3.724  0.00  0.00     0.001 A 
HETATM   15  C           1     -15.802  -9.761  -5.110  0.00  0.00     0.002 A 
HETATM   16  C           1     -16.965  -9.910  -5.871  0.00  0.00     0.030 A 
HETATM   17  N           1     -19.472 -10.055  -5.667  0.00  0.00    -0.365 N 
HETATM   18  H           1     -19.727 -10.168  -6.679  0.00  0.00     0.165 HD
HETATM   19  C           1     -20.369 -10.015  -4.633  0.00  0.00     0.096 A 
ENDBRANCH   9  10
ENDBRANCH   5   9
ENDBRANCH   4   5
BRANCH   3  20
HETATM   20  C           1     -21.700  -6.507  -4.571  0.00  0.00     0.298 C 
BRANCH  20  21
HETATM   21  N           1     -23.074  -6.145  -5.052  0.00  0.00    -0.064 N 
HETATM   22  H           1     -23.714  -6.042  -4.232  0.00  0.00     0.275 HD
HETATM   23  H           1     -23.433  -6.898  -5.681  0.00  0.00     0.275 HD
HETATM   24  H           1     -23.033  -5.242  -5.578  0.00  0.00     0.275 HD
ENDBRANCH  20  21
BRANCH  20  25
HETATM   25  C           1     -20.703  -5.463  -5.052  0.00  0.00     0.224 C 
BRANCH  25  26
HETATM   26  O           1     -21.257  -4.742  -6.120  0.00  0.00    -0.287 OA
BRANCH  26  27
HETATM   27  P           1     -20.604  -5.014  -7.571  0.00  0.00     0.406 P 
HETATM   28  O           1     -19.642  -3.936  -7.889  0.00  0.00    -0.624 OA
HETATM   29  O           1     -19.901  -6.317  -7.558  0.00  0.00    -0.624 OA
BRANCH  27  30
HETATM   30  O           1     -21.769  -5.044  -8.690  0.00  0.00    -0.300 OA
HETATM   31  H           1     -22.052  -5.941  -8.724  0.00  0.00     0.223 HD
ENDBRANCH  27  30
ENDBRANCH  26  27
ENDBRANCH  25  26
ENDBRANCH  20  25
ENDBRANCH   3  20
TORSDOF 10
ENDMDL
MODEL 6
REMARK VINA RESULT:      -6.8      1.485      2.238
REMARK  10 active torsions:
REMARK  status: ('A' for Active; 'I' for Inactive)
REMARK    1  A    between atoms: C_1  and  C_30 
REMARK    2  A    between atoms: N_10  and  C_17 
REMARK    3  A    between atoms: O_13  and  P_14 
REMARK    4  A    between atoms: P_14  and  O_15 
REMARK    5  A    between atoms: O_15  and  C_16 
REMARK    6  A    between atoms: C_16  and  C_17 
REMARK    7  A    between atoms: C_17  and  C_18 
REMARK       I    between atoms: C_18  and  N_19 
REMARK    8  A    between atoms: N_19  and  C_30 
REMARK    9  A    between atoms: C_28  and  C_29 
REMARK   10  A    between atoms: C_29  and  C_30 
ROOT
HETATM    1  H           1     -19.156  -7.363  -6.970  0.00  0.00     0.163 HD
HETATM    2  O           1     -19.834  -4.980  -5.605  0.00  0.00    -0.271 OA
HETATM    3  C           1     -20.377  -5.943  -6.091  0.00  0.00     0.251 C 
HETATM    4  N           1     -19.717  -7.140  -6.158  0.00  0.00    -0.344 N 
ENDROOT
BRANCH   4   5
HETATM    5  C           1     -19.821  -8.087  -5.066  0.00  0.00     0.190 C 
BRANCH   5   6
HETATM    6  C           1     -18.717  -9.110  -5.179  0.00  0.00     0.197 C 
HETATM    7  O           1     -17.987  -9.353  -4.195  0.00  0.00    -0.646 OA
HETATM    8  O           1     -18.531  -9.712  -6.259  0.00  0.00    -0.646 OA
ENDBRANCH   5   6
BRANCH   5   9
HETATM    9  C           1     -21.172  -8.789  -5.130  0.00  0.00     0.077 C 
BRANCH   9  10
HETATM   10  C           1     -21.513  -9.340  -3.781  0.00  0.00    -0.028 A 
HETATM   11  C           1     -21.809  -8.580  -2.615  0.00  0.00    -0.002 A 
HETATM   12  C           1     -21.881  -7.202  -2.337  0.00  0.00     0.014 A 
HETATM   13  C           1     -22.068  -9.488  -1.588  0.00  0.00     0.042 A 
HETATM   14  C           1     -22.209  -6.781  -1.043  0.00  0.00     0.001 A 
HETATM   15  C           1     -22.463  -7.711  -0.036  0.00  0.00     0.002 A 
HETATM   16  C           1     -22.397  -9.084  -0.288  0.00  0.00     0.030 A 
HETATM   17  N           1     -21.931 -10.750  -2.120  0.00  0.00    -0.365 N 
HETATM   18  H           1     -22.066 -11.644  -1.586  0.00  0.00     0.165 HD
HETATM   19  C           1     -21.596 -10.673  -3.445  0.00  0.00     0.096 A 
ENDBRANCH   9  10
ENDBRANCH   5   9
ENDBRANCH   4   5
BRANCH   3  20
HETATM   20  C           1     -21.784  -5.825  -6.625  0.00  0.00     0.298 C 
BRANCH  20  21
HETATM   21  N           1     -22.735  -5.619  -5.484  0.00  0.00    -0.064 N 
HETATM   22  H           1     -22.264  -5.064  -4.734  0.00  0.00     0.275 HD
HETATM   23  H           1     -23.025  -6.546  -5.100  0.00  0.00     0.275 HD
HETATM   24  H           1     -23.579  -5.103  -5.822  0.00  0.00     0.275 HD
ENDBRANCH  20  21
BRANCH  20  25
HETATM   25  C           1     -21.869  -4.640  -7.577  0.00  0.00     0.224 C 
BRANCH  25  26
HETATM   26  O           1     -22.022  -5.106  -8.891  0.00  0.00    -0.287 OA
BRANCH  26  27
HETATM   27  P           1     -23.083  -4.303  -9.807  0.00  0.00     0.406 P 
HETATM   28  O           1     -23.785  -5.254 -10.698  0.00  0.00    -0.624 OA
HETATM   29  O           1     -24.067  -3.621  -8.937  0.00  0.00    -0.624 OA
BRANCH  27  30
HETATM   30  O           1     -22.304  -3.205 -10.699  0.00  0.00    -0.300 OA
HETATM   31  H           1     -22.096  -2.508 -10.101  0.00  0.00     0.223 HD
ENDBRANCH  27  30
ENDBRANCH  26  27
ENDBRANCH  25  26
ENDBRANCH  20  25
ENDBRANCH   3  20
TORSDOF 10
ENDMDL
MODEL 7
REMARK VINA RESULT:      -6.8     12.126     15.417
REMARK  10 active torsions:
REMARK  status: ('A' for Active; 'I' for Inactive)
REMARK    1  A    between atoms: C_1  and  C_30 
REMARK    2  A    between atoms: N_10  and  C_17 
REMARK    3  A    between atoms: O_13  and  P_14 
REMARK    4  A    between atoms: P_14  and  O_15 
REMARK    5  A    between atoms: O_15  and  C_16 
REMARK    6  A    between atoms: C_16  and  C_17 
REMARK    7  A    between atoms: C_17  and  C_18 
REMARK       I    between atoms: C_18  and  N_19 
REMARK    8  A    between atoms: N_19  and  C_30 
REMARK    9  A    between atoms: C_28  and  C_29 
REMARK   10  A    between atoms: C_29  and  C_30 
ROOT
HETATM    1  H           1     -25.805  -5.120 -17.134  0.00  0.00     0.163 HD
HETATM    2  O           1     -28.063  -6.553 -16.209  0.00  0.00    -0.271 OA
HETATM    3  C           1     -27.514  -6.280 -17.250  0.00  0.00     0.251 C 
HETATM    4  N           1     -26.164  -6.056 -17.274  0.00  0.00    -0.344 N 
ENDROOT
BRANCH   4   5
HETATM    5  C           1     -25.250  -7.158 -17.501  0.00  0.00     0.190 C 
BRANCH   5   6
HETATM    6  C           1     -24.699  -7.635 -16.179  0.00  0.00     0.197 C 
HETATM    7  O           1     -25.065  -7.089 -15.117  0.00  0.00    -0.646 OA
HETATM    8  O           1     -23.875  -8.575 -16.148  0.00  0.00    -0.646 OA
ENDBRANCH   5   6
BRANCH   5   9
HETATM    9  C           1     -24.104  -6.692 -18.391  0.00  0.00     0.077 C 
BRANCH   9  10
HETATM   10  C           1     -24.337  -7.163 -19.792  0.00  0.00    -0.028 A 
HETATM   11  C           1     -23.392  -7.830 -20.620  0.00  0.00    -0.002 A 
HETATM   12  C           1     -22.056  -8.240 -20.448  0.00  0.00     0.014 A 
HETATM   13  C           1     -24.022  -8.086 -21.838  0.00  0.00     0.042 A 
HETATM   14  C           1     -21.399  -8.891 -21.498  0.00  0.00     0.001 A 
HETATM   15  C           1     -22.053  -9.134 -22.705  0.00  0.00     0.002 A 
HETATM   16  C           1     -23.379  -8.737 -22.899  0.00  0.00     0.030 A 
HETATM   17  N           1     -25.302  -7.590 -21.744  0.00  0.00    -0.365 N 
HETATM   18  H           1     -26.022  -7.635 -22.507  0.00  0.00     0.165 HD
HETATM   19  C           1     -25.504  -7.030 -20.510  0.00  0.00     0.096 A 
ENDBRANCH   9  10
ENDBRANCH   5   9
ENDBRANCH   4   5
BRANCH   3  20
HETATM   20  C           1     -28.318  -6.188 -18.524  0.00  0.00     0.298 C 
BRANCH  20  21
HETATM   21  N           1     -29.040  -7.482 -18.753  0.00  0.00    -0.064 N 
HETATM   22  H           1     -28.357  -8.273 -18.722  0.00  0.00     0.275 HD
HETATM   23  H           1     -29.506  -7.461 -19.688  0.00  0.00     0.275 HD
HETATM   24  H           1     -29.762  -7.615 -18.008  0.00  0.00     0.275 HD
ENDBRANCH  20  21
BRANCH  20  25
HETATM   25  C           1     -29.329  -5.056 -18.406  0.00  0.00     0.224 C 
BRANCH  25  26
HETATM   26  O           1     -30.561  -5.572 -17.976  0.00  0.00    -0.287 OA
BRANCH  26  27
HETATM   27  P           1     -31.376  -4.665 -16.918  0.00  0.00     0.406 P 
HETATM   28  O           1     -30.781  -4.822 -15.572  0.00  0.00    -0.624 OA
HETATM   29  O           1     -31.304  -3.245 -17.327  0.00  0.00    -0.624 OA
BRANCH  27  30
HETATM   30  O           1     -32.921  -5.135 -16.881  0.00  0.00    -0.300 OA
HETATM   31  H           1     -33.022  -5.577 -16.055  0.00  0.00     0.223 HD
ENDBRANCH  27  30
ENDBRANCH  26  27
ENDBRANCH  25  26
ENDBRANCH  20  25
ENDBRANCH   3  20
TORSDOF 10
ENDMDL
MODEL 8
REMARK VINA RESULT:      -6.6     13.967     15.870
REMARK  10 active torsions:
REMARK  status: ('A' for Active; 'I' for Inactive)
REMARK    1  A    between atoms: C_1  and  C_30 
REMARK    2  A    between atoms: N_10  and  C_17 
REMARK    3  A    between atoms: O_13  and  P_14 
REMARK    4  A    between atoms: P_14  and  O_15 
REMARK    5  A    between atoms: O_15  and  C_16 
REMARK    6  A    between atoms: C_16  and  C_17 
REMARK    7  A    between atoms: C_17  and  C_18 
REMARK       I    between atoms: C_18  and  N_19 
REMARK    8  A    between atoms: N_19  and  C_30 
REMARK    9  A    between atoms: C_28  and  C_29 
REMARK   10  A    between atoms: C_29  and  C_30 
ROOT
HETATM    1  H           1     -34.262  -5.250 -16.255  0.00  0.00     0.163 HD
HETATM    2  O           1     -34.643  -3.005 -14.575  0.00  0.00    -0.271 OA
HETATM    3  C           1     -34.075  -4.071 -14.565  0.00  0.00     0.251 C 
HETATM    4  N           1     -33.649  -4.631 -15.738  0.00  0.00    -0.344 N 
ENDROOT
BRANCH   4   5
HETATM    5  C           1     -32.322  -4.339 -16.242  0.00  0.00     0.190 C 
BRANCH   5   6
HETATM    6  C           1     -32.415  -3.303 -17.335  0.00  0.00     0.197 C 
HETATM    7  O           1     -33.515  -2.774 -17.603  0.00  0.00    -0.646 OA
HETATM    8  O           1     -31.391  -2.976 -17.975  0.00  0.00    -0.646 OA
ENDBRANCH   5   6
BRANCH   5   9
HETATM    9  C           1     -31.699  -5.613 -16.799  0.00  0.00     0.077 C 
BRANCH   9  10
HETATM   10  C           1     -30.257  -5.679 -16.401  0.00  0.00    -0.028 A 
HETATM   11  C           1     -29.154  -5.881 -17.277  0.00  0.00    -0.002 A 
HETATM   12  C           1     -29.029  -6.071 -18.666  0.00  0.00     0.014 A 
HETATM   13  C           1     -28.001  -5.874 -16.492  0.00  0.00     0.042 A 
HETATM   14  C           1     -27.755  -6.246 -19.221  0.00  0.00     0.001 A 
HETATM   15  C           1     -26.620  -6.234 -18.413  0.00  0.00     0.002 A 
HETATM   16  C           1     -26.720  -6.048 -17.031  0.00  0.00     0.030 A 
HETATM   17  N           1     -28.398  -5.674 -15.190  0.00  0.00    -0.365 N 
HETATM   18  H           1     -27.750  -5.620 -14.366  0.00  0.00     0.165 HD
HETATM   19  C           1     -29.761  -5.554 -15.123  0.00  0.00     0.096 A 
ENDBRANCH   9  10
ENDBRANCH   5   9
ENDBRANCH   4   5
BRANCH   3  20
HETATM   20  C           1     -33.835  -4.784 -13.256  0.00  0.00     0.298 C 
BRANCH  20  21
HETATM   21  N           1     -32.459  -4.457 -12.756  0.00  0.00    -0.064 N 
HETATM   22  H           1     -32.353  -4.804 -11.776  0.00  0.00     0.275 HD
HETATM   23  H           1     -32.317  -3.422 -12.776  0.00  0.00     0.275 HD
HETATM   24  H           1     -31.747  -4.917 -13.368  0.00  0.00     0.275 HD
ENDBRANCH  20  21
BRANCH  20  25
HETATM   25  C           1     -34.868  -4.331 -12.233  0.00  0.00     0.224 C 
BRANCH  25  26
HETATM   26  O           1     -34.265  -3.462 -11.313  0.00  0.00    -0.287 OA
BRANCH  26  27
HETATM   27  P           1     -35.027  -2.061 -11.059  0.00  0.00     0.406 P 
HETATM   28  O           1     -36.480  -2.307 -10.924  0.00  0.00    -0.624 OA
HETATM   29  O           1     -34.513  -1.438  -9.819  0.00  0.00    -0.624 OA
BRANCH  27  30
HETATM   30  O           1     -34.763  -1.070 -12.307  0.00  0.00    -0.300 OA
HETATM   31  H           1     -33.832  -0.929 -12.314  0.00  0.00     0.223 HD
ENDBRANCH  27  30
ENDBRANCH  26  27
ENDBRANCH  25  26
ENDBRANCH  20  25
ENDBRANCH   3  20
TORSDOF 10
ENDMDL
MODEL 9
REMARK VINA RESULT:      -6.5      4.214      6.711
REMARK  10 active torsions:
REMARK  status: ('A' for Active; 'I' for Inactive)
REMARK    1  A    between atoms: C_1  and  C_30 
REMARK    2  A    between atoms: N_10  and  C_17 
REMARK    3  A    between atoms: O_13  and  P_14 
REMARK    4  A    between atoms: P_14  and  O_15 
REMARK    5  A    between atoms: O_15  and  C_16 
REMARK    6  A    between atoms: C_16  and  C_17 
REMARK    7  A    between atoms: C_17  and  C_18 
REMARK       I    between atoms: C_18  and  N_19 
REMARK    8  A    between atoms: N_19  and  C_30 
REMARK    9  A    between atoms: C_28  and  C_29 
REMARK   10  A    between atoms: C_29  and  C_30 
ROOT
HETATM    1  H           1     -18.923  -9.530  -6.398  0.00  0.00     0.163 HD
HETATM    2  O           1     -20.922 -11.496  -6.784  0.00  0.00    -0.271 OA
HETATM    3  C           1     -20.049 -11.220  -5.996  0.00  0.00     0.251 C 
HETATM    4  N           1     -19.666  -9.916  -5.829  0.00  0.00    -0.344 N 
ENDROOT
BRANCH   4   5
HETATM    5  C           1     -20.323  -9.089  -4.835  0.00  0.00     0.190 C 
BRANCH   5   6
HETATM    6  C           1     -20.798  -7.810  -5.481  0.00  0.00     0.197 C 
HETATM    7  O           1     -20.048  -7.190  -6.264  0.00  0.00    -0.646 OA
HETATM    8  O           1     -21.941  -7.370  -5.230  0.00  0.00    -0.646 OA
ENDBRANCH   5   6
BRANCH   5   9
HETATM    9  C           1     -19.340  -8.761  -3.718  0.00  0.00     0.077 C 
BRANCH   9  10
HETATM   10  C           1     -19.880  -9.263  -2.416  0.00  0.00    -0.028 A 
HETATM   11  C           1     -20.837  -8.604  -1.595  0.00  0.00    -0.002 A 
HETATM   12  C           1     -21.540  -7.388  -1.693  0.00  0.00     0.014 A 
HETATM   13  C           1     -21.054  -9.418  -0.483  0.00  0.00     0.042 A 
HETATM   14  C           1     -22.435  -7.030  -0.678  0.00  0.00     0.001 A 
HETATM   15  C           1     -22.631  -7.863   0.422  0.00  0.00     0.002 A 
HETATM   16  C           1     -21.944  -9.075   0.542  0.00  0.00     0.030 A 
HETATM   17  N           1     -20.254 -10.528  -0.631  0.00  0.00    -0.365 N 
HETATM   18  H           1     -20.199 -11.324   0.050  0.00  0.00     0.165 HD
HETATM   19  C           1     -19.539 -10.445  -1.797  0.00  0.00     0.096 A 
ENDBRANCH   9  10
ENDBRANCH   5   9
ENDBRANCH   4   5
BRANCH   3  20
HETATM   20  C           1     -19.381 -12.312  -5.196  0.00  0.00     0.298 C 
BRANCH  20  21
HETATM   21  N           1     -19.885 -13.647  -5.658  0.00  0.00    -0.064 N 
HETATM   22  H           1     -19.143 -14.369  -5.511  0.00  0.00     0.275 HD
HETATM   23  H           1     -20.125 -13.597  -6.674  0.00  0.00     0.275 HD
HETATM   24  H           1     -20.737 -13.907  -5.111  0.00  0.00     0.275 HD
ENDBRANCH  20  21
BRANCH  20  25
HETATM   25  C           1     -17.874 -12.240  -5.398  0.00  0.00     0.224 C 
BRANCH  25  26
HETATM   26  O           1     -17.297 -11.499  -4.356  0.00  0.00    -0.287 OA
BRANCH  26  27
HETATM   27  P           1     -16.124 -10.475  -4.782  0.00  0.00     0.406 P 
HETATM   28  O           1     -14.895 -11.237  -5.098  0.00  0.00    -0.624 OA
HETATM   29  O           1     -16.549  -9.706  -5.973  0.00  0.00    -0.624 OA
BRANCH  27  30
HETATM   30  O           1     -15.826  -9.458  -3.563  0.00  0.00    -0.300 OA
HETATM   31  H           1     -15.130  -8.903  -3.873  0.00  0.00     0.223 HD
ENDBRANCH  27  30
ENDBRANCH  26  27
ENDBRANCH  25  26
ENDBRANCH  20  25
ENDBRANCH   3  20
TORSDOF 10
ENDMDL
