MODEL 1
REMARK VINA RESULT:      -6.1      0.000      0.000
REMARK  3 active torsions:
REMARK  status: ('A' for Active; 'I' for Inactive)
REMARK    1  A    between atoms: C_2  and  C_12 
REMARK    2  A    between atoms: N_6  and  C_12 
REMARK       I    between atoms: N_6  and  C_7 
REMARK    3  A    between atoms: C_7  and  C_10 
ROOT
HETATM    1  H           1     -33.710  -1.164 -12.824  0.00  0.00     0.163 HD
HETATM    2  N           1     -34.713  -1.050 -12.766  0.00  0.00    -0.345 N 
HETATM    3  C           1     -35.427  -1.732 -11.818  0.00  0.00     0.251 C 
HETATM    4  O           1     -36.625  -1.595 -11.749  0.00  0.00    -0.271 OA
ENDROOT
BRANCH   3   5
HETATM    5  C           1     -34.717  -2.656 -10.859  0.00  0.00     0.311 C 
HETATM    6  N           1     -35.250  -4.012 -10.954  0.00  0.00     0.097 N 
HETATM    7  H           1     -34.978  -4.565 -10.141  0.00  0.00     0.317 HD
HETATM    8  C           1     -34.636  -4.576 -12.153  0.00  0.00     0.271 C 
HETATM    9  C           1     -33.203  -4.074 -12.099  0.00  0.00     0.033 C 
HETATM   10  C           1     -33.255  -2.814 -11.242  0.00  0.00     0.047 C 
ENDBRANCH   3   5
BRANCH   2  11
HETATM   11  C           1     -35.396  -0.162 -13.687  0.00  0.00     0.181 C 
HETATM   12  C           1     -34.632   1.151 -13.789  0.00  0.00     0.043 C 
BRANCH  11  13
HETATM   13  C           1     -35.466  -0.809 -15.049  0.00  0.00     0.196 C 
HETATM   14  O           1     -35.895  -0.160 -16.028  0.00  0.00    -0.646 OA
HETATM   15  O           1     -35.094  -1.993 -15.199  0.00  0.00    -0.646 OA
ENDBRANCH  11  13
ENDBRANCH   2  11
TORSDOF 3
ENDMDL
MODEL 2
REMARK VINA RESULT:      -5.9     13.028     14.180
REMARK  3 active torsions:
REMARK  status: ('A' for Active; 'I' for Inactive)
REMARK    1  A    between atoms: C_2  and  C_12 
REMARK    2  A    between atoms: N_6  and  C_12 
REMARK       I    between atoms: N_6  and  C_7 
REMARK    3  A    between atoms: C_7  and  C_10 
ROOT
HETATM    1  H           1     -21.172  -5.453  -9.857  0.00  0.00     0.163 HD
HETATM    2  N           1     -21.786  -4.777  -9.423  0.00  0.00    -0.345 N 
HETATM    3  C           1     -21.999  -4.813  -8.070  0.00  0.00     0.251 C 
HETATM    4  O           1     -22.732  -4.004  -7.552  0.00  0.00    -0.271 OA
ENDROOT
BRANCH   3   5
HETATM    5  C           1     -21.318  -5.863  -7.228  0.00  0.00     0.311 C 
HETATM    6  N           1     -19.899  -5.954  -7.558  0.00  0.00     0.097 N 
HETATM    7  H           1     -19.500  -6.824  -7.204  0.00  0.00     0.317 HD
HETATM    8  C           1     -19.279  -4.822  -6.875  0.00  0.00     0.271 C 
HETATM    9  C           1     -19.985  -4.778  -5.530  0.00  0.00     0.033 C 
HETATM   10  C           1     -21.325  -5.469  -5.761  0.00  0.00     0.047 C 
ENDBRANCH   3   5
BRANCH   2  11
HETATM   11  C           1     -22.440  -3.767 -10.232  0.00  0.00     0.181 C 
HETATM   12  C           1     -21.486  -3.288 -11.318  0.00  0.00     0.043 C 
BRANCH  11  13
HETATM   13  C           1     -23.673  -4.357 -10.871  0.00  0.00     0.196 C 
HETATM   14  O           1     -23.625  -4.782 -12.046  0.00  0.00    -0.646 OA
HETATM   15  O           1     -24.743  -4.421 -10.226  0.00  0.00    -0.646 OA
ENDBRANCH  11  13
ENDBRANCH   2  11
TORSDOF 3
ENDMDL
MODEL 3
REMARK VINA RESULT:      -5.9      1.909      4.748
REMARK  3 active torsions:
REMARK  status: ('A' for Active; 'I' for Inactive)
REMARK    1  A    between atoms: C_2  and  C_12 
REMARK    2  A    between atoms: N_6  and  C_12 
REMARK       I    between atoms: N_6  and  C_7 
REMARK    3  A    between atoms: C_7  and  C_10 
ROOT
HETATM    1  H           1     -34.850  -2.129 -11.292  0.00  0.00     0.163 HD
HETATM    2  N           1     -34.689  -2.455 -12.236  0.00  0.00    -0.345 N 
HETATM    3  C           1     -35.200  -1.759 -13.298  0.00  0.00     0.251 C 
HETATM    4  O           1     -35.007  -2.150 -14.425  0.00  0.00    -0.271 OA
ENDROOT
BRANCH   3   5
HETATM    5  C           1     -36.006  -0.506 -13.062  0.00  0.00     0.311 C 
HETATM    6  N           1     -35.177   0.540 -12.469  0.00  0.00     0.097 N 
HETATM    7  H           1     -35.756   1.273 -12.061  0.00  0.00     0.317 HD
HETATM    8  C           1     -34.410   1.090 -13.583  0.00  0.00     0.271 C 
HETATM    9  C           1     -35.413   1.145 -14.723  0.00  0.00     0.033 C 
HETATM   10  C           1     -36.466   0.099 -14.377  0.00  0.00     0.047 C 
ENDBRANCH   3   5
BRANCH   2  11
HETATM   11  C           1     -33.915  -3.660 -12.463  0.00  0.00     0.181 C 
HETATM   12  C           1     -32.676  -3.644 -11.578  0.00  0.00     0.043 C 
BRANCH  11  13
HETATM   13  C           1     -34.755  -4.868 -12.128  0.00  0.00     0.196 C 
HETATM   14  O           1     -34.967  -5.170 -10.934  0.00  0.00    -0.646 OA
HETATM   15  O           1     -35.240  -5.566 -13.045  0.00  0.00    -0.646 OA
ENDBRANCH  11  13
ENDBRANCH   2  11
TORSDOF 3
ENDMDL
MODEL 4
REMARK VINA RESULT:      -5.8      2.133      4.594
REMARK  3 active torsions:
REMARK  status: ('A' for Active; 'I' for Inactive)
REMARK    1  A    between atoms: C_2  and  C_12 
REMARK    2  A    between atoms: N_6  and  C_12 
REMARK       I    between atoms: N_6  and  C_7 
REMARK    3  A    between atoms: C_7  and  C_10 
ROOT
HETATM    1  H           1     -34.587  -1.739 -11.143  0.00  0.00     0.163 HD
HETATM    2  N           1     -34.582  -2.091 -12.091  0.00  0.00    -0.345 N 
HETATM    3  C           1     -35.056  -1.313 -13.113  0.00  0.00     0.251 C 
HETATM    4  O           1     -35.049  -1.733 -14.245  0.00  0.00    -0.271 OA
ENDROOT
BRANCH   3   5
HETATM    5  C           1     -35.588   0.069 -12.824  0.00  0.00     0.311 C 
HETATM    6  N           1     -36.580   0.462 -13.821  0.00  0.00     0.097 N 
HETATM    7  H           1     -36.737   1.470 -13.796  0.00  0.00     0.317 HD
HETATM    8  C           1     -37.805  -0.230 -13.429  0.00  0.00     0.271 C 
HETATM    9  C           1     -37.819  -0.114 -11.914  0.00  0.00     0.033 C 
HETATM   10  C           1     -36.361   0.089 -11.516  0.00  0.00     0.047 C 
ENDBRANCH   3   5
BRANCH   2  11
HETATM   11  C           1     -34.070  -3.419 -12.369  0.00  0.00     0.181 C 
HETATM   12  C           1     -32.754  -3.622 -11.630  0.00  0.00     0.043 C 
BRANCH  11  13
HETATM   13  C           1     -35.070  -4.449 -11.904  0.00  0.00     0.196 C 
HETATM   14  O           1     -35.118  -5.569 -12.459  0.00  0.00    -0.646 OA
HETATM   15  O           1     -35.851  -4.184 -10.964  0.00  0.00    -0.646 OA
ENDBRANCH  11  13
ENDBRANCH   2  11
TORSDOF 3
ENDMDL
MODEL 5
REMARK VINA RESULT:      -5.7      2.668      3.842
REMARK  3 active torsions:
REMARK  status: ('A' for Active; 'I' for Inactive)
REMARK    1  A    between atoms: C_2  and  C_12 
REMARK    2  A    between atoms: N_6  and  C_12 
REMARK       I    between atoms: N_6  and  C_7 
REMARK    3  A    between atoms: C_7  and  C_10 
ROOT
HETATM    1  H           1     -36.447  -1.714  -9.578  0.00  0.00     0.163 HD
HETATM    2  N           1     -36.032  -1.153 -10.310  0.00  0.00    -0.345 N 
HETATM    3  C           1     -34.868  -1.559 -10.907  0.00  0.00     0.251 C 
HETATM    4  O           1     -34.372  -0.890 -11.781  0.00  0.00    -0.271 OA
ENDROOT
BRANCH   3   5
HETATM    5  C           1     -34.205  -2.842 -10.471  0.00  0.00     0.311 C 
HETATM    6  N           1     -35.050  -3.993 -10.775  0.00  0.00     0.097 N 
HETATM    7  H           1     -34.746  -4.814 -10.251  0.00  0.00     0.317 HD
HETATM    8  C           1     -34.863  -4.232 -12.203  0.00  0.00     0.271 C 
HETATM    9  C           1     -33.375  -4.008 -12.417  0.00  0.00     0.033 C 
HETATM   10  C           1     -32.941  -3.099 -11.274  0.00  0.00     0.047 C 
ENDBRANCH   3   5
BRANCH   2  11
HETATM   11  C           1     -36.669   0.080 -10.729  0.00  0.00     0.181 C 
HETATM   12  C           1     -37.947  -0.242 -11.492  0.00  0.00     0.043 C 
BRANCH  11  13
HETATM   13  C           1     -37.005   0.909  -9.514  0.00  0.00     0.196 C 
HETATM   14  O           1     -36.258   0.881  -8.512  0.00  0.00    -0.646 OA
HETATM   15  O           1     -38.031   1.625  -9.509  0.00  0.00    -0.646 OA
ENDBRANCH  11  13
ENDBRANCH   2  11
TORSDOF 3
ENDMDL
MODEL 6
REMARK VINA RESULT:      -5.6      1.906      2.220
REMARK  3 active torsions:
REMARK  status: ('A' for Active; 'I' for Inactive)
REMARK    1  A    between atoms: C_2  and  C_12 
REMARK    2  A    between atoms: N_6  and  C_12 
REMARK       I    between atoms: N_6  and  C_7 
REMARK    3  A    between atoms: C_7  and  C_10 
ROOT
HETATM    1  H           1     -34.544  -0.839 -11.005  0.00  0.00     0.163 HD
HETATM    2  N           1     -35.393  -1.388 -11.022  0.00  0.00    -0.345 N 
HETATM    3  C           1     -35.354  -2.720 -10.705  0.00  0.00     0.251 C 
HETATM    4  O           1     -36.368  -3.376 -10.725  0.00  0.00    -0.271 OA
ENDROOT
BRANCH   3   5
HETATM    5  C           1     -34.043  -3.368 -10.332  0.00  0.00     0.311 C 
HETATM    6  N           1     -34.147  -4.823 -10.392  0.00  0.00     0.097 N 
HETATM    7  H           1     -33.376  -5.261  -9.890  0.00  0.00     0.317 HD
HETATM    8  C           1     -34.052  -5.150 -11.812  0.00  0.00     0.271 C 
HETATM    9  C           1     -32.977  -4.209 -12.330  0.00  0.00     0.033 C 
HETATM   10  C           1     -32.967  -3.039 -11.353  0.00  0.00     0.047 C 
ENDBRANCH   3   5
BRANCH   2  11
HETATM   11  C           1     -36.653  -0.766 -11.381  0.00  0.00     0.181 C 
HETATM   12  C           1     -36.904   0.433 -10.476  0.00  0.00     0.043 C 
BRANCH  11  13
HETATM   13  C           1     -36.595  -0.307 -12.817  0.00  0.00     0.196 C 
HETATM   14  O           1     -37.426  -0.739 -13.645  0.00  0.00    -0.646 OA
HETATM   15  O           1     -35.716   0.505 -13.180  0.00  0.00    -0.646 OA
ENDBRANCH  11  13
ENDBRANCH   2  11
TORSDOF 3
ENDMDL
MODEL 7
REMARK VINA RESULT:      -5.4      3.162      4.502
REMARK  3 active torsions:
REMARK  status: ('A' for Active; 'I' for Inactive)
REMARK    1  A    between atoms: C_2  and  C_12 
REMARK    2  A    between atoms: N_6  and  C_12 
REMARK       I    between atoms: N_6  and  C_7 
REMARK    3  A    between atoms: C_7  and  C_10 
ROOT
HETATM    1  H           1     -36.021  -2.537 -10.279  0.00  0.00     0.163 HD
HETATM    2  N           1     -35.652  -1.713 -10.735  0.00  0.00    -0.345 N 
HETATM    3  C           1     -36.281  -0.506 -10.583  0.00  0.00     0.251 C 
HETATM    4  O           1     -35.840   0.478 -11.128  0.00  0.00    -0.271 OA
ENDROOT
BRANCH   3   5
HETATM    5  C           1     -37.525  -0.406  -9.735  0.00  0.00     0.311 C 
HETATM    6  N           1     -37.217  -0.656  -8.329  0.00  0.00     0.097 N 
HETATM    7  H           1     -38.067  -0.859  -7.803  0.00  0.00     0.317 HD
HETATM    8  C           1     -36.631   0.591  -7.844  0.00  0.00     0.271 C 
HETATM    9  C           1     -37.477   1.669  -8.498  0.00  0.00     0.033 C 
HETATM   10  C           1     -38.071   1.012  -9.739  0.00  0.00     0.047 C 
ENDBRANCH   3   5
BRANCH   2  11
HETATM   11  C           1     -34.457  -1.809 -11.550  0.00  0.00     0.181 C 
HETATM   12  C           1     -33.362  -2.520 -10.766  0.00  0.00     0.043 C 
BRANCH  11  13
HETATM   13  C           1     -34.765  -2.591 -12.803  0.00  0.00     0.196 C 
HETATM   14  O           1     -35.044  -1.989 -13.863  0.00  0.00    -0.646 OA
HETATM   15  O           1     -34.743  -3.841 -12.782  0.00  0.00    -0.646 OA
ENDBRANCH  11  13
ENDBRANCH   2  11
TORSDOF 3
ENDMDL
MODEL 8
REMARK VINA RESULT:      -5.2     13.618     14.794
REMARK  3 active torsions:
REMARK  status: ('A' for Active; 'I' for Inactive)
REMARK    1  A    between atoms: C_2  and  C_12 
REMARK    2  A    between atoms: N_6  and  C_12 
REMARK       I    between atoms: N_6  and  C_7 
REMARK    3  A    between atoms: C_7  and  C_10 
ROOT
HETATM    1  H           1     -20.534  -5.468  -9.069  0.00  0.00     0.163 HD
HETATM    2  N           1     -20.964  -4.599  -8.780  0.00  0.00    -0.345 N 
HETATM    3  C           1     -20.735  -4.105  -7.524  0.00  0.00     0.251 C 
HETATM    4  O           1     -21.249  -3.067  -7.180  0.00  0.00    -0.271 OA
ENDROOT
BRANCH   3   5
HETATM    5  C           1     -19.842  -4.858  -6.569  0.00  0.00     0.311 C 
HETATM    6  N           1     -20.374  -4.805  -5.210  0.00  0.00     0.097 N 
HETATM    7  H           1     -19.658  -5.065  -4.532  0.00  0.00     0.317 HD
HETATM    8  C           1     -21.448  -5.794  -5.186  0.00  0.00     0.271 C 
HETATM    9  C           1     -20.890  -6.956  -5.990  0.00  0.00     0.033 C 
HETATM   10  C           1     -19.829  -6.341  -6.896  0.00  0.00     0.047 C 
ENDBRANCH   3   5
BRANCH   2  11
HETATM   11  C           1     -21.822  -3.875  -9.698  0.00  0.00     0.181 C 
HETATM   12  C           1     -21.274  -3.999 -11.113  0.00  0.00     0.043 C 
BRANCH  11  13
HETATM   13  C           1     -23.215  -4.456  -9.647  0.00  0.00     0.196 C 
HETATM   14  O           1     -23.592  -5.254 -10.532  0.00  0.00    -0.646 OA
HETATM   15  O           1     -23.991  -4.138  -8.719  0.00  0.00    -0.646 OA
ENDBRANCH  11  13
ENDBRANCH   2  11
TORSDOF 3
ENDMDL
MODEL 9
REMARK VINA RESULT:      -5.0     15.143     16.886
REMARK  3 active torsions:
REMARK  status: ('A' for Active; 'I' for Inactive)
REMARK    1  A    between atoms: C_2  and  C_12 
REMARK    2  A    between atoms: N_6  and  C_12 
REMARK       I    between atoms: N_6  and  C_7 
REMARK    3  A    between atoms: C_7  and  C_10 
ROOT
HETATM    1  H           1     -19.741  -6.063  -4.674  0.00  0.00     0.163 HD
HETATM    2  N           1     -20.734  -6.192  -4.815  0.00  0.00    -0.345 N 
HETATM    3  C           1     -21.418  -5.366  -5.666  0.00  0.00     0.251 C 
HETATM    4  O           1     -22.604  -5.520  -5.835  0.00  0.00    -0.271 OA
ENDROOT
BRANCH   3   5
HETATM    5  C           1     -20.690  -4.261  -6.392  0.00  0.00     0.311 C 
HETATM    6  N           1     -19.544  -4.790  -7.127  0.00  0.00     0.097 N 
HETATM    7  H           1     -18.904  -4.040  -7.387  0.00  0.00     0.317 HD
HETATM    8  C           1     -20.112  -5.384  -8.335  0.00  0.00     0.271 C 
HETATM    9  C           1     -21.190  -4.398  -8.752  0.00  0.00     0.033 C 
HETATM   10  C           1     -21.567  -3.655  -7.475  0.00  0.00     0.047 C 
ENDBRANCH   3   5
BRANCH   2  11
HETATM   11  C           1     -21.434  -7.253  -4.118  0.00  0.00     0.181 C 
HETATM   12  C           1     -20.625  -8.540  -4.207  0.00  0.00     0.043 C 
BRANCH  11  13
HETATM   13  C           1     -21.610  -6.870  -2.668  0.00  0.00     0.196 C 
HETATM   14  O           1     -22.426  -5.977  -2.352  0.00  0.00    -0.646 OA
HETATM   15  O           1     -20.940  -7.446  -1.783  0.00  0.00    -0.646 OA
ENDBRANCH  11  13
ENDBRANCH   2  11
TORSDOF 3
ENDMDL
