MODEL 1
REMARK VINA RESULT:      -6.5      0.000      0.000
REMARK  8 active torsions:
REMARK  status: ('A' for Active; 'I' for Inactive)
REMARK    1  A    between atoms: N_2  and  C_18 
REMARK    2  A    between atoms: C_5  and  C_7 
REMARK    3  A    between atoms: C_7  and  C_8 
REMARK    4  A    between atoms: C_7  and  N_19 
REMARK    5  A    between atoms: C_8  and  C_9 
REMARK       I    between atoms: C_17  and  N_19 
REMARK    6  A    between atoms: C_17  and  C_18 
REMARK    7  A    between atoms: C_18  and  C_24 
REMARK    8  A    between atoms: C_24  and  C_25 
REMARK       I    between atoms: C_25  and  N_26 
ROOT
HETATM    1  O           1     -19.311  -6.519  -7.201  0.00  0.00    -0.271 OA
HETATM    2  C           1     -20.292  -6.674  -6.512  0.00  0.00     0.249 C 
HETATM    3  N           1     -20.590  -7.914  -6.014  0.00  0.00    -0.344 N 
HETATM    4  H           1     -21.175  -8.546  -6.545  0.00  0.00     0.163 HD
ENDROOT
BRANCH   2   5
HETATM    5  C           1     -21.189  -5.501  -6.202  0.00  0.00     0.283 C 
BRANCH   5   6
HETATM    6  N           1     -20.401  -4.447  -5.481  0.00  0.00    -0.066 N 
HETATM    7  H           1     -19.619  -4.897  -4.953  0.00  0.00     0.275 HD
HETATM    8  H           1     -20.008  -3.772  -6.174  0.00  0.00     0.275 HD
HETATM    9  H           1     -21.025  -3.941  -4.814  0.00  0.00     0.275 HD
ENDBRANCH   5   6
BRANCH   5  10
HETATM   10  C           1     -21.736  -4.923  -7.501  0.00  0.00     0.145 C 
BRANCH  10  11
HETATM   11  C           1     -23.178  -4.524  -7.308  0.00  0.00     0.217 C 
HETATM   12  O           1     -23.745  -4.791  -6.275  0.00  0.00    -0.274 OA
HETATM   13  N           1     -23.843  -3.860  -8.302  0.00  0.00    -0.370 N 
HETATM   14  H           1     -24.811  -3.592  -8.172  0.00  0.00     0.159 HD
HETATM   15  H           1     -23.369  -3.635  -9.167  0.00  0.00     0.159 HD
ENDBRANCH  10  11
ENDBRANCH   5  10
ENDBRANCH   2   5
BRANCH   3  16
HETATM   16  C           1     -20.066  -8.322  -4.725  0.00  0.00     0.189 C 
BRANCH  16  17
HETATM   17  C           1     -18.831  -9.166  -4.929  0.00  0.00     0.197 C 
HETATM   18  O           1     -18.060  -9.387  -3.970  0.00  0.00    -0.646 OA
HETATM   19  O           1     -18.581  -9.646  -6.056  0.00  0.00    -0.646 OA
ENDBRANCH  16  17
BRANCH  16  20
HETATM   20  C           1     -21.120  -9.134  -3.984  0.00  0.00     0.074 C 
BRANCH  20  21
HETATM   21  C           1     -21.561  -8.385  -2.764  0.00  0.00    -0.056 A 
HETATM   22  C           1     -21.779  -7.009  -2.832  0.00  0.00     0.007 A 
HETATM   23  C           1     -22.189  -6.311  -1.696  0.00  0.00     0.001 A 
HETATM   24  C           1     -22.383  -6.990  -0.493  0.00  0.00     0.000 A 
HETATM   25  C           1     -22.165  -8.366  -0.425  0.00  0.00     0.001 A 
HETATM   26  C           1     -21.754  -9.064  -1.561  0.00  0.00     0.007 A 
ENDBRANCH  20  21
ENDBRANCH  16  20
ENDBRANCH   3  16
TORSDOF 8
ENDMDL
MODEL 2
REMARK VINA RESULT:      -6.4      2.922      6.340
REMARK  8 active torsions:
REMARK  status: ('A' for Active; 'I' for Inactive)
REMARK    1  A    between atoms: N_2  and  C_18 
REMARK    2  A    between atoms: C_5  and  C_7 
REMARK    3  A    between atoms: C_7  and  C_8 
REMARK    4  A    between atoms: C_7  and  N_19 
REMARK    5  A    between atoms: C_8  and  C_9 
REMARK       I    between atoms: C_17  and  N_19 
REMARK    6  A    between atoms: C_17  and  C_18 
REMARK    7  A    between atoms: C_18  and  C_24 
REMARK    8  A    between atoms: C_24  and  C_25 
REMARK       I    between atoms: C_25  and  N_26 
ROOT
HETATM    1  O           1     -21.547  -5.349  -2.323  0.00  0.00    -0.271 OA
HETATM    2  C           1     -21.925  -6.414  -2.750  0.00  0.00     0.249 C 
HETATM    3  N           1     -22.548  -6.481  -3.967  0.00  0.00    -0.344 N 
HETATM    4  H           1     -23.554  -6.387  -4.027  0.00  0.00     0.163 HD
ENDROOT
BRANCH   2   5
HETATM    5  C           1     -21.712  -7.669  -1.941  0.00  0.00     0.283 C 
BRANCH   5   6
HETATM    6  N           1     -20.241  -7.895  -1.749  0.00  0.00    -0.066 N 
HETATM    7  H           1     -19.810  -8.177  -2.659  0.00  0.00     0.275 HD
HETATM    8  H           1     -19.795  -7.012  -1.412  0.00  0.00     0.275 HD
HETATM    9  H           1     -20.093  -8.653  -1.045  0.00  0.00     0.275 HD
ENDBRANCH   5   6
BRANCH   5  10
HETATM   10  C           1     -22.381  -7.517  -0.581  0.00  0.00     0.145 C 
BRANCH  10  11
HETATM   11  C           1     -22.310  -8.826   0.166  0.00  0.00     0.217 C 
HETATM   12  O           1     -21.413  -9.026   0.950  0.00  0.00    -0.274 OA
HETATM   13  N           1     -23.261  -9.787  -0.046  0.00  0.00    -0.370 N 
HETATM   14  H           1     -23.213 -10.665   0.456  0.00  0.00     0.159 HD
HETATM   15  H           1     -24.013  -9.620  -0.702  0.00  0.00     0.159 HD
ENDBRANCH  10  11
ENDBRANCH   5  10
ENDBRANCH   2   5
BRANCH   3  16
HETATM   16  C           1     -21.766  -6.687  -5.171  0.00  0.00     0.189 C 
BRANCH  16  17
HETATM   17  C           1     -20.966  -7.960  -5.039  0.00  0.00     0.197 C 
HETATM   18  O           1     -19.726  -7.906  -4.892  0.00  0.00    -0.646 OA
HETATM   19  O           1     -21.543  -9.068  -5.076  0.00  0.00    -0.646 OA
ENDBRANCH  16  17
BRANCH  16  20
HETATM   20  C           1     -20.819  -5.510  -5.367  0.00  0.00     0.074 C 
BRANCH  20  21
HETATM   21  C           1     -20.939  -5.001  -6.770  0.00  0.00    -0.056 A 
HETATM   22  C           1     -19.828  -5.014  -7.613  0.00  0.00     0.007 A 
HETATM   23  C           1     -19.939  -4.540  -8.921  0.00  0.00     0.001 A 
HETATM   24  C           1     -21.161  -4.053  -9.384  0.00  0.00     0.000 A 
HETATM   25  C           1     -22.271  -4.039  -8.540  0.00  0.00     0.001 A 
HETATM   26  C           1     -22.161  -4.513  -7.233  0.00  0.00     0.007 A 
ENDBRANCH  20  21
ENDBRANCH  16  20
ENDBRANCH   3  16
TORSDOF 8
ENDMDL
MODEL 3
REMARK VINA RESULT:      -6.4      2.452      5.437
REMARK  8 active torsions:
REMARK  status: ('A' for Active; 'I' for Inactive)
REMARK    1  A    between atoms: N_2  and  C_18 
REMARK    2  A    between atoms: C_5  and  C_7 
REMARK    3  A    between atoms: C_7  and  C_8 
REMARK    4  A    between atoms: C_7  and  N_19 
REMARK    5  A    between atoms: C_8  and  C_9 
REMARK       I    between atoms: C_17  and  N_19 
REMARK    6  A    between atoms: C_17  and  C_18 
REMARK    7  A    between atoms: C_18  and  C_24 
REMARK    8  A    between atoms: C_24  and  C_25 
REMARK       I    between atoms: C_25  and  N_26 
ROOT
HETATM    1  O           1     -19.492 -10.017  -5.906  0.00  0.00    -0.271 OA
HETATM    2  C           1     -19.347  -9.507  -4.820  0.00  0.00     0.249 C 
HETATM    3  N           1     -19.687  -8.195  -4.629  0.00  0.00    -0.344 N 
HETATM    4  H           1     -19.001  -7.466  -4.782  0.00  0.00     0.163 HD
ENDROOT
BRANCH   2   5
HETATM    5  C           1     -18.787 -10.315  -3.676  0.00  0.00     0.283 C 
BRANCH   5   6
HETATM    6  N           1     -18.029 -11.491  -4.220  0.00  0.00    -0.066 N 
HETATM    7  H           1     -18.520 -11.861  -5.065  0.00  0.00     0.275 HD
HETATM    8  H           1     -17.064 -11.190  -4.483  0.00  0.00     0.275 HD
HETATM    9  H           1     -17.976 -12.239  -3.492  0.00  0.00     0.275 HD
ENDBRANCH   5   6
BRANCH   5  10
HETATM   10  C           1     -17.847  -9.446  -2.851  0.00  0.00     0.145 C 
BRANCH  10  11
HETATM   11  C           1     -16.418  -9.822  -3.152  0.00  0.00     0.217 C 
HETATM   12  O           1     -15.949  -9.591  -4.242  0.00  0.00    -0.274 OA
HETATM   13  N           1     -15.651 -10.423  -2.191  0.00  0.00    -0.370 N 
HETATM   14  H           1     -14.692 -10.675  -2.393  0.00  0.00     0.159 HD
HETATM   15  H           1     -16.043 -10.616  -1.278  0.00  0.00     0.159 HD
ENDBRANCH  10  11
ENDBRANCH   5  10
ENDBRANCH   2   5
BRANCH   3  16
HETATM   16  C           1     -21.031  -7.849  -4.208  0.00  0.00     0.189 C 
BRANCH  16  17
HETATM   17  C           1     -21.689  -7.005  -5.272  0.00  0.00     0.197 C 
HETATM   18  O           1     -22.655  -6.269  -4.977  0.00  0.00    -0.646 OA
HETATM   19  O           1     -21.268  -7.042  -6.449  0.00  0.00    -0.646 OA
ENDBRANCH  16  17
BRANCH  16  20
HETATM   20  C           1     -20.966  -7.063  -2.905  0.00  0.00     0.074 C 
BRANCH  20  21
HETATM   21  C           1     -21.703  -7.808  -1.835  0.00  0.00    -0.056 A 
HETATM   22  C           1     -22.273  -7.114  -0.768  0.00  0.00     0.007 A 
HETATM   23  C           1     -22.959  -7.807   0.229  0.00  0.00     0.001 A 
HETATM   24  C           1     -23.075  -9.195   0.158  0.00  0.00     0.000 A 
HETATM   25  C           1     -22.504  -9.890  -0.908  0.00  0.00     0.001 A 
HETATM   26  C           1     -21.818  -9.196  -1.905  0.00  0.00     0.007 A 
ENDBRANCH  20  21
ENDBRANCH  16  20
ENDBRANCH   3  16
TORSDOF 8
ENDMDL
MODEL 4
REMARK VINA RESULT:      -6.3      3.376      4.911
REMARK  8 active torsions:
REMARK  status: ('A' for Active; 'I' for Inactive)
REMARK    1  A    between atoms: N_2  and  C_18 
REMARK    2  A    between atoms: C_5  and  C_7 
REMARK    3  A    between atoms: C_7  and  C_8 
REMARK    4  A    between atoms: C_7  and  N_19 
REMARK    5  A    between atoms: C_8  and  C_9 
REMARK       I    between atoms: C_17  and  N_19 
REMARK    6  A    between atoms: C_17  and  C_18 
REMARK    7  A    between atoms: C_18  and  C_24 
REMARK    8  A    between atoms: C_24  and  C_25 
REMARK       I    between atoms: C_25  and  N_26 
ROOT
HETATM    1  O           1     -22.238  -5.685  -2.414  0.00  0.00    -0.271 OA
HETATM    2  C           1     -21.757  -6.739  -2.757  0.00  0.00     0.249 C 
HETATM    3  N           1     -21.139  -7.542  -1.837  0.00  0.00    -0.344 N 
HETATM    4  H           1     -20.148  -7.438  -1.658  0.00  0.00     0.163 HD
ENDROOT
BRANCH   2   5
HETATM    5  C           1     -21.835  -7.168  -4.202  0.00  0.00     0.283 C 
BRANCH   5   6
HETATM    6  N           1     -22.732  -6.228  -4.953  0.00  0.00    -0.066 N 
HETATM    7  H           1     -23.616  -6.722  -5.211  0.00  0.00     0.275 HD
HETATM    8  H           1     -22.957  -5.406  -4.349  0.00  0.00     0.275 HD
HETATM    9  H           1     -22.248  -5.903  -5.820  0.00  0.00     0.275 HD
ENDBRANCH   5   6
BRANCH   5  10
HETATM   10  C           1     -20.442  -7.138  -4.817  0.00  0.00     0.145 C 
BRANCH  10  11
HETATM   11  C           1     -20.439  -6.218  -6.012  0.00  0.00     0.217 C 
HETATM   12  O           1     -20.904  -6.590  -7.063  0.00  0.00    -0.274 OA
HETATM   13  N           1     -19.910  -4.960  -5.906  0.00  0.00    -0.370 N 
HETATM   14  H           1     -19.908  -4.342  -6.708  0.00  0.00     0.159 HD
HETATM   15  H           1     -19.521  -4.647  -5.026  0.00  0.00     0.159 HD
ENDBRANCH  10  11
ENDBRANCH   5  10
ENDBRANCH   2   5
BRANCH   3  16
HETATM   16  C           1     -21.904  -8.542  -1.118  0.00  0.00     0.189 C 
BRANCH  16  17
HETATM   17  C           1     -22.306  -7.993   0.230  0.00  0.00     0.197 C 
HETATM   18  O           1     -23.469  -7.574   0.411  0.00  0.00    -0.646 OA
HETATM   19  O           1     -21.476  -7.959   1.163  0.00  0.00    -0.646 OA
ENDBRANCH  16  17
BRANCH  16  20
HETATM   20  C           1     -21.052  -9.790  -0.924  0.00  0.00     0.074 C 
BRANCH  20  21
HETATM   21  C           1     -21.922 -10.925  -0.480  0.00  0.00    -0.056 A 
HETATM   22  C           1     -21.529 -11.726   0.592  0.00  0.00     0.007 A 
HETATM   23  C           1     -22.339 -12.784   1.006  0.00  0.00     0.001 A 
HETATM   24  C           1     -23.542 -13.039   0.348  0.00  0.00     0.000 A 
HETATM   25  C           1     -23.935 -12.238  -0.724  0.00  0.00     0.001 A 
HETATM   26  C           1     -23.125 -11.180  -1.139  0.00  0.00     0.007 A 
ENDBRANCH  20  21
ENDBRANCH  16  20
ENDBRANCH   3  16
TORSDOF 8
ENDMDL
MODEL 5
REMARK VINA RESULT:      -6.0      2.967      6.109
REMARK  8 active torsions:
REMARK  status: ('A' for Active; 'I' for Inactive)
REMARK    1  A    between atoms: N_2  and  C_18 
REMARK    2  A    between atoms: C_5  and  C_7 
REMARK    3  A    between atoms: C_7  and  C_8 
REMARK    4  A    between atoms: C_7  and  N_19 
REMARK    5  A    between atoms: C_8  and  C_9 
REMARK       I    between atoms: C_17  and  N_19 
REMARK    6  A    between atoms: C_17  and  C_18 
REMARK    7  A    between atoms: C_18  and  C_24 
REMARK    8  A    between atoms: C_24  and  C_25 
REMARK       I    between atoms: C_25  and  N_26 
ROOT
HETATM    1  O           1     -20.993  -9.888  -5.636  0.00  0.00    -0.271 OA
HETATM    2  C           1     -21.186  -9.581  -4.483  0.00  0.00     0.249 C 
HETATM    3  N           1     -20.427  -8.602  -3.899  0.00  0.00    -0.344 N 
HETATM    4  H           1     -19.566  -8.844  -3.426  0.00  0.00     0.163 HD
ENDROOT
BRANCH   2   5
HETATM    5  C           1     -22.262 -10.277  -3.686  0.00  0.00     0.283 C 
BRANCH   5   6
HETATM    6  N           1     -22.617 -11.573  -4.355  0.00  0.00    -0.066 N 
HETATM    7  H           1     -21.811 -11.897  -4.937  0.00  0.00     0.275 HD
HETATM    8  H           1     -22.829 -12.292  -3.627  0.00  0.00     0.275 HD
HETATM    9  H           1     -23.454 -11.434  -4.964  0.00  0.00     0.275 HD
ENDBRANCH   5   6
BRANCH   5  10
HETATM   10  C           1     -21.752 -10.556  -2.279  0.00  0.00     0.145 C 
BRANCH  10  11
HETATM   11  C           1     -22.899 -10.480  -1.302  0.00  0.00     0.217 C 
HETATM   12  O           1     -23.837 -11.233  -1.413  0.00  0.00    -0.274 OA
HETATM   13  N           1     -22.876  -9.559  -0.290  0.00  0.00    -0.370 N 
HETATM   14  H           1     -23.646  -9.509   0.366  0.00  0.00     0.159 HD
HETATM   15  H           1     -22.090  -8.929  -0.196  0.00  0.00     0.159 HD
ENDBRANCH  10  11
ENDBRANCH   5  10
ENDBRANCH   2   5
BRANCH   3  16
HETATM   16  C           1     -20.857  -7.219  -3.961  0.00  0.00     0.189 C 
BRANCH  16  17
HETATM   17  C           1     -21.541  -6.848  -2.668  0.00  0.00     0.197 C 
HETATM   18  O           1     -22.500  -6.046  -2.677  0.00  0.00    -0.646 OA
HETATM   19  O           1     -21.150  -7.342  -1.589  0.00  0.00    -0.646 OA
ENDBRANCH  16  17
BRANCH  16  20
HETATM   20  C           1     -21.830  -7.042  -5.120  0.00  0.00     0.074 C 
BRANCH  20  21
HETATM   21  C           1     -21.322  -5.974  -6.039  0.00  0.00    -0.056 A 
HETATM   22  C           1     -22.202  -5.024  -6.557  0.00  0.00     0.007 A 
HETATM   23  C           1     -21.730  -4.029  -7.413  0.00  0.00     0.001 A 
HETATM   24  C           1     -20.378  -3.985  -7.751  0.00  0.00     0.000 A 
HETATM   25  C           1     -19.498  -4.935  -7.234  0.00  0.00     0.001 A 
HETATM   26  C           1     -19.970  -5.930  -6.377  0.00  0.00     0.007 A 
ENDBRANCH  20  21
ENDBRANCH  16  20
ENDBRANCH   3  16
TORSDOF 8
ENDMDL
MODEL 6
REMARK VINA RESULT:      -5.9      3.627      6.065
REMARK  8 active torsions:
REMARK  status: ('A' for Active; 'I' for Inactive)
REMARK    1  A    between atoms: N_2  and  C_18 
REMARK    2  A    between atoms: C_5  and  C_7 
REMARK    3  A    between atoms: C_7  and  C_8 
REMARK    4  A    between atoms: C_7  and  N_19 
REMARK    5  A    between atoms: C_8  and  C_9 
REMARK       I    between atoms: C_17  and  N_19 
REMARK    6  A    between atoms: C_17  and  C_18 
REMARK    7  A    between atoms: C_18  and  C_24 
REMARK    8  A    between atoms: C_24  and  C_25 
REMARK       I    between atoms: C_25  and  N_26 
ROOT
HETATM    1  O           1     -19.976  -8.389  -4.591  0.00  0.00    -0.271 OA
HETATM    2  C           1     -19.821  -8.910  -3.511  0.00  0.00     0.249 C 
HETATM    3  N           1     -20.043  -8.192  -2.367  0.00  0.00    -0.344 N 
HETATM    4  H           1     -19.287  -7.671  -1.941  0.00  0.00     0.163 HD
ENDROOT
BRANCH   2   5
HETATM    5  C           1     -19.382 -10.351  -3.424  0.00  0.00     0.283 C 
BRANCH   5   6
HETATM    6  N           1     -18.694 -10.739  -4.700  0.00  0.00    -0.066 N 
HETATM    7  H           1     -18.004 -10.000  -4.964  0.00  0.00     0.275 HD
HETATM    8  H           1     -18.194 -11.647  -4.563  0.00  0.00     0.275 HD
HETATM    9  H           1     -19.403 -10.842  -5.461  0.00  0.00     0.275 HD
ENDBRANCH   5   6
BRANCH   5  10
HETATM   10  C           1     -18.416 -10.518  -2.258  0.00  0.00     0.145 C 
BRANCH  10  11
HETATM   11  C           1     -16.998 -10.516  -2.773  0.00  0.00     0.217 C 
HETATM   12  O           1     -16.488 -11.548  -3.141  0.00  0.00    -0.274 OA
HETATM   13  N           1     -16.290  -9.346  -2.825  0.00  0.00    -0.370 N 
HETATM   14  H           1     -15.339  -9.346  -3.172  0.00  0.00     0.159 HD
HETATM   15  H           1     -16.717  -8.482  -2.519  0.00  0.00     0.159 HD
ENDBRANCH  10  11
ENDBRANCH   5  10
ENDBRANCH   2   5
BRANCH   3  16
HETATM   16  C           1     -21.363  -8.177  -1.766  0.00  0.00     0.189 C 
BRANCH  16  17
HETATM   17  C           1     -21.955  -6.794  -1.889  0.00  0.00     0.197 C 
HETATM   18  O           1     -22.606  -6.306  -0.939  0.00  0.00    -0.646 OA
HETATM   19  O           1     -21.794  -6.136  -2.939  0.00  0.00    -0.646 OA
ENDBRANCH  16  17
BRANCH  16  20
HETATM   20  C           1     -21.253  -8.553  -0.293  0.00  0.00     0.074 C 
BRANCH  20  21
HETATM   21  C           1     -21.975  -9.842  -0.052  0.00  0.00    -0.056 A 
HETATM   22  C           1     -23.347  -9.927  -0.288  0.00  0.00     0.007 A 
HETATM   23  C           1     -24.021 -11.127  -0.062  0.00  0.00     0.001 A 
HETATM   24  C           1     -23.321 -12.243   0.398  0.00  0.00     0.000 A 
HETATM   25  C           1     -21.950 -12.158   0.634  0.00  0.00     0.001 A 
HETATM   26  C           1     -21.276 -10.957   0.409  0.00  0.00     0.007 A 
ENDBRANCH  20  21
ENDBRANCH  16  20
ENDBRANCH   3  16
TORSDOF 8
ENDMDL
MODEL 7
REMARK VINA RESULT:      -5.9      2.935      5.310
REMARK  8 active torsions:
REMARK  status: ('A' for Active; 'I' for Inactive)
REMARK    1  A    between atoms: N_2  and  C_18 
REMARK    2  A    between atoms: C_5  and  C_7 
REMARK    3  A    between atoms: C_7  and  C_8 
REMARK    4  A    between atoms: C_7  and  N_19 
REMARK    5  A    between atoms: C_8  and  C_9 
REMARK       I    between atoms: C_17  and  N_19 
REMARK    6  A    between atoms: C_17  and  C_18 
REMARK    7  A    between atoms: C_18  and  C_24 
REMARK    8  A    between atoms: C_24  and  C_25 
REMARK       I    between atoms: C_25  and  N_26 
ROOT
HETATM    1  O           1     -21.631 -11.544  -2.496  0.00  0.00    -0.271 OA
HETATM    2  C           1     -21.357 -10.370  -2.566  0.00  0.00     0.249 C 
HETATM    3  N           1     -20.283  -9.960  -3.311  0.00  0.00    -0.344 N 
HETATM    4  H           1     -19.368  -9.889  -2.884  0.00  0.00     0.163 HD
ENDROOT
BRANCH   2   5
HETATM    5  C           1     -22.196  -9.354  -1.831  0.00  0.00     0.283 C 
BRANCH   5   6
HETATM    6  N           1     -22.693  -9.953  -0.549  0.00  0.00    -0.066 N 
HETATM    7  H           1     -22.014  -9.747   0.219  0.00  0.00     0.275 HD
HETATM    8  H           1     -23.623  -9.540  -0.310  0.00  0.00     0.275 HD
HETATM    9  H           1     -22.789 -10.987  -0.661  0.00  0.00     0.275 HD
ENDBRANCH   5   6
BRANCH   5  10
HETATM   10  C           1     -21.350  -8.125  -1.521  0.00  0.00     0.145 C 
BRANCH  10  11
HETATM   11  C           1     -22.251  -6.977  -1.138  0.00  0.00     0.217 C 
HETATM   12  O           1     -22.944  -7.056  -0.151  0.00  0.00    -0.274 OA
HETATM   13  N           1     -22.282  -5.846  -1.908  0.00  0.00    -0.370 N 
HETATM   14  H           1     -22.886  -5.075  -1.650  0.00  0.00     0.159 HD
HETATM   15  H           1     -21.702  -5.779  -2.734  0.00  0.00     0.159 HD
ENDBRANCH  10  11
ENDBRANCH   5  10
ENDBRANCH   2   5
BRANCH   3  16
HETATM   16  C           1     -20.457  -9.631  -4.713  0.00  0.00     0.189 C 
BRANCH  16  17
HETATM   17  C           1     -20.135 -10.840  -5.557  0.00  0.00     0.197 C 
HETATM   18  O           1     -20.800 -11.077  -6.588  0.00  0.00    -0.646 OA
HETATM   19  O           1     -19.203 -11.604  -5.224  0.00  0.00    -0.646 OA
ENDBRANCH  16  17
BRANCH  16  20
HETATM   20  C           1     -19.521  -8.488  -5.084  0.00  0.00     0.074 C 
BRANCH  20  21
HETATM   21  C           1     -20.325  -7.321  -5.569  0.00  0.00    -0.056 A 
HETATM   22  C           1     -21.632  -7.140  -5.118  0.00  0.00     0.007 A 
HETATM   23  C           1     -22.382  -6.054  -5.570  0.00  0.00     0.001 A 
HETATM   24  C           1     -21.823  -5.149  -6.472  0.00  0.00     0.000 A 
HETATM   25  C           1     -20.516  -5.331  -6.924  0.00  0.00     0.001 A 
HETATM   26  C           1     -19.766  -6.417  -6.473  0.00  0.00     0.007 A 
ENDBRANCH  20  21
ENDBRANCH  16  20
ENDBRANCH   3  16
TORSDOF 8
ENDMDL
MODEL 8
REMARK VINA RESULT:      -5.9      3.603      5.601
REMARK  8 active torsions:
REMARK  status: ('A' for Active; 'I' for Inactive)
REMARK    1  A    between atoms: N_2  and  C_18 
REMARK    2  A    between atoms: C_5  and  C_7 
REMARK    3  A    between atoms: C_7  and  C_8 
REMARK    4  A    between atoms: C_7  and  N_19 
REMARK    5  A    between atoms: C_8  and  C_9 
REMARK       I    between atoms: C_17  and  N_19 
REMARK    6  A    between atoms: C_17  and  C_18 
REMARK    7  A    between atoms: C_18  and  C_24 
REMARK    8  A    between atoms: C_24  and  C_25 
REMARK       I    between atoms: C_25  and  N_26 
ROOT
HETATM    1  O           1     -20.039  -8.333  -4.575  0.00  0.00    -0.271 OA
HETATM    2  C           1     -19.920  -8.965  -3.551  0.00  0.00     0.249 C 
HETATM    3  N           1     -20.052  -8.339  -2.341  0.00  0.00    -0.344 N 
HETATM    4  H           1     -19.241  -7.935  -1.889  0.00  0.00     0.163 HD
ENDROOT
BRANCH   2   5
HETATM    5  C           1     -19.623 -10.443  -3.608  0.00  0.00     0.283 C 
BRANCH   5   6
HETATM    6  N           1     -18.901 -10.854  -2.358  0.00  0.00    -0.066 N 
HETATM    7  H           1     -18.258 -10.086  -2.058  0.00  0.00     0.275 HD
HETATM    8  H           1     -19.596 -11.040  -1.600  0.00  0.00     0.275 HD
HETATM    9  H           1     -18.346 -11.719  -2.544  0.00  0.00     0.275 HD
ENDBRANCH   5   6
BRANCH   5  10
HETATM   10  C           1     -20.928 -11.220  -3.715  0.00  0.00     0.145 C 
BRANCH  10  11
HETATM   11  C           1     -21.103 -11.719  -5.128  0.00  0.00     0.217 C 
HETATM   12  O           1     -21.492 -12.846  -5.327  0.00  0.00    -0.274 OA
HETATM   13  N           1     -20.822 -10.895  -6.184  0.00  0.00    -0.370 N 
HETATM   14  H           1     -20.940 -11.231  -7.133  0.00  0.00     0.159 HD
HETATM   15  H           1     -20.497  -9.952  -6.019  0.00  0.00     0.159 HD
ENDBRANCH  10  11
ENDBRANCH   5  10
ENDBRANCH   2   5
BRANCH   3  16
HETATM   16  C           1     -21.354  -8.253  -1.708  0.00  0.00     0.189 C 
BRANCH  16  17
HETATM   17  C           1     -21.857  -6.832  -1.787  0.00  0.00     0.197 C 
HETATM   18  O           1     -21.471  -6.082  -2.710  0.00  0.00    -0.646 OA
HETATM   19  O           1     -22.662  -6.405  -0.930  0.00  0.00    -0.646 OA
ENDBRANCH  16  17
BRANCH  16  20
HETATM   20  C           1     -21.235  -8.669  -0.247  0.00  0.00     0.074 C 
BRANCH  20  21
HETATM   21  C           1     -21.989  -9.944  -0.029  0.00  0.00    -0.056 A 
HETATM   22  C           1     -21.328 -11.068   0.464  0.00  0.00     0.007 A 
HETATM   23  C           1     -22.030 -12.257   0.668  0.00  0.00     0.001 A 
HETATM   24  C           1     -23.393 -12.319   0.379  0.00  0.00     0.000 A 
HETATM   25  C           1     -24.054 -11.195  -0.115  0.00  0.00     0.001 A 
HETATM   26  C           1     -23.352 -10.006  -0.319  0.00  0.00     0.007 A 
ENDBRANCH  20  21
ENDBRANCH  16  20
ENDBRANCH   3  16
TORSDOF 8
ENDMDL
MODEL 9
REMARK VINA RESULT:      -5.6     18.279     20.165
REMARK  8 active torsions:
REMARK  status: ('A' for Active; 'I' for Inactive)
REMARK    1  A    between atoms: N_2  and  C_18 
REMARK    2  A    between atoms: C_5  and  C_7 
REMARK    3  A    between atoms: C_7  and  C_8 
REMARK    4  A    between atoms: C_7  and  N_19 
REMARK    5  A    between atoms: C_8  and  C_9 
REMARK       I    between atoms: C_17  and  N_19 
REMARK    6  A    between atoms: C_17  and  C_18 
REMARK    7  A    between atoms: C_18  and  C_24 
REMARK    8  A    between atoms: C_24  and  C_25 
REMARK       I    between atoms: C_25  and  N_26 
ROOT
HETATM    1  O           1     -18.249   9.588   6.700  0.00  0.00    -0.271 OA
HETATM    2  C           1     -17.413   9.562   5.828  0.00  0.00     0.249 C 
HETATM    3  N           1     -17.683   8.942   4.638  0.00  0.00    -0.344 N 
HETATM    4  H           1     -17.473   7.959   4.519  0.00  0.00     0.163 HD
ENDROOT
BRANCH   2   5
HETATM    5  C           1     -16.069  10.210   6.053  0.00  0.00     0.283 C 
BRANCH   5   6
HETATM    6  N           1     -16.255  11.497   6.802  0.00  0.00    -0.066 N 
HETATM    7  H           1     -16.983  11.368   7.541  0.00  0.00     0.275 HD
HETATM    8  H           1     -15.352  11.773   7.248  0.00  0.00     0.275 HD
HETATM    9  H           1     -16.561  12.245   6.139  0.00  0.00     0.275 HD
ENDBRANCH   5   6
BRANCH   5  10
HETATM   10  C           1     -15.184   9.275   6.868  0.00  0.00     0.145 C 
BRANCH  10  11
HETATM   11  C           1     -14.142   8.657   5.970  0.00  0.00     0.217 C 
HETATM   12  O           1     -12.995   9.033   6.028  0.00  0.00    -0.274 OA
HETATM   13  N           1     -14.495   7.670   5.090  0.00  0.00    -0.370 N 
HETATM   14  H           1     -13.795   7.255   4.487  0.00  0.00     0.159 HD
HETATM   15  H           1     -15.455   7.355   5.041  0.00  0.00     0.159 HD
ENDBRANCH  10  11
ENDBRANCH   5  10
ENDBRANCH   2   5
BRANCH   3  16
HETATM   16  C           1     -18.272   9.695   3.547  0.00  0.00     0.189 C 
BRANCH  16  17
HETATM   17  C           1     -19.776   9.658   3.666  0.00  0.00     0.197 C 
HETATM   18  O           1     -20.398  10.676   4.038  0.00  0.00    -0.646 OA
HETATM   19  O           1     -20.399   8.609   3.392  0.00  0.00    -0.646 OA
ENDBRANCH  16  17
BRANCH  16  20
HETATM   20  C           1     -17.852   9.075   2.220  0.00  0.00     0.074 C 
BRANCH  20  21
HETATM   21  C           1     -16.392   9.319   1.995  0.00  0.00    -0.056 A 
HETATM   22  C           1     -15.884  10.616   2.057  0.00  0.00     0.007 A 
HETATM   23  C           1     -14.524  10.844   1.847  0.00  0.00     0.001 A 
HETATM   24  C           1     -13.672   9.773   1.575  0.00  0.00     0.000 A 
HETATM   25  C           1     -14.180   8.476   1.512  0.00  0.00     0.001 A 
HETATM   26  C           1     -15.540   8.248   1.722  0.00  0.00     0.007 A 
ENDBRANCH  20  21
ENDBRANCH  16  20
ENDBRANCH   3  16
TORSDOF 8
ENDMDL
