MODEL 1
REMARK VINA RESULT:      -7.0      0.000      0.000
REMARK  16 active torsions:
REMARK  status: ('A' for Active; 'I' for Inactive)
REMARK       I    between atoms: C_1  and  N_23 
REMARK    1  A    between atoms: C_1  and  C_21 
REMARK    2  A    between atoms: C_3  and  C_4 
REMARK    3  A    between atoms: C_4  and  C_5 
REMARK    4  A    between atoms: C_4  and  N_33 
REMARK    5  A    between atoms: C_5  and  C_6 
REMARK    6  A    between atoms: C_6  and  C_8 
REMARK    7  A    between atoms: C_13  and  C_30 
REMARK       I    between atoms: N_14  and  C_16 
REMARK       I    between atoms: N_15  and  C_16 
REMARK    8  A    between atoms: N_17  and  C_18 
REMARK    9  A    between atoms: C_18  and  C_19 
REMARK   10  A    between atoms: C_19  and  C_20 
REMARK   11  A    between atoms: C_20  and  C_21 
REMARK   12  A    between atoms: C_21  and  N_36 
REMARK   13  A    between atoms: N_23  and  C_30 
REMARK   14  A    between atoms: C_30  and  C_31 
REMARK   15  A    between atoms: C_31  and  C_32 
REMARK   16  A    between atoms: C_32  and  N_33 
ROOT
HETATM    1  C           1     -34.257  -3.052 -16.158  0.00  0.00     0.249 C 
HETATM    2  H           1     -34.460  -1.314 -17.264  0.00  0.00     0.163 HD
HETATM    3  N           1     -34.722  -1.789 -16.410  0.00  0.00    -0.345 N 
HETATM    4  O           1     -34.569  -3.619 -15.138  0.00  0.00    -0.271 OA
ENDROOT
BRANCH   1   5
HETATM    5  C           1     -33.352  -3.735 -17.154  0.00  0.00     0.274 C 
BRANCH   5   6
HETATM    6  C           1     -32.763  -4.992 -16.528  0.00  0.00     0.044 C 
BRANCH   6   7
HETATM    7  C           1     -31.247  -4.967 -16.669  0.00  0.00     0.023 C 
BRANCH   7   8
HETATM    8  C           1     -30.764  -6.310 -17.201  0.00  0.00     0.138 C 
BRANCH   8   9
HETATM    9  N           1     -29.635  -6.097 -18.120  0.00  0.00    -0.227 N 
HETATM   10  C           1     -28.491  -6.555 -17.833  0.00  0.00     0.665 C 
HETATM   11  N           1     -28.313  -7.214 -16.725  0.00  0.00    -0.235 N 
HETATM   12  N           1     -27.519  -6.371 -18.622  0.00  0.00    -0.235 N 
HETATM   13  H           1     -27.368  -7.591 -16.489  0.00  0.00     0.174 HD
HETATM   14  H           1     -29.115  -7.365 -16.074  0.00  0.00     0.174 HD
HETATM   15  H           1     -26.569  -6.751 -18.384  0.00  0.00     0.174 HD
HETATM   16  H           1     -27.663  -5.840 -19.517  0.00  0.00     0.174 HD
HETATM   17  H           1     -29.779  -5.565 -19.013  0.00  0.00     0.177 HD
ENDBRANCH   8   9
ENDBRANCH   7   8
ENDBRANCH   6   7
ENDBRANCH   5   6
BRANCH   5  18
HETATM   18  N           1     -32.242  -2.804 -17.543  0.00  0.00    -0.067 N 
HETATM   19  H           1     -31.333  -3.318 -17.521  0.00  0.00     0.275 HD
HETATM   20  H           1     -32.207  -2.005 -16.870  0.00  0.00     0.275 HD
HETATM   21  H           1     -32.414  -2.440 -18.506  0.00  0.00     0.275 HD
ENDBRANCH   5  18
ENDBRANCH   1   5
BRANCH   3  22
HETATM   22  C           1     -35.591  -1.132 -15.452  0.00  0.00     0.187 C 
BRANCH  22  23
HETATM   23  C           1     -36.631  -0.325 -16.191  0.00  0.00     0.196 C 
HETATM   24  O           1     -37.585  -0.902 -16.754  0.00  0.00    -0.646 OA
HETATM   25  O           1     -36.537   0.921 -16.237  0.00  0.00    -0.646 OA
ENDBRANCH  22  23
BRANCH  22  26
HETATM   26  C           1     -34.763  -0.209 -14.568  0.00  0.00     0.066 C 
BRANCH  26  27
HETATM   27  C           1     -35.374  -0.159 -13.174  0.00  0.00     0.273 C 
BRANCH  27  28
HETATM   28  N           1     -34.377  -0.515 -12.200  0.00  0.00     0.098 N 
HETATM   29  H           1     -34.419   0.136 -11.417  0.00  0.00     0.317 HD
BRANCH  28  30
HETATM   30  C           1     -34.676  -1.843 -11.735  0.00  0.00     0.320 C 
BRANCH  30  31
HETATM   31  C           1     -35.774  -1.778 -10.701  0.00  0.00     0.207 C 
HETATM   32  O           1     -36.670  -2.649 -10.685  0.00  0.00    -0.646 OA
HETATM   33  O           1     -35.787  -0.852  -9.861  0.00  0.00    -0.646 OA
ENDBRANCH  30  31
BRANCH  30  34
HETATM   34  C           1     -33.428  -2.455 -11.113  0.00  0.00     0.057 C 
BRANCH  34  35
HETATM   35  C           1     -33.067  -3.736 -11.853  0.00  0.00     0.116 C 
BRANCH  35  36
HETATM   36  C           1     -34.005  -4.841 -11.434  0.00  0.00     0.172 C 
HETATM   37  O           1     -34.811  -5.324 -12.258  0.00  0.00    -0.648 OA
HETATM   38  O           1     -33.974  -5.275 -10.262  0.00  0.00    -0.648 OA
ENDBRANCH  35  36
ENDBRANCH  34  35
ENDBRANCH  30  34
ENDBRANCH  28  30
ENDBRANCH  27  28
ENDBRANCH  26  27
ENDBRANCH  22  26
ENDBRANCH   3  22
TORSDOF 16
ENDMDL
MODEL 2
REMARK VINA RESULT:      -6.9      2.300      3.486
REMARK  16 active torsions:
REMARK  status: ('A' for Active; 'I' for Inactive)
REMARK       I    between atoms: C_1  and  N_23 
REMARK    1  A    between atoms: C_1  and  C_21 
REMARK    2  A    between atoms: C_3  and  C_4 
REMARK    3  A    between atoms: C_4  and  C_5 
REMARK    4  A    between atoms: C_4  and  N_33 
REMARK    5  A    between atoms: C_5  and  C_6 
REMARK    6  A    between atoms: C_6  and  C_8 
REMARK    7  A    between atoms: C_13  and  C_30 
REMARK       I    between atoms: N_14  and  C_16 
REMARK       I    between atoms: N_15  and  C_16 
REMARK    8  A    between atoms: N_17  and  C_18 
REMARK    9  A    between atoms: C_18  and  C_19 
REMARK   10  A    between atoms: C_19  and  C_20 
REMARK   11  A    between atoms: C_20  and  C_21 
REMARK   12  A    between atoms: C_21  and  N_36 
REMARK   13  A    between atoms: N_23  and  C_30 
REMARK   14  A    between atoms: C_30  and  C_31 
REMARK   15  A    between atoms: C_31  and  C_32 
REMARK   16  A    between atoms: C_32  and  N_33 
ROOT
HETATM    1  C           1     -31.437  -5.375 -16.540  0.00  0.00     0.249 C 
HETATM    2  H           1     -31.884  -3.951 -15.104  0.00  0.00     0.163 HD
HETATM    3  N           1     -32.262  -4.534 -15.841  0.00  0.00    -0.345 N 
HETATM    4  O           1     -31.888  -6.071 -17.418  0.00  0.00    -0.271 OA
ENDROOT
BRANCH   1   5
HETATM    5  C           1     -29.965  -5.431 -16.213  0.00  0.00     0.274 C 
BRANCH   5   6
HETATM    6  C           1     -29.315  -6.567 -16.992  0.00  0.00     0.044 C 
BRANCH   6   7
HETATM    7  C           1     -28.135  -6.026 -17.789  0.00  0.00     0.023 C 
BRANCH   7   8
HETATM    8  C           1     -26.930  -5.870 -16.871  0.00  0.00     0.138 C 
BRANCH   8   9
HETATM    9  N           1     -25.878  -6.814 -17.277  0.00  0.00    -0.227 N 
HETATM   10  C           1     -24.930  -7.084 -16.484  0.00  0.00     0.665 C 
HETATM   11  N           1     -24.885  -6.526 -15.310  0.00  0.00    -0.235 N 
HETATM   12  N           1     -24.024  -7.896 -16.833  0.00  0.00    -0.235 N 
HETATM   13  H           1     -24.101  -6.749 -14.655  0.00  0.00     0.174 HD
HETATM   14  H           1     -25.632  -5.856 -15.022  0.00  0.00     0.174 HD
HETATM   15  H           1     -23.237  -8.121 -16.175  0.00  0.00     0.174 HD
HETATM   16  H           1     -24.060  -8.348 -17.781  0.00  0.00     0.174 HD
HETATM   17  H           1     -25.914  -7.264 -18.225  0.00  0.00     0.177 HD
ENDBRANCH   8   9
ENDBRANCH   7   8
ENDBRANCH   6   7
ENDBRANCH   5   6
BRANCH   5  18
HETATM   18  N           1     -29.788  -5.670 -14.743  0.00  0.00    -0.067 N 
HETATM   19  H           1     -30.701  -5.963 -14.325  0.00  0.00     0.275 HD
HETATM   20  H           1     -29.463  -4.789 -14.284  0.00  0.00     0.275 HD
HETATM   21  H           1     -29.080  -6.422 -14.594  0.00  0.00     0.275 HD
ENDBRANCH   5  18
ENDBRANCH   1   5
BRANCH   3  22
HETATM   22  C           1     -33.676  -4.480 -16.154  0.00  0.00     0.187 C 
BRANCH  22  23
HETATM   23  C           1     -34.010  -3.127 -16.733  0.00  0.00     0.196 C 
HETATM   24  O           1     -35.030  -2.516 -16.347  0.00  0.00    -0.646 OA
HETATM   25  O           1     -33.267  -2.617 -17.599  0.00  0.00    -0.646 OA
ENDBRANCH  22  23
BRANCH  22  26
HETATM   26  C           1     -34.486  -4.704 -14.884  0.00  0.00     0.066 C 
BRANCH  26  27
HETATM   27  C           1     -33.732  -4.127 -13.693  0.00  0.00     0.273 C 
BRANCH  27  28
HETATM   28  N           1     -34.314  -2.865 -13.321  0.00  0.00     0.098 N 
HETATM   29  H           1     -35.144  -2.693 -13.888  0.00  0.00     0.317 HD
BRANCH  28  30
HETATM   30  C           1     -34.688  -2.949 -11.935  0.00  0.00     0.320 C 
BRANCH  30  31
HETATM   31  C           1     -34.328  -1.660 -11.239  0.00  0.00     0.207 C 
HETATM   32  O           1     -34.875  -0.589 -11.583  0.00  0.00    -0.646 OA
HETATM   33  O           1     -33.483  -1.662 -10.317  0.00  0.00    -0.646 OA
ENDBRANCH  30  31
BRANCH  30  34
HETATM   34  C           1     -33.945  -4.105 -11.280  0.00  0.00     0.057 C 
BRANCH  34  35
HETATM   35  C           1     -34.935  -4.987 -10.530  0.00  0.00     0.116 C 
BRANCH  35  36
HETATM   36  C           1     -34.369  -6.379 -10.395  0.00  0.00     0.172 C 
HETATM   37  O           1     -33.262  -6.657 -10.906  0.00  0.00    -0.648 OA
HETATM   38  O           1     -35.007  -7.255  -9.771  0.00  0.00    -0.648 OA
ENDBRANCH  35  36
ENDBRANCH  34  35
ENDBRANCH  30  34
ENDBRANCH  28  30
ENDBRANCH  27  28
ENDBRANCH  26  27
ENDBRANCH  22  26
ENDBRANCH   3  22
TORSDOF 16
ENDMDL
MODEL 3
REMARK VINA RESULT:      -6.9     13.976     16.862
REMARK  16 active torsions:
REMARK  status: ('A' for Active; 'I' for Inactive)
REMARK       I    between atoms: C_1  and  N_23 
REMARK    1  A    between atoms: C_1  and  C_21 
REMARK    2  A    between atoms: C_3  and  C_4 
REMARK    3  A    between atoms: C_4  and  C_5 
REMARK    4  A    between atoms: C_4  and  N_33 
REMARK    5  A    between atoms: C_5  and  C_6 
REMARK    6  A    between atoms: C_6  and  C_8 
REMARK    7  A    between atoms: C_13  and  C_30 
REMARK       I    between atoms: N_14  and  C_16 
REMARK       I    between atoms: N_15  and  C_16 
REMARK    8  A    between atoms: N_17  and  C_18 
REMARK    9  A    between atoms: C_18  and  C_19 
REMARK   10  A    between atoms: C_19  and  C_20 
REMARK   11  A    between atoms: C_20  and  C_21 
REMARK   12  A    between atoms: C_21  and  N_36 
REMARK   13  A    between atoms: N_23  and  C_30 
REMARK   14  A    between atoms: C_30  and  C_31 
REMARK   15  A    between atoms: C_31  and  C_32 
REMARK   16  A    between atoms: C_32  and  N_33 
ROOT
HETATM    1  C           1     -20.248  -9.057  -5.052  0.00  0.00     0.249 C 
HETATM    2  H           1     -21.706  -8.510  -6.416  0.00  0.00     0.163 HD
HETATM    3  N           1     -20.977  -8.172  -5.800  0.00  0.00    -0.345 N 
HETATM    4  O           1     -19.378  -8.654  -4.318  0.00  0.00    -0.271 OA
ENDROOT
BRANCH   1   5
HETATM    5  C           1     -20.532 -10.536  -5.145  0.00  0.00     0.274 C 
BRANCH   5   6
HETATM    6  C           1     -20.069 -11.224  -3.867  0.00  0.00     0.044 C 
BRANCH   6   7
HETATM    7  C           1     -21.218 -11.265  -2.868  0.00  0.00     0.023 C 
BRANCH   7   8
HETATM    8  C           1     -20.833 -10.480  -1.620  0.00  0.00     0.138 C 
BRANCH   8   9
HETATM    9  N           1     -21.845  -9.445  -1.360  0.00  0.00    -0.227 N 
HETATM   10  C           1     -21.516  -8.224  -1.365  0.00  0.00     0.665 C 
HETATM   11  N           1     -20.283  -7.882  -1.599  0.00  0.00    -0.235 N 
HETATM   12  N           1     -22.387  -7.332  -1.140  0.00  0.00    -0.235 N 
HETATM   13  H           1     -20.012  -6.873  -1.603  0.00  0.00     0.174 HD
HETATM   14  H           1     -19.565  -8.618  -1.785  0.00  0.00     0.174 HD
HETATM   15  H           1     -22.114  -6.318  -1.144  0.00  0.00     0.174 HD
HETATM   16  H           1     -23.383  -7.607  -0.951  0.00  0.00     0.174 HD
HETATM   17  H           1     -22.841  -9.721  -1.170  0.00  0.00     0.177 HD
ENDBRANCH   8   9
ENDBRANCH   7   8
ENDBRANCH   6   7
ENDBRANCH   5   6
BRANCH   5  18
HETATM   18  N           1     -19.795 -11.114  -6.317  0.00  0.00    -0.067 N 
HETATM   19  H           1     -20.266 -10.821  -7.203  0.00  0.00     0.275 HD
HETATM   20  H           1     -19.798 -12.157  -6.250  0.00  0.00     0.275 HD
HETATM   21  H           1     -18.810 -10.768  -6.315  0.00  0.00     0.275 HD
ENDBRANCH   5  18
ENDBRANCH   1   5
BRANCH   3  22
HETATM   22  C           1     -20.705  -6.751  -5.712  0.00  0.00     0.187 C 
BRANCH  22  23
HETATM   23  C           1     -21.743  -6.095  -4.835  0.00  0.00     0.196 C 
HETATM   24  O           1     -21.453  -5.759  -3.667  0.00  0.00    -0.646 OA
HETATM   25  O           1     -22.893  -5.886  -5.278  0.00  0.00    -0.646 OA
ENDBRANCH  22  23
BRANCH  22  26
HETATM   26  C           1     -20.754  -6.137  -7.105  0.00  0.00     0.066 C 
BRANCH  26  27
HETATM   27  C           1     -19.797  -4.955  -7.173  0.00  0.00     0.273 C 
BRANCH  27  28
HETATM   28  N           1     -20.453  -3.841  -7.804  0.00  0.00     0.098 N 
HETATM   29  H           1     -19.754  -3.208  -8.190  0.00  0.00     0.317 HD
BRANCH  28  30
HETATM   30  C           1     -21.270  -4.360  -8.867  0.00  0.00     0.320 C 
BRANCH  30  31
HETATM   31  C           1     -20.553  -4.182 -10.183  0.00  0.00     0.207 C 
HETATM   32  O           1     -19.757  -5.059 -10.585  0.00  0.00    -0.646 OA
HETATM   33  O           1     -20.756  -3.159 -10.872  0.00  0.00    -0.646 OA
ENDBRANCH  30  31
BRANCH  30  34
HETATM   34  C           1     -22.593  -3.607  -8.903  0.00  0.00     0.057 C 
BRANCH  34  35
HETATM   35  C           1     -23.695  -4.538  -9.392  0.00  0.00     0.116 C 
BRANCH  35  36
HETATM   36  C           1     -24.171  -4.086 -10.750  0.00  0.00     0.172 C 
HETATM   37  O           1     -23.692  -4.601 -11.784  0.00  0.00    -0.648 OA
HETATM   38  O           1     -25.044  -3.196 -10.842  0.00  0.00    -0.648 OA
ENDBRANCH  35  36
ENDBRANCH  34  35
ENDBRANCH  30  34
ENDBRANCH  28  30
ENDBRANCH  27  28
ENDBRANCH  26  27
ENDBRANCH  22  26
ENDBRANCH   3  22
TORSDOF 16
ENDMDL
MODEL 4
REMARK VINA RESULT:      -6.8      2.454      4.599
REMARK  16 active torsions:
REMARK  status: ('A' for Active; 'I' for Inactive)
REMARK       I    between atoms: C_1  and  N_23 
REMARK    1  A    between atoms: C_1  and  C_21 
REMARK    2  A    between atoms: C_3  and  C_4 
REMARK    3  A    between atoms: C_4  and  C_5 
REMARK    4  A    between atoms: C_4  and  N_33 
REMARK    5  A    between atoms: C_5  and  C_6 
REMARK    6  A    between atoms: C_6  and  C_8 
REMARK    7  A    between atoms: C_13  and  C_30 
REMARK       I    between atoms: N_14  and  C_16 
REMARK       I    between atoms: N_15  and  C_16 
REMARK    8  A    between atoms: N_17  and  C_18 
REMARK    9  A    between atoms: C_18  and  C_19 
REMARK   10  A    between atoms: C_19  and  C_20 
REMARK   11  A    between atoms: C_20  and  C_21 
REMARK   12  A    between atoms: C_21  and  N_36 
REMARK   13  A    between atoms: N_23  and  C_30 
REMARK   14  A    between atoms: C_30  and  C_31 
REMARK   15  A    between atoms: C_31  and  C_32 
REMARK   16  A    between atoms: C_32  and  N_33 
ROOT
HETATM    1  C           1     -30.808  -6.319 -17.130  0.00  0.00     0.249 C 
HETATM    2  H           1     -30.968  -4.837 -15.693  0.00  0.00     0.163 HD
HETATM    3  N           1     -31.418  -5.276 -16.487  0.00  0.00    -0.345 N 
HETATM    4  O           1     -31.345  -6.842 -18.076  0.00  0.00    -0.271 OA
ENDROOT
BRANCH   1   5
HETATM    5  C           1     -29.463  -6.814 -16.656  0.00  0.00     0.274 C 
BRANCH   5   6
HETATM    6  C           1     -28.361  -5.966 -17.277  0.00  0.00     0.044 C 
BRANCH   6   7
HETATM    7  C           1     -27.388  -5.525 -16.192  0.00  0.00     0.023 C 
BRANCH   7   8
HETATM    8  C           1     -26.223  -6.505 -16.126  0.00  0.00     0.138 C 
BRANCH   8   9
HETATM    9  N           1     -25.687  -6.722 -17.478  0.00  0.00    -0.227 N 
HETATM   10  C           1     -24.565  -7.286 -17.631  0.00  0.00     0.665 C 
HETATM   11  N           1     -23.885  -7.675 -16.592  0.00  0.00    -0.235 N 
HETATM   12  N           1     -24.102  -7.473 -18.794  0.00  0.00    -0.235 N 
HETATM   13  H           1     -22.959  -8.141 -16.718  0.00  0.00     0.174 HD
HETATM   14  H           1     -24.267  -7.521 -15.632  0.00  0.00     0.174 HD
HETATM   15  H           1     -23.171  -7.942 -18.921  0.00  0.00     0.174 HD
HETATM   16  H           1     -24.651  -7.160 -19.634  0.00  0.00     0.174 HD
HETATM   17  H           1     -26.235  -6.407 -18.317  0.00  0.00     0.177 HD
ENDBRANCH   8   9
ENDBRANCH   7   8
ENDBRANCH   6   7
ENDBRANCH   5   6
BRANCH   5  18
HETATM   18  N           1     -29.284  -8.245 -17.069  0.00  0.00    -0.067 N 
HETATM   19  H           1     -28.292  -8.401 -17.360  0.00  0.00     0.275 HD
HETATM   20  H           1     -29.919  -8.458 -17.871  0.00  0.00     0.275 HD
HETATM   21  H           1     -29.514  -8.871 -16.267  0.00  0.00     0.275 HD
ENDBRANCH   5  18
ENDBRANCH   1   5
BRANCH   3  22
HETATM   22  C           1     -32.710  -4.800 -16.941  0.00  0.00     0.187 C 
BRANCH  22  23
HETATM   23  C           1     -32.571  -3.388 -17.457  0.00  0.00     0.196 C 
HETATM   24  O           1     -31.479  -2.997 -17.923  0.00  0.00    -0.646 OA
HETATM   25  O           1     -33.548  -2.610 -17.418  0.00  0.00    -0.646 OA
ENDBRANCH  22  23
BRANCH  22  26
HETATM   26  C           1     -33.696  -4.822 -15.780  0.00  0.00     0.066 C 
BRANCH  26  27
HETATM   27  C           1     -32.993  -4.373 -14.507  0.00  0.00     0.273 C 
BRANCH  27  28
HETATM   28  N           1     -33.971  -3.954 -13.540  0.00  0.00     0.098 N 
HETATM   29  H           1     -34.809  -4.526 -13.634  0.00  0.00     0.317 HD
BRANCH  28  30
HETATM   30  C           1     -33.402  -4.147 -12.233  0.00  0.00     0.320 C 
BRANCH  30  31
HETATM   31  C           1     -34.166  -5.229 -11.508  0.00  0.00     0.207 C 
HETATM   32  O           1     -34.024  -5.374 -10.275  0.00  0.00    -0.646 OA
HETATM   33  O           1     -34.940  -5.979 -12.142  0.00  0.00    -0.646 OA
ENDBRANCH  30  31
BRANCH  30  34
HETATM   34  C           1     -33.491  -2.847 -11.445  0.00  0.00     0.057 C 
BRANCH  34  35
HETATM   35  C           1     -34.924  -2.334 -11.471  0.00  0.00     0.116 C 
BRANCH  35  36
HETATM   36  C           1     -34.984  -1.043 -12.250  0.00  0.00     0.172 C 
HETATM   37  O           1     -35.128   0.044 -11.649  0.00  0.00    -0.648 OA
HETATM   38  O           1     -34.889  -1.061 -13.496  0.00  0.00    -0.648 OA
ENDBRANCH  35  36
ENDBRANCH  34  35
ENDBRANCH  30  34
ENDBRANCH  28  30
ENDBRANCH  27  28
ENDBRANCH  26  27
ENDBRANCH  22  26
ENDBRANCH   3  22
TORSDOF 16
ENDMDL
MODEL 5
REMARK VINA RESULT:      -6.7      2.931      7.342
REMARK  16 active torsions:
REMARK  status: ('A' for Active; 'I' for Inactive)
REMARK       I    between atoms: C_1  and  N_23 
REMARK    1  A    between atoms: C_1  and  C_21 
REMARK    2  A    between atoms: C_3  and  C_4 
REMARK    3  A    between atoms: C_4  and  C_5 
REMARK    4  A    between atoms: C_4  and  N_33 
REMARK    5  A    between atoms: C_5  and  C_6 
REMARK    6  A    between atoms: C_6  and  C_8 
REMARK    7  A    between atoms: C_13  and  C_30 
REMARK       I    between atoms: N_14  and  C_16 
REMARK       I    between atoms: N_15  and  C_16 
REMARK    8  A    between atoms: N_17  and  C_18 
REMARK    9  A    between atoms: C_18  and  C_19 
REMARK   10  A    between atoms: C_19  and  C_20 
REMARK   11  A    between atoms: C_20  and  C_21 
REMARK   12  A    between atoms: C_21  and  N_36 
REMARK   13  A    between atoms: N_23  and  C_30 
REMARK   14  A    between atoms: C_30  and  C_31 
REMARK   15  A    between atoms: C_31  and  C_32 
REMARK   16  A    between atoms: C_32  and  N_33 
ROOT
HETATM    1  C           1     -35.683  -0.966 -15.965  0.00  0.00     0.249 C 
HETATM    2  H           1     -33.723  -1.379 -15.442  0.00  0.00     0.163 HD
HETATM    3  N           1     -34.550  -1.733 -15.906  0.00  0.00    -0.345 N 
HETATM    4  O           1     -36.670  -1.387 -16.519  0.00  0.00    -0.271 OA
ENDROOT
BRANCH   1   5
HETATM    5  C           1     -35.698   0.406 -15.337  0.00  0.00     0.274 C 
BRANCH   5   6
HETATM    6  C           1     -36.243   0.310 -13.918  0.00  0.00     0.044 C 
BRANCH   6   7
HETATM    7  C           1     -35.089   0.130 -12.941  0.00  0.00     0.023 C 
BRANCH   7   8
HETATM    8  C           1     -35.425  -0.981 -11.955  0.00  0.00     0.138 C 
BRANCH   8   9
HETATM    9  N           1     -34.514  -2.117 -12.166  0.00  0.00    -0.227 N 
HETATM   10  C           1     -33.684  -2.437 -11.267  0.00  0.00     0.665 C 
HETATM   11  N           1     -33.635  -1.763 -10.156  0.00  0.00    -0.235 N 
HETATM   12  N           1     -32.900  -3.414 -11.448  0.00  0.00    -0.235 N 
HETATM   13  H           1     -32.949  -2.027  -9.414  0.00  0.00     0.174 HD
HETATM   14  H           1     -34.282  -0.956 -10.007  0.00  0.00     0.174 HD
HETATM   15  H           1     -32.210  -3.681 -10.702  0.00  0.00     0.174 HD
HETATM   16  H           1     -32.939  -3.960 -12.345  0.00  0.00     0.174 HD
HETATM   17  H           1     -34.553  -2.661 -13.063  0.00  0.00     0.177 HD
ENDBRANCH   8   9
ENDBRANCH   7   8
ENDBRANCH   6   7
ENDBRANCH   5   6
BRANCH   5  18
HETATM   18  N           1     -36.573   1.317 -16.146  0.00  0.00    -0.067 N 
HETATM   19  H           1     -36.046   2.189 -16.381  0.00  0.00     0.275 HD
HETATM   20  H           1     -37.425   1.563 -15.593  0.00  0.00     0.275 HD
HETATM   21  H           1     -36.858   0.835 -17.027  0.00  0.00     0.275 HD
ENDBRANCH   5  18
ENDBRANCH   1   5
BRANCH   3  22
HETATM   22  C           1     -34.535  -3.051 -16.510  0.00  0.00     0.187 C 
BRANCH  22  23
HETATM   23  C           1     -34.486  -4.099 -15.424  0.00  0.00     0.196 C 
HETATM   24  O           1     -33.830  -3.888 -14.382  0.00  0.00    -0.646 OA
HETATM   25  O           1     -35.102  -5.177 -15.568  0.00  0.00    -0.646 OA
ENDBRANCH  22  23
BRANCH  22  26
HETATM   26  C           1     -33.308  -3.186 -17.403  0.00  0.00     0.066 C 
BRANCH  26  27
HETATM   27  C           1     -32.419  -4.304 -16.878  0.00  0.00     0.273 C 
BRANCH  27  28
HETATM   28  N           1     -31.043  -3.885 -16.920  0.00  0.00     0.098 N 
HETATM   29  H           1     -30.825  -3.351 -16.079  0.00  0.00     0.317 HD
BRANCH  28  30
HETATM   30  C           1     -30.227  -5.068 -16.963  0.00  0.00     0.320 C 
BRANCH  30  31
HETATM   31  C           1     -29.077  -4.920 -15.997  0.00  0.00     0.207 C 
HETATM   32  O           1     -28.198  -4.054 -16.200  0.00  0.00    -0.646 OA
HETATM   33  O           1     -29.003  -5.662 -14.994  0.00  0.00    -0.646 OA
ENDBRANCH  30  31
BRANCH  30  34
HETATM   34  C           1     -29.686  -5.258 -18.373  0.00  0.00     0.057 C 
BRANCH  34  35
HETATM   35  C           1     -28.869  -6.541 -18.435  0.00  0.00     0.116 C 
BRANCH  35  36
HETATM   36  C           1     -29.758  -7.720 -18.124  0.00  0.00     0.172 C 
HETATM   37  O           1     -30.663  -8.049 -18.922  0.00  0.00    -0.648 OA
HETATM   38  O           1     -29.589  -8.369 -17.069  0.00  0.00    -0.648 OA
ENDBRANCH  35  36
ENDBRANCH  34  35
ENDBRANCH  30  34
ENDBRANCH  28  30
ENDBRANCH  27  28
ENDBRANCH  26  27
ENDBRANCH  22  26
ENDBRANCH   3  22
TORSDOF 16
ENDMDL
MODEL 6
REMARK VINA RESULT:      -6.7      4.521      7.973
REMARK  16 active torsions:
REMARK  status: ('A' for Active; 'I' for Inactive)
REMARK       I    between atoms: C_1  and  N_23 
REMARK    1  A    between atoms: C_1  and  C_21 
REMARK    2  A    between atoms: C_3  and  C_4 
REMARK    3  A    between atoms: C_4  and  C_5 
REMARK    4  A    between atoms: C_4  and  N_33 
REMARK    5  A    between atoms: C_5  and  C_6 
REMARK    6  A    between atoms: C_6  and  C_8 
REMARK    7  A    between atoms: C_13  and  C_30 
REMARK       I    between atoms: N_14  and  C_16 
REMARK       I    between atoms: N_15  and  C_16 
REMARK    8  A    between atoms: N_17  and  C_18 
REMARK    9  A    between atoms: C_18  and  C_19 
REMARK   10  A    between atoms: C_19  and  C_20 
REMARK   11  A    between atoms: C_20  and  C_21 
REMARK   12  A    between atoms: C_21  and  N_36 
REMARK   13  A    between atoms: N_23  and  C_30 
REMARK   14  A    between atoms: C_30  and  C_31 
REMARK   15  A    between atoms: C_31  and  C_32 
REMARK   16  A    between atoms: C_32  and  N_33 
ROOT
HETATM    1  C           1     -33.754  -3.712 -13.331  0.00  0.00     0.249 C 
HETATM    2  H           1     -32.464  -5.041 -14.256  0.00  0.00     0.163 HD
HETATM    3  N           1     -33.288  -4.465 -14.375  0.00  0.00    -0.345 N 
HETATM    4  O           1     -34.736  -3.024 -13.473  0.00  0.00    -0.271 OA
ENDROOT
BRANCH   1   5
HETATM    5  C           1     -33.040  -3.742 -12.002  0.00  0.00     0.274 C 
BRANCH   5   6
HETATM    6  C           1     -33.290  -5.081 -11.321  0.00  0.00     0.044 C 
BRANCH   6   7
HETATM    7  C           1     -34.735  -5.149 -10.846  0.00  0.00     0.023 C 
BRANCH   7   8
HETATM    8  C           1     -34.939  -6.411 -10.018  0.00  0.00     0.138 C 
BRANCH   8   9
HETATM    9  N           1     -34.256  -7.540 -10.667  0.00  0.00    -0.227 N 
HETATM   10  C           1     -34.010  -8.593 -10.010  0.00  0.00     0.665 C 
HETATM   11  N           1     -34.361  -8.677  -8.760  0.00  0.00    -0.235 N 
HETATM   12  N           1     -33.420  -9.564 -10.568  0.00  0.00    -0.235 N 
HETATM   13  H           1     -34.157  -9.547  -8.218  0.00  0.00     0.174 HD
HETATM   14  H           1     -34.847  -7.875  -8.300  0.00  0.00     0.174 HD
HETATM   15  H           1     -33.216 -10.439 -10.023  0.00  0.00     0.174 HD
HETATM   16  H           1     -33.137  -9.497 -11.577  0.00  0.00     0.174 HD
HETATM   17  H           1     -33.971  -7.471 -11.676  0.00  0.00     0.177 HD
ENDBRANCH   8   9
ENDBRANCH   7   8
ENDBRANCH   6   7
ENDBRANCH   5   6
BRANCH   5  18
HETATM   18  N           1     -33.558  -2.636 -11.131  0.00  0.00    -0.067 N 
HETATM   19  H           1     -34.448  -2.940 -10.674  0.00  0.00     0.275 HD
HETATM   20  H           1     -33.738  -1.789 -11.715  0.00  0.00     0.275 HD
HETATM   21  H           1     -32.851  -2.409 -10.398  0.00  0.00     0.275 HD
ENDBRANCH   5  18
ENDBRANCH   1   5
BRANCH   3  22
HETATM   22  C           1     -33.973  -4.436 -15.653  0.00  0.00     0.187 C 
BRANCH  22  23
HETATM   23  C           1     -34.719  -5.734 -15.851  0.00  0.00     0.196 C 
HETATM   24  O           1     -34.268  -6.600 -16.630  0.00  0.00    -0.646 OA
HETATM   25  O           1     -35.786  -5.941 -15.236  0.00  0.00    -0.646 OA
ENDBRANCH  22  23
BRANCH  22  26
HETATM   26  C           1     -32.954  -4.259 -16.771  0.00  0.00     0.066 C 
BRANCH  26  27
HETATM   27  C           1     -31.599  -4.778 -16.310  0.00  0.00     0.273 C 
BRANCH  27  28
HETATM   28  N           1     -31.312  -6.024 -16.969  0.00  0.00     0.098 N 
HETATM   29  H           1     -31.848  -6.082 -17.834  0.00  0.00     0.317 HD
BRANCH  28  30
HETATM   30  C           1     -29.906  -6.043 -17.273  0.00  0.00     0.320 C 
BRANCH  30  31
HETATM   31  C           1     -29.632  -7.099 -18.315  0.00  0.00     0.207 C 
HETATM   32  O           1     -28.567  -7.070 -18.969  0.00  0.00    -0.646 OA
HETATM   33  O           1     -30.470  -8.003 -18.525  0.00  0.00    -0.646 OA
ENDBRANCH  30  31
BRANCH  30  34
HETATM   34  C           1     -29.120  -6.361 -16.008  0.00  0.00     0.057 C 
BRANCH  34  35
HETATM   35  C           1     -27.859  -5.508 -15.965  0.00  0.00     0.116 C 
BRANCH  35  36
HETATM   36  C           1     -26.648  -6.387 -16.160  0.00  0.00     0.172 C 
HETATM   37  O           1     -26.442  -7.347 -15.387  0.00  0.00    -0.648 OA
HETATM   38  O           1     -25.852  -6.154 -17.094  0.00  0.00    -0.648 OA
ENDBRANCH  35  36
ENDBRANCH  34  35
ENDBRANCH  30  34
ENDBRANCH  28  30
ENDBRANCH  27  28
ENDBRANCH  26  27
ENDBRANCH  22  26
ENDBRANCH   3  22
TORSDOF 16
ENDMDL
MODEL 7
REMARK VINA RESULT:      -6.6     14.640     17.523
REMARK  16 active torsions:
REMARK  status: ('A' for Active; 'I' for Inactive)
REMARK       I    between atoms: C_1  and  N_23 
REMARK    1  A    between atoms: C_1  and  C_21 
REMARK    2  A    between atoms: C_3  and  C_4 
REMARK    3  A    between atoms: C_4  and  C_5 
REMARK    4  A    between atoms: C_4  and  N_33 
REMARK    5  A    between atoms: C_5  and  C_6 
REMARK    6  A    between atoms: C_6  and  C_8 
REMARK    7  A    between atoms: C_13  and  C_30 
REMARK       I    between atoms: N_14  and  C_16 
REMARK       I    between atoms: N_15  and  C_16 
REMARK    8  A    between atoms: N_17  and  C_18 
REMARK    9  A    between atoms: C_18  and  C_19 
REMARK   10  A    between atoms: C_19  and  C_20 
REMARK   11  A    between atoms: C_20  and  C_21 
REMARK   12  A    between atoms: C_21  and  N_36 
REMARK   13  A    between atoms: N_23  and  C_30 
REMARK   14  A    between atoms: C_30  and  C_31 
REMARK   15  A    between atoms: C_31  and  C_32 
REMARK   16  A    between atoms: C_32  and  N_33 
ROOT
HETATM    1  C           1     -20.668  -8.070  -5.413  0.00  0.00     0.249 C 
HETATM    2  H           1     -22.036  -9.282  -6.387  0.00  0.00     0.163 HD
HETATM    3  N           1     -21.226  -9.266  -5.779  0.00  0.00    -0.345 N 
HETATM    4  O           1     -19.703  -8.051  -4.688  0.00  0.00    -0.271 OA
ENDROOT
BRANCH   1   5
HETATM    5  C           1     -21.260  -6.776  -5.916  0.00  0.00     0.274 C 
BRANCH   5   6
HETATM    6  C           1     -20.146  -5.766  -6.153  0.00  0.00     0.044 C 
BRANCH   6   7
HETATM    7  C           1     -20.753  -4.402  -6.455  0.00  0.00     0.023 C 
BRANCH   7   8
HETATM    8  C           1     -21.279  -4.385  -7.884  0.00  0.00     0.138 C 
BRANCH   8   9
HETATM    9  N           1     -22.692  -3.977  -7.882  0.00  0.00    -0.227 N 
HETATM   10  C           1     -23.283  -3.738  -8.975  0.00  0.00     0.665 C 
HETATM   11  N           1     -22.641  -3.852 -10.101  0.00  0.00    -0.235 N 
HETATM   12  N           1     -24.499  -3.386  -8.974  0.00  0.00    -0.235 N 
HETATM   13  H           1     -23.130  -3.654 -11.003  0.00  0.00     0.174 HD
HETATM   14  H           1     -21.638  -4.142 -10.102  0.00  0.00     0.174 HD
HETATM   15  H           1     -24.990  -3.187  -9.881  0.00  0.00     0.174 HD
HETATM   16  H           1     -25.018  -3.294  -8.065  0.00  0.00     0.174 HD
HETATM   17  H           1     -23.210  -3.884  -6.974  0.00  0.00     0.177 HD
ENDBRANCH   8   9
ENDBRANCH   7   8
ENDBRANCH   6   7
ENDBRANCH   5   6
BRANCH   5  18
HETATM   18  N           1     -22.217  -6.234  -4.895  0.00  0.00    -0.067 N 
HETATM   19  H           1     -22.319  -6.921  -4.114  0.00  0.00     0.275 HD
HETATM   20  H           1     -23.148  -6.073  -5.342  0.00  0.00     0.275 HD
HETATM   21  H           1     -21.851  -5.331  -4.520  0.00  0.00     0.275 HD
ENDBRANCH   5  18
ENDBRANCH   1   5
BRANCH   3  22
HETATM   22  C           1     -20.658 -10.509  -5.296  0.00  0.00     0.187 C 
BRANCH  22  23
HETATM   23  C           1     -20.264 -11.371  -6.471  0.00  0.00     0.196 C 
HETATM   24  O           1     -19.133 -11.246  -6.986  0.00  0.00    -0.646 OA
HETATM   25  O           1     -21.070 -12.209  -6.929  0.00  0.00    -0.646 OA
ENDBRANCH  22  23
BRANCH  22  26
HETATM   26  C           1     -21.690 -11.244  -4.450  0.00  0.00     0.066 C 
BRANCH  26  27
HETATM   27  C           1     -21.240 -11.254  -2.996  0.00  0.00     0.273 C 
BRANCH  27  28
HETATM   28  N           1     -21.833 -10.143  -2.301  0.00  0.00     0.098 N 
HETATM   29  H           1     -22.848 -10.192  -2.383  0.00  0.00     0.317 HD
BRANCH  28  30
HETATM   30  C           1     -21.458 -10.244  -0.916  0.00  0.00     0.320 C 
BRANCH  30  31
HETATM   31  C           1     -22.608 -10.818  -0.126  0.00  0.00     0.207 C 
HETATM   32  O           1     -23.726 -10.261  -0.154  0.00  0.00    -0.646 OA
HETATM   33  O           1     -22.442 -11.852   0.558  0.00  0.00    -0.646 OA
ENDBRANCH  30  31
BRANCH  30  34
HETATM   34  C           1     -21.116  -8.859  -0.382  0.00  0.00     0.057 C 
BRANCH  34  35
HETATM   35  C           1     -21.125  -7.856  -1.528  0.00  0.00     0.116 C 
BRANCH  35  36
HETATM   36  C           1     -22.206  -6.829  -1.291  0.00  0.00     0.172 C 
HETATM   37  O           1     -22.273  -5.813  -2.016  0.00  0.00    -0.648 OA
HETATM   38  O           1     -23.033  -6.995  -0.369  0.00  0.00    -0.648 OA
ENDBRANCH  35  36
ENDBRANCH  34  35
ENDBRANCH  30  34
ENDBRANCH  28  30
ENDBRANCH  27  28
ENDBRANCH  26  27
ENDBRANCH  22  26
ENDBRANCH   3  22
TORSDOF 16
ENDMDL
MODEL 8
REMARK VINA RESULT:      -6.6     15.511     18.417
REMARK  16 active torsions:
REMARK  status: ('A' for Active; 'I' for Inactive)
REMARK       I    between atoms: C_1  and  N_23 
REMARK    1  A    between atoms: C_1  and  C_21 
REMARK    2  A    between atoms: C_3  and  C_4 
REMARK    3  A    between atoms: C_4  and  C_5 
REMARK    4  A    between atoms: C_4  and  N_33 
REMARK    5  A    between atoms: C_5  and  C_6 
REMARK    6  A    between atoms: C_6  and  C_8 
REMARK    7  A    between atoms: C_13  and  C_30 
REMARK       I    between atoms: N_14  and  C_16 
REMARK       I    between atoms: N_15  and  C_16 
REMARK    8  A    between atoms: N_17  and  C_18 
REMARK    9  A    between atoms: C_18  and  C_19 
REMARK   10  A    between atoms: C_19  and  C_20 
REMARK   11  A    between atoms: C_20  and  C_21 
REMARK   12  A    between atoms: C_21  and  N_36 
REMARK   13  A    between atoms: N_23  and  C_30 
REMARK   14  A    between atoms: C_30  and  C_31 
REMARK   15  A    between atoms: C_31  and  C_32 
REMARK   16  A    between atoms: C_32  and  N_33 
ROOT
HETATM    1  C           1     -21.152  -6.835  -5.025  0.00  0.00     0.249 C 
HETATM    2  H           1     -20.369  -5.848  -3.382  0.00  0.00     0.163 HD
HETATM    3  N           1     -20.870  -6.669  -3.695  0.00  0.00    -0.345 N 
HETATM    4  O           1     -21.749  -7.815  -5.399  0.00  0.00    -0.271 OA
ENDROOT
BRANCH   1   5
HETATM    5  C           1     -20.714  -5.792  -6.024  0.00  0.00     0.274 C 
BRANCH   5   6
HETATM    6  C           1     -21.940  -5.117  -6.624  0.00  0.00     0.044 C 
BRANCH   6   7
HETATM    7  C           1     -21.515  -3.857  -7.366  0.00  0.00     0.023 C 
BRANCH   7   8
HETATM    8  C           1     -22.089  -3.880  -8.777  0.00  0.00     0.138 C 
BRANCH   8   9
HETATM    9  N           1     -23.523  -3.558  -8.728  0.00  0.00    -0.227 N 
HETATM   10  C           1     -24.281  -3.901  -9.681  0.00  0.00     0.665 C 
HETATM   11  N           1     -23.792  -4.538 -10.705  0.00  0.00    -0.235 N 
HETATM   12  N           1     -25.515  -3.623  -9.641  0.00  0.00    -0.235 N 
HETATM   13  H           1     -24.419  -4.821 -11.491  0.00  0.00     0.174 HD
HETATM   14  H           1     -22.774  -4.767 -10.738  0.00  0.00     0.174 HD
HETATM   15  H           1     -26.145  -3.908 -10.432  0.00  0.00     0.174 HD
HETATM   16  H           1     -25.911  -3.109  -8.814  0.00  0.00     0.174 HD
HETATM   17  H           1     -23.918  -3.043  -7.903  0.00  0.00     0.177 HD
ENDBRANCH   8   9
ENDBRANCH   7   8
ENDBRANCH   6   7
ENDBRANCH   5   6
BRANCH   5  18
HETATM   18  N           1     -19.920  -6.447  -7.115  0.00  0.00    -0.067 N 
HETATM   19  H           1     -19.726  -5.750  -7.870  0.00  0.00     0.275 HD
HETATM   20  H           1     -20.466  -7.245  -7.511  0.00  0.00     0.275 HD
HETATM   21  H           1     -19.018  -6.800  -6.727  0.00  0.00     0.275 HD
ENDBRANCH   5  18
ENDBRANCH   1   5
BRANCH   3  22
HETATM   22  C           1     -21.290  -7.672  -2.735  0.00  0.00     0.187 C 
BRANCH  22  23
HETATM   23  C           1     -21.998  -6.998  -1.584  0.00  0.00     0.196 C 
HETATM   24  O           1     -22.507  -5.868  -1.740  0.00  0.00    -0.646 OA
HETATM   25  O           1     -22.077  -7.572  -0.477  0.00  0.00    -0.646 OA
ENDBRANCH  22  23
BRANCH  22  26
HETATM   26  C           1     -20.068  -8.418  -2.214  0.00  0.00     0.066 C 
BRANCH  26  27
HETATM   27  C           1     -19.980  -9.780  -2.888  0.00  0.00     0.273 C 
BRANCH  27  28
HETATM   28  N           1     -18.615 -10.234  -2.877  0.00  0.00     0.098 N 
HETATM   29  H           1     -18.579 -11.210  -3.171  0.00  0.00     0.317 HD
BRANCH  28  30
HETATM   30  C           1     -17.879  -9.424  -3.809  0.00  0.00     0.320 C 
BRANCH  30  31
HETATM   31  C           1     -18.181  -9.877  -5.216  0.00  0.00     0.207 C 
HETATM   32  O           1     -17.962 -11.061  -5.552  0.00  0.00    -0.646 OA
HETATM   33  O           1     -18.651  -9.068  -6.046  0.00  0.00    -0.646 OA
ENDBRANCH  30  31
BRANCH  30  34
HETATM   34  C           1     -16.387  -9.570  -3.538  0.00  0.00     0.057 C 
BRANCH  34  35
HETATM   35  C           1     -16.175 -10.515  -2.363  0.00  0.00     0.116 C 
BRANCH  35  36
HETATM   36  C           1     -15.776 -11.877  -2.876  0.00  0.00     0.172 C 
HETATM   37  O           1     -14.580 -12.116  -3.151  0.00  0.00    -0.648 OA
HETATM   38  O           1     -16.641 -12.766  -3.025  0.00  0.00    -0.648 OA
ENDBRANCH  35  36
ENDBRANCH  34  35
ENDBRANCH  30  34
ENDBRANCH  28  30
ENDBRANCH  27  28
ENDBRANCH  26  27
ENDBRANCH  22  26
ENDBRANCH   3  22
TORSDOF 16
ENDMDL
MODEL 9
REMARK VINA RESULT:      -6.6      2.837      6.140
REMARK  16 active torsions:
REMARK  status: ('A' for Active; 'I' for Inactive)
REMARK       I    between atoms: C_1  and  N_23 
REMARK    1  A    between atoms: C_1  and  C_21 
REMARK    2  A    between atoms: C_3  and  C_4 
REMARK    3  A    between atoms: C_4  and  C_5 
REMARK    4  A    between atoms: C_4  and  N_33 
REMARK    5  A    between atoms: C_5  and  C_6 
REMARK    6  A    between atoms: C_6  and  C_8 
REMARK    7  A    between atoms: C_13  and  C_30 
REMARK       I    between atoms: N_14  and  C_16 
REMARK       I    between atoms: N_15  and  C_16 
REMARK    8  A    between atoms: N_17  and  C_18 
REMARK    9  A    between atoms: C_18  and  C_19 
REMARK   10  A    between atoms: C_19  and  C_20 
REMARK   11  A    between atoms: C_20  and  C_21 
REMARK   12  A    between atoms: C_21  and  N_36 
REMARK   13  A    between atoms: N_23  and  C_30 
REMARK   14  A    between atoms: C_30  and  C_31 
REMARK   15  A    between atoms: C_31  and  C_32 
REMARK   16  A    between atoms: C_32  and  N_33 
ROOT
HETATM    1  C           1     -35.147   0.093 -13.647  0.00  0.00     0.249 C 
HETATM    2  H           1     -35.535  -1.828 -14.317  0.00  0.00     0.163 HD
HETATM    3  N           1     -35.510  -0.848 -14.573  0.00  0.00    -0.345 N 
HETATM    4  O           1     -35.117   1.260 -13.952  0.00  0.00    -0.271 OA
ENDROOT
BRANCH   1   5
HETATM    5  C           1     -34.785  -0.331 -12.244  0.00  0.00     0.274 C 
BRANCH   5   6
HETATM    6  C           1     -34.743  -1.851 -12.167  0.00  0.00     0.044 C 
BRANCH   6   7
HETATM    7  C           1     -33.608  -2.282 -11.248  0.00  0.00     0.023 C 
BRANCH   7   8
HETATM    8  C           1     -34.000  -3.564 -10.524  0.00  0.00     0.138 C 
BRANCH   8   9
HETATM    9  N           1     -34.804  -4.408 -11.420  0.00  0.00    -0.227 N 
HETATM   10  C           1     -34.394  -5.561 -11.740  0.00  0.00     0.665 C 
HETATM   11  N           1     -33.260  -6.000 -11.277  0.00  0.00    -0.235 N 
HETATM   12  N           1     -35.085  -6.288 -12.512  0.00  0.00    -0.235 N 
HETATM   13  H           1     -32.922  -6.953 -11.542  0.00  0.00     0.174 HD
HETATM   14  H           1     -32.689  -5.401 -10.640  0.00  0.00     0.174 HD
HETATM   15  H           1     -34.745  -7.245 -12.778  0.00  0.00     0.174 HD
HETATM   16  H           1     -36.001  -5.934 -12.886  0.00  0.00     0.174 HD
HETATM   17  H           1     -35.719  -4.053 -11.794  0.00  0.00     0.177 HD
ENDBRANCH   8   9
ENDBRANCH   7   8
ENDBRANCH   6   7
ENDBRANCH   5   6
BRANCH   5  18
HETATM   18  N           1     -35.813   0.189 -11.284  0.00  0.00    -0.067 N 
HETATM   19  H           1     -36.136  -0.589 -10.665  0.00  0.00     0.275 HD
HETATM   20  H           1     -36.627   0.569 -11.818  0.00  0.00     0.275 HD
HETATM   21  H           1     -35.395   0.948 -10.701  0.00  0.00     0.275 HD
ENDBRANCH   5  18
ENDBRANCH   1   5
BRANCH   3  22
HETATM   22  C           1     -35.858  -0.443 -15.921  0.00  0.00     0.187 C 
BRANCH  22  23
HETATM   23  C           1     -37.357  -0.297 -16.030  0.00  0.00     0.196 C 
HETATM   24  O           1     -37.879   0.837 -15.994  0.00  0.00    -0.646 OA
HETATM   25  O           1     -38.075  -1.312 -16.158  0.00  0.00    -0.646 OA
ENDBRANCH  22  23
BRANCH  22  26
HETATM   26  C           1     -35.376  -1.497 -16.909  0.00  0.00     0.066 C 
BRANCH  26  27
HETATM   27  C           1     -34.325  -2.374 -16.242  0.00  0.00     0.273 C 
BRANCH  27  28
HETATM   28  N           1     -33.679  -3.190 -17.235  0.00  0.00     0.098 N 
HETATM   29  H           1     -32.804  -2.751 -17.519  0.00  0.00     0.317 HD
BRANCH  28  30
HETATM   30  C           1     -33.403  -4.468 -16.637  0.00  0.00     0.320 C 
BRANCH  30  31
HETATM   31  C           1     -34.386  -4.723 -15.520  0.00  0.00     0.207 C 
HETATM   32  O           1     -34.341  -4.033 -14.479  0.00  0.00    -0.646 OA
HETATM   33  O           1     -35.245  -5.624 -15.637  0.00  0.00    -0.646 OA
ENDBRANCH  30  31
BRANCH  30  34
HETATM   34  C           1     -31.987  -4.470 -16.077  0.00  0.00     0.057 C 
BRANCH  34  35
HETATM   35  C           1     -31.056  -5.178 -17.053  0.00  0.00     0.116 C 
BRANCH  35  36
HETATM   36  C           1     -30.255  -4.154 -17.819  0.00  0.00     0.172 C 
HETATM   37  O           1     -29.492  -4.517 -18.740  0.00  0.00    -0.648 OA
HETATM   38  O           1     -30.353  -2.941 -17.531  0.00  0.00    -0.648 OA
ENDBRANCH  35  36
ENDBRANCH  34  35
ENDBRANCH  30  34
ENDBRANCH  28  30
ENDBRANCH  27  28
ENDBRANCH  26  27
ENDBRANCH  22  26
ENDBRANCH   3  22
TORSDOF 16
ENDMDL
