MODEL 1
REMARK VINA RESULT:      -6.4      0.000      0.000
REMARK  11 active torsions:
REMARK  status: ('A' for Active; 'I' for Inactive)
REMARK    1  A    between atoms: C_3  and  C_4 
REMARK    2  A    between atoms: C_3  and  C_21 
REMARK    3  A    between atoms: C_4  and  C_5 
REMARK    4  A    between atoms: C_4  and  N_14 
REMARK       I    between atoms: C_5  and  N_6 
REMARK    5  A    between atoms: N_6  and  C_22 
REMARK    6  A    between atoms: S_8  and  C_21 
REMARK    7  A    between atoms: C_9  and  C_22 
REMARK    8  A    between atoms: C_9  and  O_19 
REMARK    9  A    between atoms: C_15  and  C_22 
REMARK   10  A    between atoms: P_18  and  O_19 
REMARK   11  A    between atoms: P_18  and  O_23 
ROOT
HETATM    1  C           1     -34.568  -2.248 -12.150  0.00  0.00     0.249 C 
HETATM    2  N           1     -35.697  -1.685 -12.680  0.00  0.00    -0.343 N 
HETATM    3  H           1     -36.287  -2.222 -13.303  0.00  0.00     0.163 HD
HETATM    4  O           1     -33.864  -1.607 -11.407  0.00  0.00    -0.271 OA
ENDROOT
BRANCH   2   5
HETATM    5  C           1     -36.048  -0.317 -12.349  0.00  0.00     0.210 C 
BRANCH   5   6
HETATM    6  C           1     -36.892   0.276 -13.470  0.00  0.00     0.217 C 
BRANCH   6   7
HETATM    7  O           1     -37.059  -0.679 -14.484  0.00  0.00    -0.287 OA
BRANCH   7   8
HETATM    8  P           1     -36.253  -0.401 -15.856  0.00  0.00     0.406 P 
HETATM    9  O           1     -35.994   1.051 -15.991  0.00  0.00    -0.624 OA
HETATM   10  O           1     -37.060  -0.866 -17.006  0.00  0.00    -0.624 OA
BRANCH   8  11
HETATM   11  O           1     -34.848  -1.197 -15.826  0.00  0.00    -0.300 OA
HETATM   12  H           1     -34.634  -1.350 -16.730  0.00  0.00     0.223 HD
ENDBRANCH   8  11
ENDBRANCH   7   8
ENDBRANCH   6   7
ENDBRANCH   5   6
BRANCH   5  13
HETATM   13  C           1     -36.836  -0.299 -11.062  0.00  0.00     0.198 C 
HETATM   14  O           1     -36.444   0.396 -10.100  0.00  0.00    -0.646 OA
HETATM   15  O           1     -37.880  -0.979 -10.958  0.00  0.00    -0.646 OA
ENDBRANCH   5  13
ENDBRANCH   2   5
BRANCH   1  16
HETATM   16  C           1     -34.201  -3.671 -12.495  0.00  0.00     0.275 C 
BRANCH  16  17
HETATM   17  C           1     -32.972  -4.086 -11.698  0.00  0.00     0.053 C 
BRANCH  17  18
HETATM   18  C           1     -33.127  -5.530 -11.238  0.00  0.00     0.076 C 
BRANCH  18  19
HETATM   19  S           1     -34.748  -5.743 -10.449  0.00  0.00    -0.173 SA
HETATM   20  C           1     -34.619  -7.538 -10.210  0.00  0.00     0.089 C 
ENDBRANCH  18  19
ENDBRANCH  17  18
ENDBRANCH  16  17
BRANCH  16  21
HETATM   21  N           1     -33.903  -3.769 -13.962  0.00  0.00    -0.066 N 
HETATM   22  H           1     -34.739  -4.149 -14.462  0.00  0.00     0.275 HD
HETATM   23  H           1     -33.089  -4.407 -14.111  0.00  0.00     0.275 HD
HETATM   24  H           1     -33.675  -2.819 -14.334  0.00  0.00     0.275 HD
ENDBRANCH  16  21
ENDBRANCH   1  16
TORSDOF 11
ENDMDL
MODEL 2
REMARK VINA RESULT:      -6.3     11.319     12.902
REMARK  11 active torsions:
REMARK  status: ('A' for Active; 'I' for Inactive)
REMARK    1  A    between atoms: C_3  and  C_4 
REMARK    2  A    between atoms: C_3  and  C_21 
REMARK    3  A    between atoms: C_4  and  C_5 
REMARK    4  A    between atoms: C_4  and  N_14 
REMARK       I    between atoms: C_5  and  N_6 
REMARK    5  A    between atoms: N_6  and  C_22 
REMARK    6  A    between atoms: S_8  and  C_21 
REMARK    7  A    between atoms: C_9  and  C_22 
REMARK    8  A    between atoms: C_9  and  O_19 
REMARK    9  A    between atoms: C_15  and  C_22 
REMARK   10  A    between atoms: P_18  and  O_19 
REMARK   11  A    between atoms: P_18  and  O_23 
ROOT
HETATM    1  C           1     -25.335  -6.898 -19.491  0.00  0.00     0.249 C 
HETATM    2  N           1     -26.517  -6.836 -18.803  0.00  0.00    -0.343 N 
HETATM    3  H           1     -27.285  -7.442 -19.060  0.00  0.00     0.163 HD
HETATM    4  O           1     -24.419  -6.174 -19.184  0.00  0.00    -0.271 OA
ENDROOT
BRANCH   2   5
HETATM    5  C           1     -26.668  -5.899 -17.706  0.00  0.00     0.210 C 
BRANCH   5   6
HETATM    6  C           1     -28.148  -5.626 -17.471  0.00  0.00     0.217 C 
BRANCH   6   7
HETATM    7  O           1     -28.905  -6.286 -18.450  0.00  0.00    -0.287 OA
BRANCH   7   8
HETATM    8  P           1     -29.923  -7.419 -17.911  0.00  0.00     0.406 P 
HETATM    9  O           1     -30.379  -8.254 -19.045  0.00  0.00    -0.624 OA
HETATM   10  O           1     -31.092  -6.770 -17.275  0.00  0.00    -0.624 OA
BRANCH   8  11
HETATM   11  O           1     -29.168  -8.350 -16.828  0.00  0.00    -0.300 OA
HETATM   12  H           1     -29.717  -8.330 -16.064  0.00  0.00     0.223 HD
ENDBRANCH   8  11
ENDBRANCH   7   8
ENDBRANCH   6   7
ENDBRANCH   5   6
BRANCH   5  13
HETATM   13  C           1     -26.060  -6.488 -16.456  0.00  0.00     0.198 C 
HETATM   14  O           1     -26.603  -7.466 -15.899  0.00  0.00    -0.646 OA
HETATM   15  O           1     -25.013  -5.999 -15.979  0.00  0.00    -0.646 OA
ENDBRANCH   5  13
ENDBRANCH   2   5
BRANCH   1  16
HETATM   16  C           1     -25.178  -7.872 -20.633  0.00  0.00     0.275 C 
BRANCH  16  17
HETATM   17  C           1     -24.506  -7.174 -21.808  0.00  0.00     0.053 C 
BRANCH  17  18
HETATM   18  C           1     -23.619  -8.165 -22.549  0.00  0.00     0.076 C 
BRANCH  18  19
HETATM   19  S           1     -22.240  -8.663 -21.479  0.00  0.00    -0.173 SA
HETATM   20  C           1     -21.259  -9.466 -22.779  0.00  0.00     0.089 C 
ENDBRANCH  18  19
ENDBRANCH  17  18
ENDBRANCH  16  17
BRANCH  16  21
HETATM   21  N           1     -26.528  -8.371 -21.054  0.00  0.00    -0.066 N 
HETATM   22  H           1     -26.416  -9.238 -21.627  0.00  0.00     0.275 HD
HETATM   23  H           1     -27.009  -7.638 -21.623  0.00  0.00     0.275 HD
HETATM   24  H           1     -27.100  -8.585 -20.205  0.00  0.00     0.275 HD
ENDBRANCH  16  21
ENDBRANCH   1  16
TORSDOF 11
ENDMDL
MODEL 3
REMARK VINA RESULT:      -6.1      8.982     10.656
REMARK  11 active torsions:
REMARK  status: ('A' for Active; 'I' for Inactive)
REMARK    1  A    between atoms: C_3  and  C_4 
REMARK    2  A    between atoms: C_3  and  C_21 
REMARK    3  A    between atoms: C_4  and  C_5 
REMARK    4  A    between atoms: C_4  and  N_14 
REMARK       I    between atoms: C_5  and  N_6 
REMARK    5  A    between atoms: N_6  and  C_22 
REMARK    6  A    between atoms: S_8  and  C_21 
REMARK    7  A    between atoms: C_9  and  C_22 
REMARK    8  A    between atoms: C_9  and  O_19 
REMARK    9  A    between atoms: C_15  and  C_22 
REMARK   10  A    between atoms: P_18  and  O_19 
REMARK   11  A    between atoms: P_18  and  O_23 
ROOT
HETATM    1  C           1     -26.514  -6.943 -16.458  0.00  0.00     0.249 C 
HETATM    2  N           1     -27.703  -6.647 -17.068  0.00  0.00    -0.343 N 
HETATM    3  H           1     -27.709  -6.239 -17.995  0.00  0.00     0.163 HD
HETATM    4  O           1     -26.507  -7.429 -15.352  0.00  0.00    -0.271 OA
ENDROOT
BRANCH   2   5
HETATM    5  C           1     -28.954  -6.916 -16.386  0.00  0.00     0.210 C 
BRANCH   5   6
HETATM    6  C           1     -29.478  -5.630 -15.761  0.00  0.00     0.217 C 
BRANCH   6   7
HETATM    7  O           1     -28.843  -4.530 -16.354  0.00  0.00    -0.287 OA
BRANCH   7   8
HETATM    8  P           1     -29.706  -3.726 -17.458  0.00  0.00     0.406 P 
HETATM    9  O           1     -31.143  -3.794 -17.107  0.00  0.00    -0.624 OA
HETATM   10  O           1     -29.495  -4.337 -18.790  0.00  0.00    -0.624 OA
BRANCH   8  11
HETATM   11  O           1     -29.233  -2.182 -17.491  0.00  0.00    -0.300 OA
HETATM   12  H           1     -30.016  -1.684 -17.331  0.00  0.00     0.223 HD
ENDBRANCH   8  11
ENDBRANCH   7   8
ENDBRANCH   6   7
ENDBRANCH   5   6
BRANCH   5  13
HETATM   13  C           1     -29.962  -7.442 -17.378  0.00  0.00     0.198 C 
HETATM   14  O           1     -29.602  -8.235 -18.274  0.00  0.00    -0.646 OA
HETATM   15  O           1     -31.158  -7.085 -17.304  0.00  0.00    -0.646 OA
ENDBRANCH   5  13
ENDBRANCH   2   5
BRANCH   1  16
HETATM   16  C           1     -25.211  -6.662 -17.166  0.00  0.00     0.275 C 
BRANCH  16  17
HETATM   17  C           1     -25.433  -6.698 -18.672  0.00  0.00     0.053 C 
BRANCH  17  18
HETATM   18  C           1     -24.194  -7.260 -19.356  0.00  0.00     0.076 C 
BRANCH  18  19
HETATM   19  S           1     -24.629  -7.835 -21.022  0.00  0.00    -0.173 SA
HETATM   20  C           1     -26.428  -7.742 -20.802  0.00  0.00     0.089 C 
ENDBRANCH  18  19
ENDBRANCH  17  18
ENDBRANCH  16  17
BRANCH  16  21
HETATM   21  N           1     -24.201  -7.704 -16.785  0.00  0.00    -0.066 N 
HETATM   22  H           1     -24.493  -8.630 -17.171  0.00  0.00     0.275 HD
HETATM   23  H           1     -24.138  -7.764 -15.744  0.00  0.00     0.275 HD
HETATM   24  H           1     -23.267  -7.443 -17.177  0.00  0.00     0.275 HD
ENDBRANCH  16  21
ENDBRANCH   1  16
TORSDOF 11
ENDMDL
MODEL 4
REMARK VINA RESULT:      -5.7     13.595     15.588
REMARK  11 active torsions:
REMARK  status: ('A' for Active; 'I' for Inactive)
REMARK    1  A    between atoms: C_3  and  C_4 
REMARK    2  A    between atoms: C_3  and  C_21 
REMARK    3  A    between atoms: C_4  and  C_5 
REMARK    4  A    between atoms: C_4  and  N_14 
REMARK       I    between atoms: C_5  and  N_6 
REMARK    5  A    between atoms: N_6  and  C_22 
REMARK    6  A    between atoms: S_8  and  C_21 
REMARK    7  A    between atoms: C_9  and  C_22 
REMARK    8  A    between atoms: C_9  and  O_19 
REMARK    9  A    between atoms: C_15  and  C_22 
REMARK   10  A    between atoms: P_18  and  O_19 
REMARK   11  A    between atoms: P_18  and  O_23 
ROOT
HETATM    1  C           1     -21.182  -6.229  -6.024  0.00  0.00     0.249 C 
HETATM    2  N           1     -21.322  -4.972  -6.549  0.00  0.00    -0.343 N 
HETATM    3  H           1     -21.277  -4.162  -5.943  0.00  0.00     0.163 HD
HETATM    4  O           1     -21.236  -7.195  -6.746  0.00  0.00    -0.271 OA
ENDROOT
BRANCH   2   5
HETATM    5  C           1     -21.537  -4.802  -7.973  0.00  0.00     0.210 C 
BRANCH   5   6
HETATM    6  C           1     -22.492  -3.639  -8.207  0.00  0.00     0.217 C 
BRANCH   6   7
HETATM    7  O           1     -23.679  -4.117  -8.780  0.00  0.00    -0.287 OA
BRANCH   7   8
HETATM    8  P           1     -23.799  -3.967 -10.384  0.00  0.00     0.406 P 
HETATM    9  O           1     -25.050  -3.250 -10.721  0.00  0.00    -0.624 OA
HETATM   10  O           1     -23.818  -5.310 -11.005  0.00  0.00    -0.624 OA
BRANCH   8  11
HETATM   11  O           1     -22.534  -3.132 -10.943  0.00  0.00    -0.300 OA
HETATM   12  H           1     -21.778  -3.610 -10.649  0.00  0.00     0.223 HD
ENDBRANCH   8  11
ENDBRANCH   7   8
ENDBRANCH   6   7
ENDBRANCH   5   6
BRANCH   5  13
HETATM   13  C           1     -20.218  -4.515  -8.648  0.00  0.00     0.198 C 
HETATM   14  O           1     -19.251  -4.096  -7.976  0.00  0.00    -0.646 OA
HETATM   15  O           1     -20.093  -4.697  -9.879  0.00  0.00    -0.646 OA
ENDBRANCH   5  13
ENDBRANCH   2   5
BRANCH   1  16
HETATM   16  C           1     -20.959  -6.407  -4.542  0.00  0.00     0.275 C 
BRANCH  16  17
HETATM   17  C           1     -20.486  -7.827  -4.266  0.00  0.00     0.053 C 
BRANCH  17  18
HETATM   18  C           1     -21.414  -8.486  -3.255  0.00  0.00     0.076 C 
BRANCH  18  19
HETATM   19  S           1     -20.561  -8.643  -1.661  0.00  0.00    -0.173 SA
HETATM   20  C           1     -21.864  -9.596  -0.830  0.00  0.00     0.089 C 
ENDBRANCH  18  19
ENDBRANCH  17  18
ENDBRANCH  16  17
BRANCH  16  21
HETATM   21  N           1     -22.245  -6.157  -3.810  0.00  0.00    -0.066 N 
HETATM   22  H           1     -22.415  -5.128  -3.746  0.00  0.00     0.275 HD
HETATM   23  H           1     -22.183  -6.560  -2.848  0.00  0.00     0.275 HD
HETATM   24  H           1     -23.033  -6.609  -4.327  0.00  0.00     0.275 HD
ENDBRANCH  16  21
ENDBRANCH   1  16
TORSDOF 11
ENDMDL
MODEL 5
REMARK VINA RESULT:      -5.4      2.716      4.182
REMARK  11 active torsions:
REMARK  status: ('A' for Active; 'I' for Inactive)
REMARK    1  A    between atoms: C_3  and  C_4 
REMARK    2  A    between atoms: C_3  and  C_21 
REMARK    3  A    between atoms: C_4  and  C_5 
REMARK    4  A    between atoms: C_4  and  N_14 
REMARK       I    between atoms: C_5  and  N_6 
REMARK    5  A    between atoms: N_6  and  C_22 
REMARK    6  A    between atoms: S_8  and  C_21 
REMARK    7  A    between atoms: C_9  and  C_22 
REMARK    8  A    between atoms: C_9  and  O_19 
REMARK    9  A    between atoms: C_15  and  C_22 
REMARK   10  A    between atoms: P_18  and  O_19 
REMARK   11  A    between atoms: P_18  and  O_23 
ROOT
HETATM    1  C           1     -34.986  -0.012 -13.540  0.00  0.00     0.249 C 
HETATM    2  N           1     -35.398  -0.964 -14.432  0.00  0.00    -0.343 N 
HETATM    3  H           1     -35.637  -1.893 -14.107  0.00  0.00     0.163 HD
HETATM    4  O           1     -34.702   1.096 -13.927  0.00  0.00    -0.271 OA
ENDROOT
BRANCH   2   5
HETATM    5  C           1     -35.493  -0.643 -15.843  0.00  0.00     0.210 C 
BRANCH   5   6
HETATM    6  C           1     -35.020  -1.833 -16.667  0.00  0.00     0.217 C 
BRANCH   6   7
HETATM    7  O           1     -35.255  -3.018 -15.955  0.00  0.00    -0.287 OA
BRANCH   7   8
HETATM    8  P           1     -33.989  -4.008 -15.793  0.00  0.00     0.406 P 
HETATM    9  O           1     -33.474  -3.928 -14.407  0.00  0.00    -0.624 OA
HETATM   10  O           1     -32.924  -3.605 -16.738  0.00  0.00    -0.624 OA
BRANCH   8  11
HETATM   11  O           1     -34.447  -5.524 -16.110  0.00  0.00    -0.300 OA
HETATM   12  H           1     -34.787  -5.497 -16.987  0.00  0.00     0.223 HD
ENDBRANCH   8  11
ENDBRANCH   7   8
ENDBRANCH   6   7
ENDBRANCH   5   6
BRANCH   5  13
HETATM   13  C           1     -36.927  -0.327 -16.190  0.00  0.00     0.198 C 
HETATM   14  O           1     -37.367   0.833 -16.035  0.00  0.00    -0.646 OA
HETATM   15  O           1     -37.676  -1.225 -16.633  0.00  0.00    -0.646 OA
ENDBRANCH   5  13
ENDBRANCH   2   5
BRANCH   1  16
HETATM   16  C           1     -34.887  -0.345 -12.071  0.00  0.00     0.275 C 
BRANCH  16  17
HETATM   17  C           1     -34.850  -1.857 -11.895  0.00  0.00     0.053 C 
BRANCH  17  18
HETATM   18  C           1     -33.564  -2.255 -11.182  0.00  0.00     0.076 C 
BRANCH  18  19
HETATM   19  S           1     -33.618  -4.024 -10.777  0.00  0.00    -0.173 SA
HETATM   20  C           1     -35.397  -4.241 -11.067  0.00  0.00     0.089 C 
ENDBRANCH  18  19
ENDBRANCH  17  18
ENDBRANCH  16  17
BRANCH  16  21
HETATM   21  N           1     -36.078   0.214 -11.351  0.00  0.00    -0.066 N 
HETATM   22  H           1     -36.619  -0.567 -10.914  0.00  0.00     0.275 HD
HETATM   23  H           1     -36.689   0.723 -12.028  0.00  0.00     0.275 HD
HETATM   24  H           1     -35.756   0.874 -10.607  0.00  0.00     0.275 HD
ENDBRANCH  16  21
ENDBRANCH   1  16
TORSDOF 11
ENDMDL
MODEL 6
REMARK VINA RESULT:      -5.3      9.110     10.750
REMARK  11 active torsions:
REMARK  status: ('A' for Active; 'I' for Inactive)
REMARK    1  A    between atoms: C_3  and  C_4 
REMARK    2  A    between atoms: C_3  and  C_21 
REMARK    3  A    between atoms: C_4  and  C_5 
REMARK    4  A    between atoms: C_4  and  N_14 
REMARK       I    between atoms: C_5  and  N_6 
REMARK    5  A    between atoms: N_6  and  C_22 
REMARK    6  A    between atoms: S_8  and  C_21 
REMARK    7  A    between atoms: C_9  and  C_22 
REMARK    8  A    between atoms: C_9  and  O_19 
REMARK    9  A    between atoms: C_15  and  C_22 
REMARK   10  A    between atoms: P_18  and  O_19 
REMARK   11  A    between atoms: P_18  and  O_23 
ROOT
HETATM    1  C           1     -27.101  -6.533 -17.254  0.00  0.00     0.249 C 
HETATM    2  N           1     -28.120  -6.657 -18.159  0.00  0.00    -0.343 N 
HETATM    3  H           1     -27.917  -6.683 -19.150  0.00  0.00     0.163 HD
HETATM    4  O           1     -27.344  -6.501 -16.071  0.00  0.00    -0.271 OA
ENDROOT
BRANCH   2   5
HETATM    5  C           1     -29.492  -6.749 -17.697  0.00  0.00     0.210 C 
BRANCH   5   6
HETATM    6  C           1     -30.157  -5.383 -17.803  0.00  0.00     0.217 C 
BRANCH   6   7
HETATM    7  O           1     -30.734  -5.048 -16.570  0.00  0.00    -0.287 OA
BRANCH   7   8
HETATM    8  P           1     -32.289  -4.611 -16.613  0.00  0.00     0.406 P 
HETATM    9  O           1     -32.455  -3.467 -17.538  0.00  0.00    -0.624 OA
HETATM   10  O           1     -32.728  -4.215 -15.257  0.00  0.00    -0.624 OA
BRANCH   8  11
HETATM   11  O           1     -33.183  -5.854 -17.128  0.00  0.00    -0.300 OA
HETATM   12  H           1     -32.881  -6.594 -16.631  0.00  0.00     0.223 HD
ENDBRANCH   8  11
ENDBRANCH   7   8
ENDBRANCH   6   7
ENDBRANCH   5   6
BRANCH   5  13
HETATM   13  C           1     -30.243  -7.742 -18.551  0.00  0.00     0.198 C 
HETATM   14  O           1     -31.487  -7.673 -18.641  0.00  0.00    -0.646 OA
HETATM   15  O           1     -29.620  -8.634 -19.167  0.00  0.00    -0.646 OA
ENDBRANCH   5  13
ENDBRANCH   2   5
BRANCH   1  16
HETATM   16  C           1     -25.673  -6.436 -17.733  0.00  0.00     0.275 C 
BRANCH  16  17
HETATM   17  C           1     -25.617  -6.736 -19.225  0.00  0.00     0.053 C 
BRANCH  17  18
HETATM   18  C           1     -24.245  -7.295 -19.579  0.00  0.00     0.076 C 
BRANCH  18  19
HETATM   19  S           1     -24.293  -8.003 -21.250  0.00  0.00    -0.173 SA
HETATM   20  C           1     -22.560  -8.542 -21.288  0.00  0.00     0.089 C 
ENDBRANCH  18  19
ENDBRANCH  17  18
ENDBRANCH  16  17
BRANCH  16  21
HETATM   21  N           1     -24.829  -7.429 -16.991  0.00  0.00    -0.066 N 
HETATM   22  H           1     -25.399  -8.278 -16.774  0.00  0.00     0.275 HD
HETATM   23  H           1     -24.489  -7.002 -16.100  0.00  0.00     0.275 HD
HETATM   24  H           1     -24.011  -7.701 -17.582  0.00  0.00     0.275 HD
ENDBRANCH  16  21
ENDBRANCH   1  16
TORSDOF 11
ENDMDL
MODEL 7
REMARK VINA RESULT:      -5.2      3.476      4.952
REMARK  11 active torsions:
REMARK  status: ('A' for Active; 'I' for Inactive)
REMARK    1  A    between atoms: C_3  and  C_4 
REMARK    2  A    between atoms: C_3  and  C_21 
REMARK    3  A    between atoms: C_4  and  C_5 
REMARK    4  A    between atoms: C_4  and  N_14 
REMARK       I    between atoms: C_5  and  N_6 
REMARK    5  A    between atoms: N_6  and  C_22 
REMARK    6  A    between atoms: S_8  and  C_21 
REMARK    7  A    between atoms: C_9  and  C_22 
REMARK    8  A    between atoms: C_9  and  O_19 
REMARK    9  A    between atoms: C_15  and  C_22 
REMARK   10  A    between atoms: P_18  and  O_19 
REMARK   11  A    between atoms: P_18  and  O_23 
ROOT
HETATM    1  C           1     -35.253  -0.529 -13.210  0.00  0.00     0.249 C 
HETATM    2  N           1     -35.581  -1.215 -14.348  0.00  0.00    -0.343 N 
HETATM    3  H           1     -36.018  -2.125 -14.283  0.00  0.00     0.163 HD
HETATM    4  O           1     -34.730   0.557 -13.289  0.00  0.00    -0.271 OA
ENDROOT
BRANCH   2   5
HETATM    5  C           1     -35.299  -0.637 -15.649  0.00  0.00     0.210 C 
BRANCH   5   6
HETATM    6  C           1     -34.783  -1.721 -16.585  0.00  0.00     0.217 C 
BRANCH   6   7
HETATM    7  O           1     -35.328  -2.958 -16.213  0.00  0.00    -0.287 OA
BRANCH   7   8
HETATM    8  P           1     -34.285  -4.043 -15.626  0.00  0.00     0.406 P 
HETATM    9  O           1     -34.040  -3.768 -14.192  0.00  0.00    -0.624 OA
HETATM   10  O           1     -33.009  -3.952 -16.370  0.00  0.00    -0.624 OA
BRANCH   8  11
HETATM   11  O           1     -34.901  -5.527 -15.791  0.00  0.00    -0.300 OA
HETATM   12  H           1     -34.464  -5.891 -16.541  0.00  0.00     0.223 HD
ENDBRANCH   8  11
ENDBRANCH   7   8
ENDBRANCH   6   7
ENDBRANCH   5   6
BRANCH   5  13
HETATM   13  C           1     -36.564  -0.041 -16.217  0.00  0.00     0.198 C 
HETATM   14  O           1     -36.786   1.184 -16.096  0.00  0.00    -0.646 OA
HETATM   15  O           1     -37.389  -0.770 -16.808  0.00  0.00    -0.646 OA
ENDBRANCH   5  13
ENDBRANCH   2   5
BRANCH   1  16
HETATM   16  C           1     -35.545  -1.130 -11.857  0.00  0.00     0.275 C 
BRANCH  16  17
HETATM   17  C           1     -36.504  -0.225 -11.095  0.00  0.00     0.053 C 
BRANCH  17  18
HETATM   18  C           1     -36.760  -0.805  -9.711  0.00  0.00     0.076 C 
BRANCH  18  19
HETATM   19  S           1     -37.854   0.304  -8.781  0.00  0.00    -0.173 SA
HETATM   20  C           1     -36.646   0.751  -7.502  0.00  0.00     0.089 C 
ENDBRANCH  18  19
ENDBRANCH  17  18
ENDBRANCH  16  17
BRANCH  16  21
HETATM   21  N           1     -34.266  -1.265 -11.084  0.00  0.00    -0.066 N 
HETATM   22  H           1     -33.941  -2.258 -11.121  0.00  0.00     0.275 HD
HETATM   23  H           1     -34.427  -0.988 -10.090  0.00  0.00     0.275 HD
HETATM   24  H           1     -33.538  -0.645 -11.506  0.00  0.00     0.275 HD
ENDBRANCH  16  21
ENDBRANCH   1  16
TORSDOF 11
ENDMDL
MODEL 8
REMARK VINA RESULT:      -5.2      3.529      5.164
REMARK  11 active torsions:
REMARK  status: ('A' for Active; 'I' for Inactive)
REMARK    1  A    between atoms: C_3  and  C_4 
REMARK    2  A    between atoms: C_3  and  C_21 
REMARK    3  A    between atoms: C_4  and  C_5 
REMARK    4  A    between atoms: C_4  and  N_14 
REMARK       I    between atoms: C_5  and  N_6 
REMARK    5  A    between atoms: N_6  and  C_22 
REMARK    6  A    between atoms: S_8  and  C_21 
REMARK    7  A    between atoms: C_9  and  C_22 
REMARK    8  A    between atoms: C_9  and  O_19 
REMARK    9  A    between atoms: C_15  and  C_22 
REMARK   10  A    between atoms: P_18  and  O_19 
REMARK   11  A    between atoms: P_18  and  O_23 
ROOT
HETATM    1  C           1     -36.362  -0.062 -12.910  0.00  0.00     0.249 C 
HETATM    2  N           1     -35.938   0.004 -11.610  0.00  0.00    -0.343 N 
HETATM    3  H           1     -35.217   0.664 -11.345  0.00  0.00     0.163 HD
HETATM    4  O           1     -37.222  -0.848 -13.225  0.00  0.00    -0.271 OA
ENDROOT
BRANCH   2   5
HETATM    5  C           1     -36.522  -0.871 -10.612  0.00  0.00     0.210 C 
BRANCH   5   6
HETATM    6  C           1     -35.537  -1.984 -10.275  0.00  0.00     0.217 C 
BRANCH   6   7
HETATM    7  O           1     -35.767  -3.081 -11.117  0.00  0.00    -0.287 OA
BRANCH   7   8
HETATM    8  P           1     -34.557  -3.474 -12.112  0.00  0.00     0.406 P 
HETATM    9  O           1     -34.673  -4.900 -12.492  0.00  0.00    -0.624 OA
HETATM   10  O           1     -33.263  -3.250 -11.429  0.00  0.00    -0.624 OA
BRANCH   8  11
HETATM   11  O           1     -34.632  -2.556 -13.439  0.00  0.00    -0.300 OA
HETATM   12  H           1     -35.169  -1.822 -13.198  0.00  0.00     0.223 HD
ENDBRANCH   8  11
ENDBRANCH   7   8
ENDBRANCH   6   7
ENDBRANCH   5   6
BRANCH   5  13
HETATM   13  C           1     -36.830  -0.077  -9.367  0.00  0.00     0.198 C 
HETATM   14  O           1     -37.421  -0.622  -8.409  0.00  0.00    -0.646 OA
HETATM   15  O           1     -36.495   1.125  -9.292  0.00  0.00    -0.646 OA
ENDBRANCH   5  13
ENDBRANCH   2   5
BRANCH   1  16
HETATM   16  C           1     -35.755   0.849 -13.949  0.00  0.00     0.275 C 
BRANCH  16  17
HETATM   17  C           1     -36.494   0.678 -15.269  0.00  0.00     0.053 C 
BRANCH  17  18
HETATM   18  C           1     -35.545   0.105 -16.313  0.00  0.00     0.076 C 
BRANCH  18  19
HETATM   19  S           1     -36.182  -1.490 -16.900  0.00  0.00    -0.173 SA
HETATM   20  C           1     -34.586  -2.354 -16.902  0.00  0.00     0.089 C 
ENDBRANCH  18  19
ENDBRANCH  17  18
ENDBRANCH  16  17
BRANCH  16  21
HETATM   21  N           1     -34.309   0.499 -14.137  0.00  0.00    -0.066 N 
HETATM   22  H           1     -33.882   1.144 -14.840  0.00  0.00     0.275 HD
HETATM   23  H           1     -34.230  -0.486 -14.475  0.00  0.00     0.275 HD
HETATM   24  H           1     -33.806   0.596 -13.225  0.00  0.00     0.275 HD
ENDBRANCH  16  21
ENDBRANCH   1  16
TORSDOF 11
ENDMDL
MODEL 9
REMARK VINA RESULT:      -5.1      2.983      5.178
REMARK  11 active torsions:
REMARK  status: ('A' for Active; 'I' for Inactive)
REMARK    1  A    between atoms: C_3  and  C_4 
REMARK    2  A    between atoms: C_3  and  C_21 
REMARK    3  A    between atoms: C_4  and  C_5 
REMARK    4  A    between atoms: C_4  and  N_14 
REMARK       I    between atoms: C_5  and  N_6 
REMARK    5  A    between atoms: N_6  and  C_22 
REMARK    6  A    between atoms: S_8  and  C_21 
REMARK    7  A    between atoms: C_9  and  C_22 
REMARK    8  A    between atoms: C_9  and  O_19 
REMARK    9  A    between atoms: C_15  and  C_22 
REMARK   10  A    between atoms: P_18  and  O_19 
REMARK   11  A    between atoms: P_18  and  O_23 
ROOT
HETATM    1  C           1     -36.036  -1.505 -11.645  0.00  0.00     0.249 C 
HETATM    2  N           1     -35.041  -2.284 -12.172  0.00  0.00    -0.343 N 
HETATM    3  H           1     -34.343  -1.873 -12.778  0.00  0.00     0.163 HD
HETATM    4  O           1     -36.870  -1.996 -10.922  0.00  0.00    -0.271 OA
ENDROOT
BRANCH   2   5
HETATM    5  C           1     -34.989  -3.700 -11.861  0.00  0.00     0.210 C 
BRANCH   5   6
HETATM    6  C           1     -34.449  -4.463 -13.063  0.00  0.00     0.217 C 
BRANCH   6   7
HETATM    7  O           1     -34.097  -3.556 -14.073  0.00  0.00    -0.287 OA
BRANCH   7   8
HETATM    8  P           1     -34.164  -4.121 -15.585  0.00  0.00     0.406 P 
HETATM    9  O           1     -34.662  -3.058 -16.487  0.00  0.00    -0.624 OA
HETATM   10  O           1     -35.081  -5.282 -15.638  0.00  0.00    -0.624 OA
BRANCH   8  11
HETATM   11  O           1     -32.688  -4.577 -16.055  0.00  0.00    -0.300 OA
HETATM   12  H           1     -32.097  -4.020 -15.579  0.00  0.00     0.223 HD
ENDBRANCH   8  11
ENDBRANCH   7   8
ENDBRANCH   6   7
ENDBRANCH   5   6
BRANCH   5  13
HETATM   13  C           1     -34.081  -3.919 -10.675  0.00  0.00     0.198 C 
HETATM   14  O           1     -33.486  -2.950 -10.156  0.00  0.00    -0.646 OA
HETATM   15  O           1     -33.924  -5.070 -10.212  0.00  0.00    -0.646 OA
ENDBRANCH   5  13
ENDBRANCH   2   5
BRANCH   1  16
HETATM   16  C           1     -36.092  -0.032 -11.969  0.00  0.00     0.275 C 
BRANCH  16  17
HETATM   17  C           1     -34.863   0.358 -12.777  0.00  0.00     0.053 C 
BRANCH  17  18
HETATM   18  C           1     -35.298   1.041 -14.067  0.00  0.00     0.076 C 
BRANCH  18  19
HETATM   19  S           1     -35.824  -0.213 -15.269  0.00  0.00    -0.173 SA
HETATM   20  C           1     -37.563   0.302 -15.346  0.00  0.00     0.089 C 
ENDBRANCH  18  19
ENDBRANCH  17  18
ENDBRANCH  16  17
BRANCH  16  21
HETATM   21  N           1     -36.123   0.758 -10.694  0.00  0.00    -0.066 N 
HETATM   22  H           1     -35.912   1.761 -10.900  0.00  0.00     0.275 HD
HETATM   23  H           1     -35.408   0.381 -10.032  0.00  0.00     0.275 HD
HETATM   24  H           1     -37.072   0.684 -10.262  0.00  0.00     0.275 HD
ENDBRANCH  16  21
ENDBRANCH   1  16
TORSDOF 11
ENDMDL
