MODEL 1
REMARK VINA RESULT:      -7.6      0.000      0.000
REMARK  9 active torsions:
REMARK  status: ('A' for Active; 'I' for Inactive)
REMARK    1  A    between atoms: P_2  and  O_3 
REMARK    2  A    between atoms: P_2  and  O_7 
REMARK    3  A    between atoms: O_3  and  C_4 
REMARK    4  A    between atoms: C_6  and  C_10 
REMARK    5  A    between atoms: C_10  and  C_11 
REMARK    6  A    between atoms: C_11  and  C_13 
REMARK    7  A    between atoms: C_11  and  N_20 
REMARK    8  A    between atoms: N_15  and  C_26 
REMARK       I    between atoms: C_17  and  N_20 
REMARK    9  A    between atoms: C_17  and  C_26 
ROOT
HETATM    1  C           1     -34.803  -0.816 -12.371  0.00  0.00     0.074 C 
ENDROOT
BRANCH   1   2
HETATM    2  C           1     -34.401  -2.211 -12.007  0.00  0.00    -0.056 A 
HETATM    3  C           1     -34.433  -3.220 -12.968  0.00  0.00     0.010 A 
HETATM    4  C           1     -34.057  -4.520 -12.629  0.00  0.00     0.038 A 
HETATM    5  C           1     -33.648  -4.810 -11.328  0.00  0.00     0.081 A 
HETATM    6  C           1     -33.614  -3.800 -10.366  0.00  0.00     0.038 A 
HETATM    7  C           1     -33.991  -2.500 -10.706  0.00  0.00     0.010 A 
BRANCH   5   8
HETATM    8  O           1     -33.283  -6.072 -10.998  0.00  0.00    -0.247 OA
BRANCH   8   9
HETATM    9  P           1     -34.449  -7.125 -10.625  0.00  0.00     0.411 P 
HETATM   10  O           1     -35.333  -6.539  -9.593  0.00  0.00    -0.624 OA
HETATM   11  O           1     -33.842  -8.370 -10.104  0.00  0.00    -0.624 OA
BRANCH   9  12
HETATM   12  O           1     -35.315  -7.460 -11.947  0.00  0.00    -0.300 OA
HETATM   13  H           1     -35.713  -8.296 -11.773  0.00  0.00     0.223 HD
ENDBRANCH   9  12
ENDBRANCH   8   9
ENDBRANCH   5   8
ENDBRANCH   1   2
BRANCH   1  14
HETATM   14  C           1     -36.314  -0.753 -12.550  0.00  0.00     0.189 C 
BRANCH  14  15
HETATM   15  C           1     -36.958  -0.322 -11.256  0.00  0.00     0.197 C 
HETATM   16  O           1     -38.075  -0.781 -10.931  0.00  0.00    -0.646 OA
HETATM   17  O           1     -36.376   0.494 -10.510  0.00  0.00    -0.646 OA
ENDBRANCH  14  15
BRANCH  14  18
HETATM   18  N           1     -36.637   0.203 -13.592  0.00  0.00    -0.345 N 
HETATM   19  C           1     -36.909  -0.232 -14.861  0.00  0.00     0.243 C 
HETATM   20  O           1     -38.043  -0.502 -15.178  0.00  0.00    -0.272 OA
HETATM   21  H           1     -36.661   1.192 -13.380  0.00  0.00     0.163 HD
BRANCH  19  22
HETATM   22  C           1     -35.791  -0.376 -15.865  0.00  0.00     0.332 C 
BRANCH  22  23
HETATM   23  N           1     -36.367  -0.694 -17.213  0.00  0.00    -0.071 N 
HETATM   24  H           1     -37.299  -0.232 -17.311  0.00  0.00     0.274 HD
HETATM   25  H           1     -35.723  -0.345 -17.957  0.00  0.00     0.274 HD
HETATM   26  H           1     -36.481  -1.729 -17.308  0.00  0.00     0.274 HD
ENDBRANCH  22  23
ENDBRANCH  19  22
ENDBRANCH  14  18
ENDBRANCH   1  14
TORSDOF 9
ENDMDL
MODEL 2
REMARK VINA RESULT:      -6.9     13.663     16.381
REMARK  9 active torsions:
REMARK  status: ('A' for Active; 'I' for Inactive)
REMARK    1  A    between atoms: P_2  and  O_3 
REMARK    2  A    between atoms: P_2  and  O_7 
REMARK    3  A    between atoms: O_3  and  C_4 
REMARK    4  A    between atoms: C_6  and  C_10 
REMARK    5  A    between atoms: C_10  and  C_11 
REMARK    6  A    between atoms: C_11  and  C_13 
REMARK    7  A    between atoms: C_11  and  N_20 
REMARK    8  A    between atoms: N_15  and  C_26 
REMARK       I    between atoms: C_17  and  N_20 
REMARK    9  A    between atoms: C_17  and  C_26 
ROOT
HETATM    1  C           1     -20.072  -4.818  -5.707  0.00  0.00     0.074 C 
ENDROOT
BRANCH   1   2
HETATM    2  C           1     -20.679  -4.498  -7.037  0.00  0.00    -0.056 A 
HETATM    3  C           1     -22.002  -4.063  -7.114  0.00  0.00     0.010 A 
HETATM    4  C           1     -22.568  -3.764  -8.353  0.00  0.00     0.038 A 
HETATM    5  C           1     -21.809  -3.899  -9.516  0.00  0.00     0.081 A 
HETATM    6  C           1     -20.486  -4.332  -9.440  0.00  0.00     0.038 A 
HETATM    7  C           1     -19.921  -4.632  -8.200  0.00  0.00     0.010 A 
BRANCH   5   8
HETATM    8  O           1     -22.359  -3.607 -10.720  0.00  0.00    -0.247 OA
BRANCH   8   9
HETATM    9  P           1     -23.761  -4.312 -11.104  0.00  0.00     0.411 P 
HETATM   10  O           1     -23.961  -5.508 -10.255  0.00  0.00    -0.624 OA
HETATM   11  O           1     -23.737  -4.716 -12.527  0.00  0.00    -0.624 OA
BRANCH   9  12
HETATM   12  O           1     -24.971  -3.271 -10.858  0.00  0.00    -0.300 OA
HETATM   13  H           1     -24.791  -2.880 -10.020  0.00  0.00     0.223 HD
ENDBRANCH   9  12
ENDBRANCH   8   9
ENDBRANCH   5   8
ENDBRANCH   1   2
BRANCH   1  14
HETATM   14  C           1     -20.878  -5.921  -5.033  0.00  0.00     0.189 C 
BRANCH  14  15
HETATM   15  C           1     -20.601  -7.237  -5.715  0.00  0.00     0.197 C 
HETATM   16  O           1     -21.551  -7.971  -6.064  0.00  0.00    -0.646 OA
HETATM   17  O           1     -19.423  -7.595  -5.929  0.00  0.00    -0.646 OA
ENDBRANCH  14  15
BRANCH  14  18
HETATM   18  N           1     -20.496  -6.011  -3.637  0.00  0.00    -0.345 N 
HETATM   19  C           1     -21.187  -6.836  -2.789  0.00  0.00     0.243 C 
HETATM   20  O           1     -20.839  -7.983  -2.645  0.00  0.00    -0.272 OA
HETATM   21  H           1     -19.719  -5.464  -3.288  0.00  0.00     0.163 HD
BRANCH  19  22
HETATM   22  C           1     -22.385  -6.310  -2.036  0.00  0.00     0.332 C 
BRANCH  22  23
HETATM   23  N           1     -22.421  -6.921  -0.667  0.00  0.00    -0.071 N 
HETATM   24  H           1     -22.646  -7.939  -0.745  0.00  0.00     0.274 HD
HETATM   25  H           1     -21.491  -6.803  -0.208  0.00  0.00     0.274 HD
HETATM   26  H           1     -23.156  -6.447  -0.093  0.00  0.00     0.274 HD
ENDBRANCH  22  23
ENDBRANCH  19  22
ENDBRANCH  14  18
ENDBRANCH   1  14
TORSDOF 9
ENDMDL
MODEL 3
REMARK VINA RESULT:      -6.6     13.830     16.603
REMARK  9 active torsions:
REMARK  status: ('A' for Active; 'I' for Inactive)
REMARK    1  A    between atoms: P_2  and  O_3 
REMARK    2  A    between atoms: P_2  and  O_7 
REMARK    3  A    between atoms: O_3  and  C_4 
REMARK    4  A    between atoms: C_6  and  C_10 
REMARK    5  A    between atoms: C_10  and  C_11 
REMARK    6  A    between atoms: C_11  and  C_13 
REMARK    7  A    between atoms: C_11  and  N_20 
REMARK    8  A    between atoms: N_15  and  C_26 
REMARK       I    between atoms: C_17  and  N_20 
REMARK    9  A    between atoms: C_17  and  C_26 
ROOT
HETATM    1  C           1     -20.469  -6.308  -5.462  0.00  0.00     0.074 C 
ENDROOT
BRANCH   1   2
HETATM    2  C           1     -21.004  -5.559  -6.643  0.00  0.00    -0.056 A 
HETATM    3  C           1     -22.259  -4.955  -6.575  0.00  0.00     0.010 A 
HETATM    4  C           1     -22.758  -4.256  -7.675  0.00  0.00     0.038 A 
HETATM    5  C           1     -22.000  -4.162  -8.843  0.00  0.00     0.081 A 
HETATM    6  C           1     -20.744  -4.766  -8.910  0.00  0.00     0.038 A 
HETATM    7  C           1     -20.246  -5.465  -7.810  0.00  0.00     0.010 A 
BRANCH   5   8
HETATM    8  O           1     -22.484  -3.484  -9.911  0.00  0.00    -0.247 OA
BRANCH   8   9
HETATM    9  P           1     -23.610  -4.203 -10.819  0.00  0.00     0.411 P 
HETATM   10  O           1     -24.804  -3.334 -10.907  0.00  0.00    -0.624 OA
HETATM   11  O           1     -23.985  -5.497 -10.206  0.00  0.00    -0.624 OA
BRANCH   9  12
HETATM   12  O           1     -23.022  -4.460 -12.302  0.00  0.00    -0.300 OA
HETATM   13  H           1     -23.777  -4.475 -12.865  0.00  0.00     0.223 HD
ENDBRANCH   9  12
ENDBRANCH   8   9
ENDBRANCH   5   8
ENDBRANCH   1   2
BRANCH   1  14
HETATM   14  C           1     -21.051  -7.716  -5.447  0.00  0.00     0.189 C 
BRANCH  14  15
HETATM   15  C           1     -19.931  -8.724  -5.377  0.00  0.00     0.197 C 
HETATM   16  O           1     -20.069  -9.764  -4.698  0.00  0.00    -0.646 OA
HETATM   17  O           1     -18.865  -8.519  -5.997  0.00  0.00    -0.646 OA
ENDBRANCH  14  15
BRANCH  14  18
HETATM   18  N           1     -21.911  -7.868  -4.290  0.00  0.00    -0.345 N 
HETATM   19  C           1     -21.732  -7.069  -3.192  0.00  0.00     0.243 C 
HETATM   20  O           1     -22.317  -6.015  -3.110  0.00  0.00    -0.272 OA
HETATM   21  H           1     -22.644  -8.566  -4.293  0.00  0.00     0.163 HD
BRANCH  19  22
HETATM   22  C           1     -20.803  -7.505  -2.086  0.00  0.00     0.332 C 
BRANCH  22  23
HETATM   23  N           1     -21.602  -7.820  -0.856  0.00  0.00    -0.071 N 
HETATM   24  H           1     -20.955  -7.989  -0.054  0.00  0.00     0.274 HD
HETATM   25  H           1     -22.231  -7.015  -0.635  0.00  0.00     0.274 HD
HETATM   26  H           1     -22.178  -8.676  -1.025  0.00  0.00     0.274 HD
ENDBRANCH  22  23
ENDBRANCH  19  22
ENDBRANCH  14  18
ENDBRANCH   1  14
TORSDOF 9
ENDMDL
MODEL 4
REMARK VINA RESULT:      -6.2     15.221     17.561
REMARK  9 active torsions:
REMARK  status: ('A' for Active; 'I' for Inactive)
REMARK    1  A    between atoms: P_2  and  O_3 
REMARK    2  A    between atoms: P_2  and  O_7 
REMARK    3  A    between atoms: O_3  and  C_4 
REMARK    4  A    between atoms: C_6  and  C_10 
REMARK    5  A    between atoms: C_10  and  C_11 
REMARK    6  A    between atoms: C_11  and  C_13 
REMARK    7  A    between atoms: C_11  and  N_20 
REMARK    8  A    between atoms: N_15  and  C_26 
REMARK       I    between atoms: C_17  and  N_20 
REMARK    9  A    between atoms: C_17  and  C_26 
ROOT
HETATM    1  C           1     -21.965  -7.372  -4.803  0.00  0.00     0.074 C 
ENDROOT
BRANCH   1   2
HETATM    2  C           1     -21.550  -6.396  -5.859  0.00  0.00    -0.056 A 
HETATM    3  C           1     -22.430  -5.397  -6.271  0.00  0.00     0.010 A 
HETATM    4  C           1     -22.043  -4.487  -7.256  0.00  0.00     0.038 A 
HETATM    5  C           1     -20.774  -4.578  -7.828  0.00  0.00     0.081 A 
HETATM    6  C           1     -19.892  -5.578  -7.416  0.00  0.00     0.038 A 
HETATM    7  C           1     -20.281  -6.487  -6.431  0.00  0.00     0.010 A 
BRANCH   5   8
HETATM    8  O           1     -20.397  -3.695  -8.784  0.00  0.00    -0.247 OA
BRANCH   8   9
HETATM    9  P           1     -20.632  -4.105 -10.329  0.00  0.00     0.411 P 
HETATM   10  O           1     -22.026  -4.566 -10.512  0.00  0.00    -0.624 OA
HETATM   11  O           1     -19.700  -5.194 -10.697  0.00  0.00    -0.624 OA
BRANCH   9  12
HETATM   12  O           1     -20.362  -2.822 -11.273  0.00  0.00    -0.300 OA
HETATM   13  H           1     -20.313  -2.090 -10.681  0.00  0.00     0.223 HD
ENDBRANCH   9  12
ENDBRANCH   8   9
ENDBRANCH   5   8
ENDBRANCH   1   2
BRANCH   1  14
HETATM   14  C           1     -20.909  -7.413  -3.706  0.00  0.00     0.189 C 
BRANCH  14  15
HETATM   15  C           1     -21.499  -6.895  -2.418  0.00  0.00     0.197 C 
HETATM   16  O           1     -22.217  -5.872  -2.427  0.00  0.00    -0.646 OA
HETATM   17  O           1     -21.269  -7.488  -1.342  0.00  0.00    -0.646 OA
ENDBRANCH  14  15
BRANCH  14  18
HETATM   18  N           1     -20.464  -8.780  -3.517  0.00  0.00    -0.345 N 
HETATM   19  C           1     -19.148  -9.106  -3.715  0.00  0.00     0.243 C 
HETATM   20  O           1     -18.366  -9.044  -2.797  0.00  0.00    -0.272 OA
HETATM   21  H           1     -21.125  -9.493  -3.239  0.00  0.00     0.163 HD
BRANCH  19  22
HETATM   22  C           1     -18.677  -9.540  -5.081  0.00  0.00     0.332 C 
BRANCH  22  23
HETATM   23  N           1     -19.813 -10.184  -5.820  0.00  0.00    -0.071 N 
HETATM   24  H           1     -19.858  -9.800  -6.791  0.00  0.00     0.274 HD
HETATM   25  H           1     -19.661 -11.216  -5.860  0.00  0.00     0.274 HD
HETATM   26  H           1     -20.711  -9.981  -5.324  0.00  0.00     0.274 HD
ENDBRANCH  22  23
ENDBRANCH  19  22
ENDBRANCH  14  18
ENDBRANCH   1  14
TORSDOF 9
ENDMDL
MODEL 5
REMARK VINA RESULT:      -6.2     14.418     17.287
REMARK  9 active torsions:
REMARK  status: ('A' for Active; 'I' for Inactive)
REMARK    1  A    between atoms: P_2  and  O_3 
REMARK    2  A    between atoms: P_2  and  O_7 
REMARK    3  A    between atoms: O_3  and  C_4 
REMARK    4  A    between atoms: C_6  and  C_10 
REMARK    5  A    between atoms: C_10  and  C_11 
REMARK    6  A    between atoms: C_11  and  C_13 
REMARK    7  A    between atoms: C_11  and  N_20 
REMARK    8  A    between atoms: N_15  and  C_26 
REMARK       I    between atoms: C_17  and  N_20 
REMARK    9  A    between atoms: C_17  and  C_26 
ROOT
HETATM    1  C           1     -20.170  -7.396  -5.245  0.00  0.00     0.074 C 
ENDROOT
BRANCH   1   2
HETATM    2  C           1     -20.689  -6.330  -6.160  0.00  0.00    -0.056 A 
HETATM    3  C           1     -21.936  -5.754  -5.923  0.00  0.00     0.010 A 
HETATM    4  C           1     -22.420  -4.761  -6.775  0.00  0.00     0.038 A 
HETATM    5  C           1     -21.654  -4.344  -7.864  0.00  0.00     0.081 A 
HETATM    6  C           1     -20.405  -4.919  -8.101  0.00  0.00     0.038 A 
HETATM    7  C           1     -19.923  -5.913  -7.248  0.00  0.00     0.010 A 
BRANCH   5   8
HETATM    8  O           1     -22.123  -3.379  -8.692  0.00  0.00    -0.247 OA
BRANCH   8   9
HETATM    9  P           1     -23.342  -3.756  -9.681  0.00  0.00     0.411 P 
HETATM   10  O           1     -23.332  -5.213  -9.945  0.00  0.00    -0.624 OA
HETATM   11  O           1     -23.186  -3.024 -10.958  0.00  0.00    -0.624 OA
BRANCH   9  12
HETATM   12  O           1     -24.743  -3.344  -8.991  0.00  0.00    -0.300 OA
HETATM   13  H           1     -24.564  -2.536  -8.540  0.00  0.00     0.223 HD
ENDBRANCH   9  12
ENDBRANCH   8   9
ENDBRANCH   5   8
ENDBRANCH   1   2
BRANCH   1  14
HETATM   14  C           1     -21.164  -8.549  -5.193  0.00  0.00     0.189 C 
BRANCH  14  15
HETATM   15  C           1     -20.505  -9.806  -5.704  0.00  0.00     0.197 C 
HETATM   16  O           1     -19.260  -9.910  -5.686  0.00  0.00    -0.646 OA
HETATM   17  O           1     -21.205 -10.743  -6.146  0.00  0.00    -0.646 OA
ENDBRANCH  14  15
BRANCH  14  18
HETATM   18  N           1     -21.594  -8.752  -3.823  0.00  0.00    -0.345 N 
HETATM   19  C           1     -20.758  -8.432  -2.787  0.00  0.00     0.243 C 
HETATM   20  O           1     -20.782  -7.323  -2.311  0.00  0.00    -0.272 OA
HETATM   21  H           1     -22.513  -9.130  -3.633  0.00  0.00     0.163 HD
BRANCH  19  22
HETATM   22  C           1     -19.804  -9.467  -2.242  0.00  0.00     0.332 C 
BRANCH  22  23
HETATM   23  N           1     -18.423  -9.198  -2.763  0.00  0.00    -0.071 N 
HETATM   24  H           1     -17.784  -8.990  -1.963  0.00  0.00     0.274 HD
HETATM   25  H           1     -18.077 -10.037  -3.279  0.00  0.00     0.274 HD
HETATM   26  H           1     -18.449  -8.376  -3.409  0.00  0.00     0.274 HD
ENDBRANCH  22  23
ENDBRANCH  19  22
ENDBRANCH  14  18
ENDBRANCH   1  14
TORSDOF 9
ENDMDL
MODEL 6
REMARK VINA RESULT:      -6.1      9.192     11.428
REMARK  9 active torsions:
REMARK  status: ('A' for Active; 'I' for Inactive)
REMARK    1  A    between atoms: P_2  and  O_3 
REMARK    2  A    between atoms: P_2  and  O_7 
REMARK    3  A    between atoms: O_3  and  C_4 
REMARK    4  A    between atoms: C_6  and  C_10 
REMARK    5  A    between atoms: C_10  and  C_11 
REMARK    6  A    between atoms: C_11  and  C_13 
REMARK    7  A    between atoms: C_11  and  N_20 
REMARK    8  A    between atoms: N_15  and  C_26 
REMARK       I    between atoms: C_17  and  N_20 
REMARK    9  A    between atoms: C_17  and  C_26 
ROOT
HETATM    1  C           1     -27.467  -6.217 -19.982  0.00  0.00     0.074 C 
ENDROOT
BRANCH   1   2
HETATM    2  C           1     -28.449  -5.898 -18.899  0.00  0.00    -0.056 A 
HETATM    3  C           1     -29.267  -6.901 -18.380  0.00  0.00     0.010 A 
HETATM    4  C           1     -30.182  -6.604 -17.370  0.00  0.00     0.038 A 
HETATM    5  C           1     -30.278  -5.302 -16.878  0.00  0.00     0.081 A 
HETATM    6  C           1     -29.459  -4.298 -17.395  0.00  0.00     0.038 A 
HETATM    7  C           1     -28.545  -4.597 -18.406  0.00  0.00     0.010 A 
BRANCH   5   8
HETATM    8  O           1     -31.166  -5.014 -15.896  0.00  0.00    -0.247 OA
BRANCH   8   9
HETATM    9  P           1     -32.668  -4.605 -16.329  0.00  0.00     0.411 P 
HETATM   10  O           1     -32.613  -3.587 -17.402  0.00  0.00    -0.624 OA
HETATM   11  O           1     -33.384  -4.050 -15.159  0.00  0.00    -0.624 OA
BRANCH   9  12
HETATM   12  O           1     -33.447  -5.913 -16.869  0.00  0.00    -0.300 OA
HETATM   13  H           1     -34.222  -5.580 -17.288  0.00  0.00     0.223 HD
ENDBRANCH   9  12
ENDBRANCH   8   9
ENDBRANCH   5   8
ENDBRANCH   1   2
BRANCH   1  14
HETATM   14  C           1     -26.404  -7.165 -19.442  0.00  0.00     0.189 C 
BRANCH  14  15
HETATM   15  C           1     -25.663  -7.800 -20.592  0.00  0.00     0.197 C 
HETATM   16  O           1     -26.264  -8.564 -21.377  0.00  0.00    -0.646 OA
HETATM   17  O           1     -24.447  -7.561 -20.760  0.00  0.00    -0.646 OA
ENDBRANCH  14  15
BRANCH  14  18
HETATM   18  N           1     -25.471  -6.422 -18.618  0.00  0.00    -0.345 N 
HETATM   19  C           1     -25.205  -6.836 -17.340  0.00  0.00     0.243 C 
HETATM   20  O           1     -24.304  -7.612 -17.131  0.00  0.00    -0.272 OA
HETATM   21  H           1     -25.015  -5.597 -18.987  0.00  0.00     0.163 HD
BRANCH  19  22
HETATM   22  C           1     -26.041  -6.323 -16.193  0.00  0.00     0.332 C 
BRANCH  22  23
HETATM   23  N           1     -27.008  -7.387 -15.764  0.00  0.00    -0.071 N 
HETATM   24  H           1     -27.060  -8.127 -16.500  0.00  0.00     0.274 HD
HETATM   25  H           1     -26.685  -7.809 -14.865  0.00  0.00     0.274 HD
HETATM   26  H           1     -27.955  -6.963 -15.630  0.00  0.00     0.274 HD
ENDBRANCH  22  23
ENDBRANCH  19  22
ENDBRANCH  14  18
ENDBRANCH   1  14
TORSDOF 9
ENDMDL
MODEL 7
REMARK VINA RESULT:      -5.9     16.889     19.323
REMARK  9 active torsions:
REMARK  status: ('A' for Active; 'I' for Inactive)
REMARK    1  A    between atoms: P_2  and  O_3 
REMARK    2  A    between atoms: P_2  and  O_7 
REMARK    3  A    between atoms: O_3  and  C_4 
REMARK    4  A    between atoms: C_6  and  C_10 
REMARK    5  A    between atoms: C_10  and  C_11 
REMARK    6  A    between atoms: C_11  and  C_13 
REMARK    7  A    between atoms: C_11  and  N_20 
REMARK    8  A    between atoms: N_15  and  C_26 
REMARK       I    between atoms: C_17  and  N_20 
REMARK    9  A    between atoms: C_17  and  C_26 
ROOT
HETATM    1  C           1     -22.353  -9.099   0.189  0.00  0.00     0.074 C 
ENDROOT
BRANCH   1   2
HETATM    2  C           1     -21.975  -8.226  -0.966  0.00  0.00    -0.056 A 
HETATM    3  C           1     -21.233  -8.749  -2.024  0.00  0.00     0.010 A 
HETATM    4  C           1     -20.881  -7.935  -3.101  0.00  0.00     0.038 A 
HETATM    5  C           1     -21.273  -6.596  -3.119  0.00  0.00     0.081 A 
HETATM    6  C           1     -22.017  -6.072  -2.062  0.00  0.00     0.038 A 
HETATM    7  C           1     -22.368  -6.887  -0.985  0.00  0.00     0.010 A 
BRANCH   5   8
HETATM    8  O           1     -20.932  -5.805  -4.165  0.00  0.00    -0.247 OA
BRANCH   8   9
HETATM    9  P           1     -21.727  -6.004  -5.557  0.00  0.00     0.411 P 
HETATM   10  O           1     -23.164  -6.223  -5.278  0.00  0.00    -0.624 OA
HETATM   11  O           1     -21.180  -7.178  -6.274  0.00  0.00    -0.624 OA
BRANCH   9  12
HETATM   12  O           1     -21.551  -4.684  -6.470  0.00  0.00    -0.300 OA
HETATM   13  H           1     -21.464  -3.973  -5.858  0.00  0.00     0.223 HD
ENDBRANCH   9  12
ENDBRANCH   8   9
ENDBRANCH   5   8
ENDBRANCH   1   2
BRANCH   1  14
HETATM   14  C           1     -21.688 -10.461   0.035  0.00  0.00     0.189 C 
BRANCH  14  15
HETATM   15  C           1     -20.480 -10.537   0.936  0.00  0.00     0.197 C 
HETATM   16  O           1     -19.556 -11.337   0.675  0.00  0.00    -0.646 OA
HETATM   17  O           1     -20.404  -9.800   1.943  0.00  0.00    -0.646 OA
ENDBRANCH  14  15
BRANCH  14  18
HETATM   18  N           1     -22.629 -11.501   0.402  0.00  0.00    -0.345 N 
HETATM   19  C           1     -22.631 -12.693  -0.273  0.00  0.00     0.243 C 
HETATM   20  O           1     -21.939 -13.605   0.110  0.00  0.00    -0.272 OA
HETATM   21  H           1     -23.285 -11.346   1.157  0.00  0.00     0.163 HD
BRANCH  19  22
HETATM   22  C           1     -23.498 -12.865  -1.496  0.00  0.00     0.332 C 
BRANCH  22  23
HETATM   23  N           1     -22.776 -12.335  -2.699  0.00  0.00    -0.071 N 
HETATM   24  H           1     -22.236 -13.108  -3.149  0.00  0.00     0.274 HD
HETATM   25  H           1     -23.469 -11.950  -3.379  0.00  0.00     0.274 HD
HETATM   26  H           1     -22.118 -11.577  -2.405  0.00  0.00     0.274 HD
ENDBRANCH  22  23
ENDBRANCH  19  22
ENDBRANCH  14  18
ENDBRANCH   1  14
TORSDOF 9
ENDMDL
MODEL 8
REMARK VINA RESULT:      -5.9     16.514     18.837
REMARK  9 active torsions:
REMARK  status: ('A' for Active; 'I' for Inactive)
REMARK    1  A    between atoms: P_2  and  O_3 
REMARK    2  A    between atoms: P_2  and  O_7 
REMARK    3  A    between atoms: O_3  and  C_4 
REMARK    4  A    between atoms: C_6  and  C_10 
REMARK    5  A    between atoms: C_10  and  C_11 
REMARK    6  A    between atoms: C_11  and  C_13 
REMARK    7  A    between atoms: C_11  and  N_20 
REMARK    8  A    between atoms: N_15  and  C_26 
REMARK       I    between atoms: C_17  and  N_20 
REMARK    9  A    between atoms: C_17  and  C_26 
ROOT
HETATM    1  C           1     -20.223  -9.154  -1.817  0.00  0.00     0.074 C 
ENDROOT
BRANCH   1   2
HETATM    2  C           1     -20.751  -8.214  -2.855  0.00  0.00    -0.056 A 
HETATM    3  C           1     -20.801  -8.607  -4.191  0.00  0.00     0.010 A 
HETATM    4  C           1     -21.295  -7.731  -5.159  0.00  0.00     0.038 A 
HETATM    5  C           1     -21.739  -6.462  -4.788  0.00  0.00     0.081 A 
HETATM    6  C           1     -21.691  -6.069  -3.450  0.00  0.00     0.038 A 
HETATM    7  C           1     -21.197  -6.945  -2.484  0.00  0.00     0.010 A 
BRANCH   5   8
HETATM    8  O           1     -22.219  -5.612  -5.728  0.00  0.00    -0.247 OA
BRANCH   8   9
HETATM    9  P           1     -21.154  -4.844  -6.669  0.00  0.00     0.411 P 
HETATM   10  O           1     -20.846  -5.680  -7.851  0.00  0.00    -0.624 OA
HETATM   11  O           1     -19.911  -4.593  -5.905  0.00  0.00    -0.624 OA
BRANCH   9  12
HETATM   12  O           1     -21.782  -3.437  -7.155  0.00  0.00    -0.300 OA
HETATM   13  H           1     -21.077  -2.995  -7.598  0.00  0.00     0.223 HD
ENDBRANCH   9  12
ENDBRANCH   8   9
ENDBRANCH   5   8
ENDBRANCH   1   2
BRANCH   1  14
HETATM   14  C           1     -21.173 -10.335  -1.669  0.00  0.00     0.189 C 
BRANCH  14  15
HETATM   15  C           1     -20.428 -11.619  -1.939  0.00  0.00     0.197 C 
HETATM   16  O           1     -19.461 -11.625  -2.730  0.00  0.00    -0.646 OA
HETATM   17  O           1     -20.779 -12.676  -1.371  0.00  0.00    -0.646 OA
ENDBRANCH  14  15
BRANCH  14  18
HETATM   18  N           1     -21.704 -10.360  -0.320  0.00  0.00    -0.345 N 
HETATM   19  C           1     -22.949  -9.851  -0.064  0.00  0.00     0.243 C 
HETATM   20  O           1     -23.921 -10.565  -0.135  0.00  0.00    -0.272 OA
HETATM   21  H           1     -21.154 -10.754   0.433  0.00  0.00     0.163 HD
BRANCH  19  22
HETATM   22  C           1     -23.107  -8.396   0.306  0.00  0.00     0.332 C 
BRANCH  22  23
HETATM   23  N           1     -21.949  -7.969   1.159  0.00  0.00    -0.071 N 
HETATM   24  H           1     -21.238  -8.734   1.189  0.00  0.00     0.274 HD
HETATM   25  H           1     -21.519  -7.107   0.755  0.00  0.00     0.274 HD
HETATM   26  H           1     -22.286  -7.769   2.129  0.00  0.00     0.274 HD
ENDBRANCH  22  23
ENDBRANCH  19  22
ENDBRANCH  14  18
ENDBRANCH   1  14
TORSDOF 9
ENDMDL
MODEL 9
REMARK VINA RESULT:      -5.8     16.352     18.634
REMARK  9 active torsions:
REMARK  status: ('A' for Active; 'I' for Inactive)
REMARK    1  A    between atoms: P_2  and  O_3 
REMARK    2  A    between atoms: P_2  and  O_7 
REMARK    3  A    between atoms: O_3  and  C_4 
REMARK    4  A    between atoms: C_6  and  C_10 
REMARK    5  A    between atoms: C_10  and  C_11 
REMARK    6  A    between atoms: C_11  and  C_13 
REMARK    7  A    between atoms: C_11  and  N_20 
REMARK    8  A    between atoms: N_15  and  C_26 
REMARK       I    between atoms: C_17  and  N_20 
REMARK    9  A    between atoms: C_17  and  C_26 
ROOT
HETATM    1  C           1     -20.962  -7.870  -1.074  0.00  0.00     0.074 C 
ENDROOT
BRANCH   1   2
HETATM    2  C           1     -20.992  -7.604  -2.547  0.00  0.00    -0.056 A 
HETATM    3  C           1     -20.088  -8.247  -3.390  0.00  0.00     0.010 A 
HETATM    4  C           1     -20.116  -8.000  -4.763  0.00  0.00     0.038 A 
HETATM    5  C           1     -21.050  -7.109  -5.291  0.00  0.00     0.081 A 
HETATM    6  C           1     -21.957  -6.466  -4.448  0.00  0.00     0.038 A 
HETATM    7  C           1     -21.927  -6.714  -3.075  0.00  0.00     0.010 A 
BRANCH   5   8
HETATM    8  O           1     -21.078  -6.869  -6.625  0.00  0.00    -0.247 OA
BRANCH   8   9
HETATM    9  P           1     -20.695  -5.386  -7.136  0.00  0.00     0.411 P 
HETATM   10  O           1     -21.922  -4.563  -7.230  0.00  0.00    -0.624 OA
HETATM   11  O           1     -20.057  -5.472  -8.468  0.00  0.00    -0.624 OA
BRANCH   9  12
HETATM   12  O           1     -19.670  -4.704  -6.090  0.00  0.00    -0.300 OA
HETATM   13  H           1     -19.535  -5.355  -5.421  0.00  0.00     0.223 HD
ENDBRANCH   9  12
ENDBRANCH   8   9
ENDBRANCH   5   8
ENDBRANCH   1   2
BRANCH   1  14
HETATM   14  C           1     -21.170  -9.357  -0.821  0.00  0.00     0.189 C 
BRANCH  14  15
HETATM   15  C           1     -20.996  -9.649   0.648  0.00  0.00     0.197 C 
HETATM   16  O           1     -21.128  -8.731   1.487  0.00  0.00    -0.646 OA
HETATM   17  O           1     -20.720 -10.807   1.027  0.00  0.00    -0.646 OA
ENDBRANCH  14  15
BRANCH  14  18
HETATM   18  N           1     -22.509  -9.733  -1.233  0.00  0.00    -0.345 N 
HETATM   19  C           1     -22.715 -10.910  -1.902  0.00  0.00     0.243 C 
HETATM   20  O           1     -22.947 -11.923  -1.286  0.00  0.00    -0.272 OA
HETATM   21  H           1     -23.291  -9.126  -1.024  0.00  0.00     0.163 HD
BRANCH  19  22
HETATM   22  C           1     -22.652 -10.940  -3.410  0.00  0.00     0.332 C 
BRANCH  22  23
HETATM   23  N           1     -21.384 -11.614  -3.843  0.00  0.00    -0.071 N 
HETATM   24  H           1     -21.608 -12.557  -4.236  0.00  0.00     0.274 HD
HETATM   25  H           1     -20.914 -11.034  -4.573  0.00  0.00     0.274 HD
HETATM   26  H           1     -20.748 -11.723  -3.020  0.00  0.00     0.274 HD
ENDBRANCH  22  23
ENDBRANCH  19  22
ENDBRANCH  14  18
ENDBRANCH   1  14
TORSDOF 9
ENDMDL
