MODEL 1
REMARK VINA RESULT:      -5.9      0.000      0.000
REMARK  11 active torsions:
REMARK  status: ('A' for Active; 'I' for Inactive)
REMARK    1  A    between atoms: C_3  and  C_19 
REMARK    2  A    between atoms: C_3  and  C_17 
REMARK    3  A    between atoms: C_3  and  N_11 
REMARK    4  A    between atoms: Se_6  and  C_20 
REMARK    5  A    between atoms: N_7  and  C_8 
REMARK    6  A    between atoms: C_8  and  C_24 
REMARK       I    between atoms: C_10  and  N_11 
REMARK    7  A    between atoms: C_10  and  C_22 
REMARK    8  A    between atoms: N_16  and  C_22 
REMARK    9  A    between atoms: C_19  and  C_20 
REMARK   10  A    between atoms: C_22  and  C_23 
REMARK   11  A    between atoms: C_23  and  C_24 
ROOT
HETATM    1  H           1     -27.422  -6.962 -18.580  0.00  0.00     0.163 HD
HETATM    2  C           1     -25.392  -6.854 -18.964  0.00  0.00     0.249 C 
HETATM    3  N           1     -26.529  -6.636 -18.234  0.00  0.00    -0.345 N 
HETATM    4  O           1     -24.325  -6.466 -18.550  0.00  0.00    -0.271 OA
ENDROOT
BRANCH   2   5
HETATM    5  C           1     -25.470  -7.579 -20.285  0.00  0.00     0.274 C 
BRANCH   5   6
HETATM    6  N           1     -26.908  -7.817 -20.638  0.00  0.00    -0.067 N 
HETATM    7  H           1     -27.425  -8.146 -19.791  0.00  0.00     0.275 HD
HETATM    8  H           1     -26.967  -8.543 -21.388  0.00  0.00     0.275 HD
HETATM    9  H           1     -27.334  -6.927 -20.982  0.00  0.00     0.275 HD
ENDBRANCH   5   6
BRANCH   5  10
HETATM   10  C           1     -24.814  -6.734 -21.369  0.00  0.00     0.044 C 
BRANCH  10  11
HETATM   11  C           1     -24.121  -7.646 -22.374  0.00  0.00     0.030 C 
BRANCH  11  12
HETATM   12  C           1     -23.000  -8.408 -21.680  0.00  0.00     0.230 C 
BRANCH  12  13
HETATM   13  N           1     -22.451  -9.448 -22.610  0.00  0.00    -0.079 N 
HETATM   14  H           1     -21.407  -9.399 -22.613  0.00  0.00     0.274 HD
HETATM   15  H           1     -22.811  -9.276 -23.576  0.00  0.00     0.274 HD
HETATM   16  H           1     -22.754 -10.396 -22.289  0.00  0.00     0.274 HD
ENDBRANCH  12  13
ENDBRANCH  11  12
ENDBRANCH  10  11
ENDBRANCH   5  10
ENDBRANCH   2   5
BRANCH   3  17
HETATM   17  C           1     -26.453  -5.940 -16.964  0.00  0.00     0.185 C 
BRANCH  17  18
HETATM   18  C           1     -27.673  -5.042 -16.804  0.00  0.00     0.036 C 
BRANCH  18  19
HETATM   19  C           1     -28.607  -5.235 -17.991  0.00  0.00     0.003 C 
BRANCH  19  20
HETATM   20 Se           1     -30.295  -5.990 -17.374  0.00  0.00     0.000 Se
HETATM   21  C           1     -30.065  -7.687 -18.306  0.00  0.00     0.000 C 
ENDBRANCH  19  20
ENDBRANCH  18  19
ENDBRANCH  17  18
BRANCH  17  22
HETATM   22  C           1     -26.417  -6.946 -15.840  0.00  0.00     0.196 C 
HETATM   23  O           1     -25.320  -7.356 -15.402  0.00  0.00    -0.646 OA
HETATM   24  O           1     -27.484  -7.369 -15.345  0.00  0.00    -0.646 OA
ENDBRANCH  17  22
ENDBRANCH   3  17
TORSDOF 11
ENDMDL
MODEL 2
REMARK VINA RESULT:      -5.6     11.138     12.869
REMARK  11 active torsions:
REMARK  status: ('A' for Active; 'I' for Inactive)
REMARK    1  A    between atoms: C_3  and  C_19 
REMARK    2  A    between atoms: C_3  and  C_17 
REMARK    3  A    between atoms: C_3  and  N_11 
REMARK    4  A    between atoms: Se_6  and  C_20 
REMARK    5  A    between atoms: N_7  and  C_8 
REMARK    6  A    between atoms: C_8  and  C_24 
REMARK       I    between atoms: C_10  and  N_11 
REMARK    7  A    between atoms: C_10  and  C_22 
REMARK    8  A    between atoms: N_16  and  C_22 
REMARK    9  A    between atoms: C_19  and  C_20 
REMARK   10  A    between atoms: C_22  and  C_23 
REMARK   11  A    between atoms: C_23  and  C_24 
ROOT
HETATM    1  H           1     -36.048  -2.638 -12.498  0.00  0.00     0.163 HD
HETATM    2  C           1     -34.282  -2.674 -11.420  0.00  0.00     0.249 C 
HETATM    3  N           1     -35.412  -2.094 -11.930  0.00  0.00    -0.345 N 
HETATM    4  O           1     -33.523  -2.024 -10.741  0.00  0.00    -0.271 OA
ENDROOT
BRANCH   2   5
HETATM    5  C           1     -33.984  -4.125 -11.706  0.00  0.00     0.274 C 
BRANCH   5   6
HETATM    6  N           1     -32.610  -4.245 -12.293  0.00  0.00    -0.067 N 
HETATM    7  H           1     -32.185  -5.155 -12.003  0.00  0.00     0.275 HD
HETATM    8  H           1     -32.014  -3.457 -11.951  0.00  0.00     0.275 HD
HETATM    9  H           1     -32.671  -4.207 -13.336  0.00  0.00     0.275 HD
ENDBRANCH   5   6
BRANCH   5  10
HETATM   10  C           1     -34.055  -4.924 -10.412  0.00  0.00     0.044 C 
BRANCH  10  11
HETATM   11  C           1     -33.932  -6.410 -10.725  0.00  0.00     0.030 C 
BRANCH  11  12
HETATM   12  C           1     -34.946  -7.189  -9.897  0.00  0.00     0.230 C 
BRANCH  12  13
HETATM   13  N           1     -34.378  -8.532  -9.545  0.00  0.00    -0.079 N 
HETATM   14  H           1     -33.455  -8.656 -10.018  0.00  0.00     0.274 HD
HETATM   15  H           1     -35.035  -9.281  -9.859  0.00  0.00     0.274 HD
HETATM   16  H           1     -34.249  -8.594  -8.509  0.00  0.00     0.274 HD
ENDBRANCH  12  13
ENDBRANCH  11  12
ENDBRANCH  10  11
ENDBRANCH   5  10
ENDBRANCH   2   5
BRANCH   3  17
HETATM   17  C           1     -35.699  -0.700 -11.653  0.00  0.00     0.185 C 
BRANCH  17  18
HETATM   18  C           1     -36.288  -0.046 -12.897  0.00  0.00     0.036 C 
BRANCH  18  19
HETATM   19  C           1     -35.323  -0.210 -14.064  0.00  0.00     0.003 C 
BRANCH  19  20
HETATM   20 Se           1     -36.294  -0.010 -15.743  0.00  0.00     0.000 Se
HETATM   21  C           1     -35.372  -1.474 -16.639  0.00  0.00     0.000 C 
ENDBRANCH  19  20
ENDBRANCH  18  19
ENDBRANCH  17  18
BRANCH  17  22
HETATM   22  C           1     -36.687  -0.604 -10.518  0.00  0.00     0.196 C 
HETATM   23  O           1     -37.878  -0.944 -10.695  0.00  0.00    -0.646 OA
HETATM   24  O           1     -36.318  -0.186  -9.400  0.00  0.00    -0.646 OA
ENDBRANCH  17  22
ENDBRANCH   3  17
TORSDOF 11
ENDMDL
MODEL 3
REMARK VINA RESULT:      -5.2     12.583     14.881
REMARK  11 active torsions:
REMARK  status: ('A' for Active; 'I' for Inactive)
REMARK    1  A    between atoms: C_3  and  C_19 
REMARK    2  A    between atoms: C_3  and  C_17 
REMARK    3  A    between atoms: C_3  and  N_11 
REMARK    4  A    between atoms: Se_6  and  C_20 
REMARK    5  A    between atoms: N_7  and  C_8 
REMARK    6  A    between atoms: C_8  and  C_24 
REMARK       I    between atoms: C_10  and  N_11 
REMARK    7  A    between atoms: C_10  and  C_22 
REMARK    8  A    between atoms: N_16  and  C_22 
REMARK    9  A    between atoms: C_19  and  C_20 
REMARK   10  A    between atoms: C_22  and  C_23 
REMARK   11  A    between atoms: C_23  and  C_24 
ROOT
HETATM    1  H           1     -19.897  -6.814  -4.875  0.00  0.00     0.163 HD
HETATM    2  C           1     -21.456  -5.740  -5.710  0.00  0.00     0.249 C 
HETATM    3  N           1     -20.898  -6.665  -4.871  0.00  0.00    -0.345 N 
HETATM    4  O           1     -22.651  -5.562  -5.706  0.00  0.00    -0.271 OA
ENDROOT
BRANCH   2   5
HETATM    5  C           1     -20.578  -4.940  -6.642  0.00  0.00     0.274 C 
BRANCH   5   6
HETATM    6  N           1     -20.013  -5.847  -7.694  0.00  0.00    -0.067 N 
HETATM    7  H           1     -18.972  -5.750  -7.716  0.00  0.00     0.275 HD
HETATM    8  H           1     -20.407  -5.587  -8.627  0.00  0.00     0.275 HD
HETATM    9  H           1     -20.265  -6.837  -7.474  0.00  0.00     0.275 HD
ENDBRANCH   5   6
BRANCH   5  10
HETATM   10  C           1     -21.404  -3.846  -7.305  0.00  0.00     0.044 C 
BRANCH  10  11
HETATM   11  C           1     -21.487  -4.110  -8.804  0.00  0.00     0.030 C 
BRANCH  11  12
HETATM   12  C           1     -22.947  -4.243  -9.216  0.00  0.00     0.230 C 
BRANCH  12  13
HETATM   13  N           1     -23.826  -4.048  -8.017  0.00  0.00    -0.079 N 
HETATM   14  H           1     -24.799  -4.355  -8.243  0.00  0.00     0.274 HD
HETATM   15  H           1     -23.832  -3.037  -7.751  0.00  0.00     0.274 HD
HETATM   16  H           1     -23.459  -4.616  -7.220  0.00  0.00     0.274 HD
ENDBRANCH  12  13
ENDBRANCH  11  12
ENDBRANCH  10  11
ENDBRANCH   5  10
ENDBRANCH   2   5
BRANCH   3  17
HETATM   17  C           1     -21.742  -7.432  -3.975  0.00  0.00     0.185 C 
BRANCH  17  18
HETATM   18  C           1     -21.293  -8.888  -3.977  0.00  0.00     0.036 C 
BRANCH  18  19
HETATM   19  C           1     -20.191  -9.079  -5.010  0.00  0.00     0.003 C 
BRANCH  19  20
HETATM   20 Se           1     -18.512  -9.478  -4.103  0.00  0.00     0.000 Se
HETATM   21  C           1     -17.537  -9.892  -5.739  0.00  0.00     0.000 C 
ENDBRANCH  19  20
ENDBRANCH  18  19
ENDBRANCH  17  18
BRANCH  17  22
HETATM   22  C           1     -21.632  -6.874  -2.578  0.00  0.00     0.196 C 
HETATM   23  O           1     -20.827  -7.377  -1.765  0.00  0.00    -0.646 OA
HETATM   24  O           1     -22.345  -5.906  -2.233  0.00  0.00    -0.646 OA
ENDBRANCH  17  22
ENDBRANCH   3  17
TORSDOF 11
ENDMDL
MODEL 4
REMARK VINA RESULT:      -5.2     12.880     15.171
REMARK  11 active torsions:
REMARK  status: ('A' for Active; 'I' for Inactive)
REMARK    1  A    between atoms: C_3  and  C_19 
REMARK    2  A    between atoms: C_3  and  C_17 
REMARK    3  A    between atoms: C_3  and  N_11 
REMARK    4  A    between atoms: Se_6  and  C_20 
REMARK    5  A    between atoms: N_7  and  C_8 
REMARK    6  A    between atoms: C_8  and  C_24 
REMARK       I    between atoms: C_10  and  N_11 
REMARK    7  A    between atoms: C_10  and  C_22 
REMARK    8  A    between atoms: N_16  and  C_22 
REMARK    9  A    between atoms: C_19  and  C_20 
REMARK   10  A    between atoms: C_22  and  C_23 
REMARK   11  A    between atoms: C_23  and  C_24 
ROOT
HETATM    1  H           1     -19.779  -6.782  -4.798  0.00  0.00     0.163 HD
HETATM    2  C           1     -21.383  -5.794  -5.655  0.00  0.00     0.249 C 
HETATM    3  N           1     -20.786  -6.685  -4.805  0.00  0.00    -0.345 N 
HETATM    4  O           1     -22.585  -5.678  -5.663  0.00  0.00    -0.271 OA
ENDROOT
BRANCH   2   5
HETATM    5  C           1     -20.538  -4.956  -6.584  0.00  0.00     0.274 C 
BRANCH   5   6
HETATM    6  N           1     -19.983  -5.824  -7.672  0.00  0.00    -0.067 N 
HETATM    7  H           1     -18.948  -5.688  -7.733  0.00  0.00     0.275 HD
HETATM    8  H           1     -20.423  -5.565  -8.584  0.00  0.00     0.275 HD
HETATM    9  H           1     -20.190  -6.826  -7.459  0.00  0.00     0.275 HD
ENDBRANCH   5   6
BRANCH   5  10
HETATM   10  C           1     -21.395  -3.857  -7.198  0.00  0.00     0.044 C 
BRANCH  10  11
HETATM   11  C           1     -21.475  -4.059  -8.706  0.00  0.00     0.030 C 
BRANCH  11  12
HETATM   12  C           1     -22.934  -4.054  -9.143  0.00  0.00     0.230 C 
BRANCH  12  13
HETATM   13  N           1     -23.819  -4.077  -7.932  0.00  0.00    -0.079 N 
HETATM   14  H           1     -24.807  -3.890  -8.218  0.00  0.00     0.274 HD
HETATM   15  H           1     -23.506  -3.343  -7.258  0.00  0.00     0.274 HD
HETATM   16  H           1     -23.761  -5.017  -7.477  0.00  0.00     0.274 HD
ENDBRANCH  12  13
ENDBRANCH  11  12
ENDBRANCH  10  11
ENDBRANCH   5  10
ENDBRANCH   2   5
BRANCH   3  17
HETATM   17  C           1     -21.598  -7.489  -3.912  0.00  0.00     0.185 C 
BRANCH  17  18
HETATM   18  C           1     -21.015  -8.894  -3.823  0.00  0.00     0.036 C 
BRANCH  18  19
HETATM   19  C           1     -19.680  -8.938  -4.554  0.00  0.00     0.003 C 
BRANCH  19  20
HETATM   20 Se           1     -18.285  -9.525  -3.325  0.00  0.00     0.000 Se
HETATM   21  C           1     -19.499 -10.501  -2.154  0.00  0.00     0.000 C 
ENDBRANCH  19  20
ENDBRANCH  18  19
ENDBRANCH  17  18
BRANCH  17  22
HETATM   22  C           1     -21.611  -6.861  -2.541  0.00  0.00     0.196 C 
HETATM   23  O           1     -22.388  -5.913  -2.294  0.00  0.00    -0.646 OA
HETATM   24  O           1     -20.847  -7.290  -1.649  0.00  0.00    -0.646 OA
ENDBRANCH  17  22
ENDBRANCH   3  17
TORSDOF 11
ENDMDL
MODEL 5
REMARK VINA RESULT:      -5.1     10.805     12.987
REMARK  11 active torsions:
REMARK  status: ('A' for Active; 'I' for Inactive)
REMARK    1  A    between atoms: C_3  and  C_19 
REMARK    2  A    between atoms: C_3  and  C_17 
REMARK    3  A    between atoms: C_3  and  N_11 
REMARK    4  A    between atoms: Se_6  and  C_20 
REMARK    5  A    between atoms: N_7  and  C_8 
REMARK    6  A    between atoms: C_8  and  C_24 
REMARK       I    between atoms: C_10  and  N_11 
REMARK    7  A    between atoms: C_10  and  C_22 
REMARK    8  A    between atoms: N_16  and  C_22 
REMARK    9  A    between atoms: C_19  and  C_20 
REMARK   10  A    between atoms: C_22  and  C_23 
REMARK   11  A    between atoms: C_23  and  C_24 
ROOT
HETATM    1  H           1     -37.058  -1.293 -13.372  0.00  0.00     0.163 HD
HETATM    2  C           1     -35.959   0.330 -14.036  0.00  0.00     0.249 C 
HETATM    3  N           1     -36.269  -0.690 -13.178  0.00  0.00    -0.345 N 
HETATM    4  O           1     -35.018   1.050 -13.805  0.00  0.00    -0.271 OA
ENDROOT
BRANCH   2   5
HETATM    5  C           1     -36.794   0.554 -15.273  0.00  0.00     0.274 C 
BRANCH   5   6
HETATM    6  N           1     -36.250   1.725 -16.036  0.00  0.00    -0.067 N 
HETATM    7  H           1     -36.051   1.438 -17.021  0.00  0.00     0.275 HD
HETATM    8  H           1     -35.368   2.056 -15.584  0.00  0.00     0.275 HD
HETATM    9  H           1     -36.953   2.499 -16.034  0.00  0.00     0.275 HD
ENDBRANCH   5   6
BRANCH   5  10
HETATM   10  C           1     -36.747  -0.689 -16.151  0.00  0.00     0.044 C 
BRANCH  10  11
HETATM   11  C           1     -35.309  -0.950 -16.585  0.00  0.00     0.030 C 
BRANCH  11  12
HETATM   12  C           1     -35.055  -2.451 -16.624  0.00  0.00     0.230 C 
BRANCH  12  13
HETATM   13  N           1     -33.817  -2.729 -17.424  0.00  0.00    -0.079 N 
HETATM   14  H           1     -33.730  -3.758 -17.586  0.00  0.00     0.274 HD
HETATM   15  H           1     -32.980  -2.386 -16.901  0.00  0.00     0.274 HD
HETATM   16  H           1     -33.879  -2.236 -18.344  0.00  0.00     0.274 HD
ENDBRANCH  12  13
ENDBRANCH  11  12
ENDBRANCH  10  11
ENDBRANCH   5  10
ENDBRANCH   2   5
BRANCH   3  17
HETATM   17  C           1     -35.466  -0.906 -11.990  0.00  0.00     0.185 C 
BRANCH  17  18
HETATM   18  C           1     -36.380  -1.198 -10.806  0.00  0.00     0.036 C 
BRANCH  18  19
HETATM   19  C           1     -37.544  -0.217 -10.807  0.00  0.00     0.003 C 
BRANCH  19  20
HETATM   20 Se           1     -37.321   1.058  -9.348  0.00  0.00     0.000 Se
HETATM   21  C           1     -37.725  -0.230  -7.943  0.00  0.00     0.000 C 
ENDBRANCH  19  20
ENDBRANCH  18  19
ENDBRANCH  17  18
BRANCH  17  22
HETATM   22  C           1     -34.541  -2.076 -12.213  0.00  0.00     0.196 C 
HETATM   23  O           1     -34.650  -2.770 -13.247  0.00  0.00    -0.646 OA
HETATM   24  O           1     -33.666  -2.353 -11.365  0.00  0.00    -0.646 OA
ENDBRANCH  17  22
ENDBRANCH   3  17
TORSDOF 11
ENDMDL
MODEL 6
REMARK VINA RESULT:      -5.1     11.906     13.948
REMARK  11 active torsions:
REMARK  status: ('A' for Active; 'I' for Inactive)
REMARK    1  A    between atoms: C_3  and  C_19 
REMARK    2  A    between atoms: C_3  and  C_17 
REMARK    3  A    between atoms: C_3  and  N_11 
REMARK    4  A    between atoms: Se_6  and  C_20 
REMARK    5  A    between atoms: N_7  and  C_8 
REMARK    6  A    between atoms: C_8  and  C_24 
REMARK       I    between atoms: C_10  and  N_11 
REMARK    7  A    between atoms: C_10  and  C_22 
REMARK    8  A    between atoms: N_16  and  C_22 
REMARK    9  A    between atoms: C_19  and  C_20 
REMARK   10  A    between atoms: C_22  and  C_23 
REMARK   11  A    between atoms: C_23  and  C_24 
ROOT
HETATM    1  H           1     -21.537  -7.172  -7.180  0.00  0.00     0.163 HD
HETATM    2  C           1     -21.025  -5.198  -6.828  0.00  0.00     0.249 C 
HETATM    3  N           1     -21.146  -6.523  -6.509  0.00  0.00    -0.345 N 
HETATM    4  O           1     -20.559  -4.423  -6.028  0.00  0.00    -0.271 OA
ENDROOT
BRANCH   2   5
HETATM    5  C           1     -21.474  -4.705  -8.182  0.00  0.00     0.274 C 
BRANCH   5   6
HETATM    6  N           1     -22.514  -3.639  -8.004  0.00  0.00    -0.067 N 
HETATM    7  H           1     -22.085  -2.701  -8.177  0.00  0.00     0.275 HD
HETATM    8  H           1     -22.890  -3.677  -7.030  0.00  0.00     0.275 HD
HETATM    9  H           1     -23.293  -3.795  -8.684  0.00  0.00     0.275 HD
ENDBRANCH   5   6
BRANCH   5  10
HETATM   10  C           1     -20.282  -4.130  -8.935  0.00  0.00     0.044 C 
BRANCH  10  11
HETATM   11  C           1     -20.385  -4.501 -10.409  0.00  0.00     0.030 C 
BRANCH  11  12
HETATM   12  C           1     -21.044  -3.363 -11.176  0.00  0.00     0.230 C 
BRANCH  12  13
HETATM   13  N           1     -21.437  -3.841 -12.542  0.00  0.00    -0.079 N 
HETATM   14  H           1     -22.422  -3.553 -12.743  0.00  0.00     0.274 HD
HETATM   15  H           1     -21.363  -4.882 -12.582  0.00  0.00     0.274 HD
HETATM   16  H           1     -20.800  -3.418 -13.255  0.00  0.00     0.274 HD
ENDBRANCH  12  13
ENDBRANCH  11  12
ENDBRANCH  10  11
ENDBRANCH   5  10
ENDBRANCH   2   5
BRANCH   3  17
HETATM   17  C           1     -20.714  -6.997  -5.208  0.00  0.00     0.185 C 
BRANCH  17  18
HETATM   18  C           1     -21.877  -6.917  -4.226  0.00  0.00     0.036 C 
BRANCH  18  19
HETATM   19  C           1     -21.384  -6.353  -2.901  0.00  0.00     0.003 C 
BRANCH  19  20
HETATM   20 Se           1     -21.051  -7.816  -1.655  0.00  0.00     0.000 Se
HETATM   21  C           1     -22.489  -7.322  -0.435  0.00  0.00     0.000 C 
ENDBRANCH  19  20
ENDBRANCH  18  19
ENDBRANCH  17  18
BRANCH  17  22
HETATM   22  C           1     -20.250  -8.428  -5.323  0.00  0.00     0.196 C 
HETATM   23  O           1     -20.993  -9.286  -5.846  0.00  0.00    -0.646 OA
HETATM   24  O           1     -19.122  -8.756  -4.895  0.00  0.00    -0.646 OA
ENDBRANCH  17  22
ENDBRANCH   3  17
TORSDOF 11
ENDMDL
MODEL 7
REMARK VINA RESULT:      -4.8     13.100     15.729
REMARK  11 active torsions:
REMARK  status: ('A' for Active; 'I' for Inactive)
REMARK    1  A    between atoms: C_3  and  C_19 
REMARK    2  A    between atoms: C_3  and  C_17 
REMARK    3  A    between atoms: C_3  and  N_11 
REMARK    4  A    between atoms: Se_6  and  C_20 
REMARK    5  A    between atoms: N_7  and  C_8 
REMARK    6  A    between atoms: C_8  and  C_24 
REMARK       I    between atoms: C_10  and  N_11 
REMARK    7  A    between atoms: C_10  and  C_22 
REMARK    8  A    between atoms: N_16  and  C_22 
REMARK    9  A    between atoms: C_19  and  C_20 
REMARK   10  A    between atoms: C_22  and  C_23 
REMARK   11  A    between atoms: C_23  and  C_24 
ROOT
HETATM    1  H           1     -20.392  -4.659  -4.564  0.00  0.00     0.163 HD
HETATM    2  C           1     -21.471  -6.387  -4.199  0.00  0.00     0.249 C 
HETATM    3  N           1     -20.928  -5.406  -4.985  0.00  0.00    -0.345 N 
HETATM    4  O           1     -22.110  -7.280  -4.702  0.00  0.00    -0.271 OA
ENDROOT
BRANCH   2   5
HETATM    5  C           1     -21.270  -6.353  -2.704  0.00  0.00     0.274 C 
BRANCH   5   6
HETATM    6  N           1     -22.502  -5.805  -2.048  0.00  0.00    -0.067 N 
HETATM    7  H           1     -23.181  -5.498  -2.781  0.00  0.00     0.275 HD
HETATM    8  H           1     -22.243  -4.989  -1.448  0.00  0.00     0.275 HD
HETATM    9  H           1     -22.941  -6.546  -1.456  0.00  0.00     0.275 HD
ENDBRANCH   5   6
BRANCH   5  10
HETATM   10  C           1     -21.008  -7.764  -2.194  0.00  0.00     0.044 C 
BRANCH  10  11
HETATM   11  C           1     -21.941  -8.062  -1.026  0.00  0.00     0.030 C 
BRANCH  11  12
HETATM   12  C           1     -21.117  -8.431   0.200  0.00  0.00     0.230 C 
BRANCH  12  13
HETATM   13  N           1     -21.260  -9.898   0.477  0.00  0.00    -0.079 N 
HETATM   14  H           1     -22.057 -10.054   1.135  0.00  0.00     0.274 HD
HETATM   15  H           1     -20.378 -10.259   0.907  0.00  0.00     0.274 HD
HETATM   16  H           1     -21.444 -10.405  -0.418  0.00  0.00     0.274 HD
ENDBRANCH  12  13
ENDBRANCH  11  12
ENDBRANCH  10  11
ENDBRANCH   5  10
ENDBRANCH   2   5
BRANCH   3  17
HETATM   17  C           1     -21.121  -5.440  -6.422  0.00  0.00     0.185 C 
BRANCH  17  18
HETATM   18  C           1     -21.624  -4.083  -6.898  0.00  0.00     0.036 C 
BRANCH  18  19
HETATM   19  C           1     -22.847  -4.277  -7.784  0.00  0.00     0.003 C 
BRANCH  19  20
HETATM   20 Se           1     -22.315  -4.183  -9.657  0.00  0.00     0.000 Se
HETATM   21  C           1     -24.073  -4.663 -10.350  0.00  0.00     0.000 C 
ENDBRANCH  19  20
ENDBRANCH  18  19
ENDBRANCH  17  18
BRANCH  17  22
HETATM   22  C           1     -19.810  -5.756  -7.098  0.00  0.00     0.196 C 
HETATM   23  O           1     -19.204  -4.867  -7.735  0.00  0.00    -0.646 OA
HETATM   24  O           1     -19.328  -6.907  -7.022  0.00  0.00    -0.646 OA
ENDBRANCH  17  22
ENDBRANCH   3  17
TORSDOF 11
ENDMDL
MODEL 8
REMARK VINA RESULT:      -4.5     11.184     14.001
REMARK  11 active torsions:
REMARK  status: ('A' for Active; 'I' for Inactive)
REMARK    1  A    between atoms: C_3  and  C_19 
REMARK    2  A    between atoms: C_3  and  C_17 
REMARK    3  A    between atoms: C_3  and  N_11 
REMARK    4  A    between atoms: Se_6  and  C_20 
REMARK    5  A    between atoms: N_7  and  C_8 
REMARK    6  A    between atoms: C_8  and  C_24 
REMARK       I    between atoms: C_10  and  N_11 
REMARK    7  A    between atoms: C_10  and  C_22 
REMARK    8  A    between atoms: N_16  and  C_22 
REMARK    9  A    between atoms: C_19  and  C_20 
REMARK   10  A    between atoms: C_22  and  C_23 
REMARK   11  A    between atoms: C_23  and  C_24 
ROOT
HETATM    1  H           1     -35.883  -2.383 -12.626  0.00  0.00     0.163 HD
HETATM    2  C           1     -34.953  -1.600 -10.951  0.00  0.00     0.249 C 
HETATM    3  N           1     -35.188  -2.548 -11.910  0.00  0.00    -0.345 N 
HETATM    4  O           1     -34.122  -1.797 -10.097  0.00  0.00    -0.271 OA
ENDROOT
BRANCH   2   5
HETATM    5  C           1     -35.732  -0.307 -10.962  0.00  0.00     0.274 C 
BRANCH   5   6
HETATM    6  N           1     -35.488   0.410 -12.256  0.00  0.00    -0.067 N 
HETATM    7  H           1     -36.113   1.246 -12.315  0.00  0.00     0.275 HD
HETATM    8  H           1     -35.689  -0.233 -13.055  0.00  0.00     0.275 HD
HETATM    9  H           1     -34.490   0.719 -12.301  0.00  0.00     0.275 HD
ENDBRANCH   5   6
BRANCH   5  10
HETATM   10  C           1     -37.218  -0.608 -10.821  0.00  0.00     0.044 C 
BRANCH  10  11
HETATM   11  C           1     -37.660  -0.324  -9.391  0.00  0.00     0.030 C 
BRANCH  11  12
HETATM   12  C           1     -36.908   0.888  -8.858  0.00  0.00     0.230 C 
BRANCH  12  13
HETATM   13  N           1     -37.832   2.068  -8.806  0.00  0.00    -0.079 N 
HETATM   14  H           1     -38.526   2.003  -9.585  0.00  0.00     0.274 HD
HETATM   15  H           1     -37.278   2.948  -8.904  0.00  0.00     0.274 HD
HETATM   16  H           1     -38.338   2.074  -7.890  0.00  0.00     0.274 HD
ENDBRANCH  12  13
ENDBRANCH  11  12
ENDBRANCH  10  11
ENDBRANCH   5  10
ENDBRANCH   2   5
BRANCH   3  17
HETATM   17  C           1     -34.438  -3.790 -11.899  0.00  0.00     0.185 C 
BRANCH  17  18
HETATM   18  C           1     -35.098  -4.773 -10.940  0.00  0.00     0.036 C 
BRANCH  18  19
HETATM   19  C           1     -34.111  -5.876 -10.584  0.00  0.00     0.003 C 
BRANCH  19  20
HETATM   20 Se           1     -35.064  -7.357  -9.748  0.00  0.00     0.000 Se
HETATM   21  C           1     -33.681  -8.676 -10.128  0.00  0.00     0.000 C 
ENDBRANCH  19  20
ENDBRANCH  18  19
ENDBRANCH  17  18
BRANCH  17  22
HETATM   22  C           1     -34.419  -4.378 -13.288  0.00  0.00     0.196 C 
HETATM   23  O           1     -33.697  -3.869 -14.173  0.00  0.00    -0.646 OA
HETATM   24  O           1     -35.124  -5.375 -13.555  0.00  0.00    -0.646 OA
ENDBRANCH  17  22
ENDBRANCH   3  17
TORSDOF 11
ENDMDL
MODEL 9
REMARK VINA RESULT:      -4.5     14.591     16.791
REMARK  11 active torsions:
REMARK  status: ('A' for Active; 'I' for Inactive)
REMARK    1  A    between atoms: C_3  and  C_19 
REMARK    2  A    between atoms: C_3  and  C_17 
REMARK    3  A    between atoms: C_3  and  N_11 
REMARK    4  A    between atoms: Se_6  and  C_20 
REMARK    5  A    between atoms: N_7  and  C_8 
REMARK    6  A    between atoms: C_8  and  C_24 
REMARK       I    between atoms: C_10  and  N_11 
REMARK    7  A    between atoms: C_10  and  C_22 
REMARK    8  A    between atoms: N_16  and  C_22 
REMARK    9  A    between atoms: C_19  and  C_20 
REMARK   10  A    between atoms: C_22  and  C_23 
REMARK   11  A    between atoms: C_23  and  C_24 
ROOT
HETATM    1  H           1     -20.097  -7.219  -2.375  0.00  0.00     0.163 HD
HETATM    2  C           1     -21.010  -8.112  -4.003  0.00  0.00     0.249 C 
HETATM    3  N           1     -20.832  -7.847  -2.672  0.00  0.00    -0.345 N 
HETATM    4  O           1     -21.888  -8.862  -4.357  0.00  0.00    -0.271 OA
ENDROOT
BRANCH   2   5
HETATM    5  C           1     -20.109  -7.467  -5.027  0.00  0.00     0.274 C 
BRANCH   5   6
HETATM    6  N           1     -19.382  -8.533  -5.793  0.00  0.00    -0.067 N 
HETATM    7  H           1     -18.690  -8.088  -6.438  0.00  0.00     0.275 HD
HETATM    8  H           1     -20.068  -9.092  -6.349  0.00  0.00     0.275 HD
HETATM    9  H           1     -18.881  -9.162  -5.125  0.00  0.00     0.275 HD
ENDBRANCH   5   6
BRANCH   5  10
HETATM   10  C           1     -20.946  -6.634  -5.988  0.00  0.00     0.044 C 
BRANCH  10  11
HETATM   11  C           1     -20.747  -5.154  -5.682  0.00  0.00     0.030 C 
BRANCH  11  12
HETATM   12  C           1     -20.532  -4.391  -6.982  0.00  0.00     0.230 C 
BRANCH  12  13
HETATM   13  N           1     -21.643  -3.400  -7.171  0.00  0.00    -0.079 N 
HETATM   14  H           1     -22.459  -3.674  -6.578  0.00  0.00     0.274 HD
HETATM   15  H           1     -21.931  -3.388  -8.175  0.00  0.00     0.274 HD
HETATM   16  H           1     -21.312  -2.449  -6.891  0.00  0.00     0.274 HD
ENDBRANCH  12  13
ENDBRANCH  11  12
ENDBRANCH  10  11
ENDBRANCH   5  10
ENDBRANCH   2   5
BRANCH   3  17
HETATM   17  C           1     -21.699  -8.466  -1.688  0.00  0.00     0.185 C 
BRANCH  17  18
HETATM   18  C           1     -20.889  -9.438  -0.838  0.00  0.00     0.036 C 
BRANCH  18  19
HETATM   19  C           1     -21.244 -10.867  -1.222  0.00  0.00     0.003 C 
BRANCH  19  20
HETATM   20 Se           1     -22.188 -11.722   0.255  0.00  0.00     0.000 Se
HETATM   21  C           1     -23.931 -10.991  -0.220  0.00  0.00     0.000 C 
ENDBRANCH  19  20
ENDBRANCH  18  19
ENDBRANCH  17  18
BRANCH  17  22
HETATM   22  C           1     -22.297  -7.401  -0.803  0.00  0.00     0.196 C 
HETATM   23  O           1     -22.465  -6.243  -1.244  0.00  0.00    -0.646 OA
HETATM   24  O           1     -22.627  -7.675   0.371  0.00  0.00    -0.646 OA
ENDBRANCH  17  22
ENDBRANCH   3  17
TORSDOF 11
ENDMDL
