MODEL 1
REMARK VINA RESULT:      -5.5      0.000      0.000
REMARK  6 active torsions:
REMARK  status: ('A' for Active; 'I' for Inactive)
REMARK       I    between atoms: C_3  and  N_11 
REMARK    1  A    between atoms: C_3  and  C_7 
REMARK    2  A    between atoms: C_7  and  C_8 
REMARK    3  A    between atoms: C_7  and  N_14 
REMARK    4  A    between atoms: C_8  and  C_16 
REMARK    5  A    between atoms: C_10  and  C_13 
REMARK    6  A    between atoms: C_10  and  N_11 
ROOT
HETATM    1  C           1     -21.902  -3.619 -10.591  0.00  0.00     0.284 C 
ENDROOT
BRANCH   1   2
HETATM    2  C           1     -21.098  -4.119  -9.416  0.00  0.00     0.249 C 
HETATM    3  N           1     -21.530  -3.881  -8.139  0.00  0.00    -0.349 N 
HETATM    4  H           1     -22.389  -3.369  -7.983  0.00  0.00     0.163 HD
HETATM    5  O           1     -20.072  -4.730  -9.602  0.00  0.00    -0.271 OA
BRANCH   3   6
HETATM    6  C           1     -20.757  -4.362  -7.010  0.00  0.00     0.235 C 
BRANCH   6   7
HETATM    7  C           1     -21.358  -5.648  -6.499  0.00  0.00     0.191 C 
HETATM    8  O           1     -20.915  -6.746  -6.897  0.00  0.00    -0.647 OA
HETATM    9  O           1     -22.300  -5.614  -5.677  0.00  0.00    -0.647 OA
ENDBRANCH   6   7
ENDBRANCH   3   6
ENDBRANCH   1   2
BRANCH   1  10
HETATM   10  C           1     -23.190  -4.424 -10.705  0.00  0.00     0.155 C 
BRANCH  10  11
HETATM   11  C           1     -24.353  -3.582 -10.239  0.00  0.00     0.175 C 
HETATM   12  O           1     -24.461  -3.282  -9.030  0.00  0.00    -0.648 OA
HETATM   13  O           1     -25.206  -3.184 -11.060  0.00  0.00    -0.648 OA
ENDBRANCH  10  11
ENDBRANCH   1  10
BRANCH   1  14
HETATM   14  N           1     -21.101  -3.779 -11.848  0.00  0.00    -0.066 N 
HETATM   15  H           1     -20.886  -4.790 -11.999  0.00  0.00     0.275 HD
HETATM   16  H           1     -21.651  -3.415 -12.660  0.00  0.00     0.275 HD
HETATM   17  H           1     -20.208  -3.241 -11.763  0.00  0.00     0.275 HD
ENDBRANCH   1  14
TORSDOF 6
ENDMDL
MODEL 2
REMARK VINA RESULT:      -5.3      2.348      2.792
REMARK  6 active torsions:
REMARK  status: ('A' for Active; 'I' for Inactive)
REMARK       I    between atoms: C_3  and  N_11 
REMARK    1  A    between atoms: C_3  and  C_7 
REMARK    2  A    between atoms: C_7  and  C_8 
REMARK    3  A    between atoms: C_7  and  N_14 
REMARK    4  A    between atoms: C_8  and  C_16 
REMARK    5  A    between atoms: C_10  and  C_13 
REMARK    6  A    between atoms: C_10  and  N_11 
ROOT
HETATM    1  C           1     -22.345  -4.506  -8.834  0.00  0.00     0.284 C 
ENDROOT
BRANCH   1   2
HETATM    2  C           1     -21.710  -4.429  -7.467  0.00  0.00     0.249 C 
HETATM    3  N           1     -21.611  -5.554  -6.694  0.00  0.00    -0.349 N 
HETATM    4  H           1     -21.964  -6.438  -7.038  0.00  0.00     0.163 HD
HETATM    5  O           1     -21.288  -3.374  -7.055  0.00  0.00    -0.271 OA
BRANCH   3   6
HETATM    6  C           1     -21.001  -5.480  -5.380  0.00  0.00     0.235 C 
BRANCH   6   7
HETATM    7  C           1     -21.717  -6.416  -4.438  0.00  0.00     0.191 C 
HETATM    8  O           1     -22.034  -6.027  -3.293  0.00  0.00    -0.647 OA
HETATM    9  O           1     -21.994  -7.579  -4.802  0.00  0.00    -0.647 OA
ENDBRANCH   6   7
ENDBRANCH   3   6
ENDBRANCH   1   2
BRANCH   1  10
HETATM   10  C           1     -21.284  -4.272  -9.901  0.00  0.00     0.155 C 
BRANCH  10  11
HETATM   11  C           1     -21.941  -3.765 -11.162  0.00  0.00     0.175 C 
HETATM   12  O           1     -22.725  -4.504 -11.798  0.00  0.00    -0.648 OA
HETATM   13  O           1     -21.703  -2.609 -11.569  0.00  0.00    -0.648 OA
ENDBRANCH  10  11
ENDBRANCH   1  10
BRANCH   1  14
HETATM   14  N           1     -23.409  -3.455  -8.949  0.00  0.00    -0.066 N 
HETATM   15  H           1     -24.331  -3.860  -8.672  0.00  0.00     0.275 HD
HETATM   16  H           1     -23.177  -2.654  -8.318  0.00  0.00     0.275 HD
HETATM   17  H           1     -23.459  -3.117  -9.937  0.00  0.00     0.275 HD
ENDBRANCH   1  14
TORSDOF 6
ENDMDL
MODEL 3
REMARK VINA RESULT:      -5.2      1.626      5.170
REMARK  6 active torsions:
REMARK  status: ('A' for Active; 'I' for Inactive)
REMARK       I    between atoms: C_3  and  N_11 
REMARK    1  A    between atoms: C_3  and  C_7 
REMARK    2  A    between atoms: C_7  and  C_8 
REMARK    3  A    between atoms: C_7  and  N_14 
REMARK    4  A    between atoms: C_8  and  C_16 
REMARK    5  A    between atoms: C_10  and  C_13 
REMARK    6  A    between atoms: C_10  and  N_11 
ROOT
HETATM    1  C           1     -21.280  -4.747  -6.594  0.00  0.00     0.284 C 
ENDROOT
BRANCH   1   2
HETATM    2  C           1     -21.468  -4.316  -8.029  0.00  0.00     0.249 C 
HETATM    3  N           1     -22.639  -3.724  -8.417  0.00  0.00    -0.349 N 
HETATM    4  H           1     -23.380  -3.575  -7.744  0.00  0.00     0.163 HD
HETATM    5  O           1     -20.585  -4.493  -8.834  0.00  0.00    -0.271 OA
BRANCH   3   6
HETATM    6  C           1     -22.820  -3.310  -9.796  0.00  0.00     0.235 C 
BRANCH   6   7
HETATM    7  C           1     -24.056  -3.965 -10.361  0.00  0.00     0.191 C 
HETATM    8  O           1     -24.129  -5.211 -10.427  0.00  0.00    -0.647 OA
HETATM    9  O           1     -25.008  -3.261 -10.763  0.00  0.00    -0.647 OA
ENDBRANCH   6   7
ENDBRANCH   3   6
ENDBRANCH   1   2
BRANCH   1  10
HETATM   10  C           1     -20.211  -5.830  -6.525  0.00  0.00     0.155 C 
BRANCH  10  11
HETATM   11  C           1     -20.707  -6.973  -5.673  0.00  0.00     0.175 C 
HETATM   12  O           1     -20.616  -6.909  -4.428  0.00  0.00    -0.648 OA
HETATM   13  O           1     -21.210  -7.982  -6.213  0.00  0.00    -0.648 OA
ENDBRANCH  10  11
ENDBRANCH   1  10
BRANCH   1  14
HETATM   14  N           1     -22.573  -5.287  -6.062  0.00  0.00    -0.066 N 
HETATM   15  H           1     -22.389  -6.160  -5.518  0.00  0.00     0.275 HD
HETATM   16  H           1     -23.017  -4.575  -5.438  0.00  0.00     0.275 HD
HETATM   17  H           1     -23.215  -5.501  -6.858  0.00  0.00     0.275 HD
ENDBRANCH   1  14
TORSDOF 6
ENDMDL
MODEL 4
REMARK VINA RESULT:      -5.1      1.828      2.183
REMARK  6 active torsions:
REMARK  status: ('A' for Active; 'I' for Inactive)
REMARK       I    between atoms: C_3  and  N_11 
REMARK    1  A    between atoms: C_3  and  C_7 
REMARK    2  A    between atoms: C_7  and  C_8 
REMARK    3  A    between atoms: C_7  and  N_14 
REMARK    4  A    between atoms: C_8  and  C_16 
REMARK    5  A    between atoms: C_10  and  C_13 
REMARK    6  A    between atoms: C_10  and  N_11 
ROOT
HETATM    1  C           1     -22.684  -3.867  -8.898  0.00  0.00     0.284 C 
ENDROOT
BRANCH   1   2
HETATM    2  C           1     -22.345  -4.447  -7.546  0.00  0.00     0.249 C 
HETATM    3  N           1     -21.049  -4.768  -7.244  0.00  0.00    -0.349 N 
HETATM    4  H           1     -20.318  -4.616  -7.927  0.00  0.00     0.163 HD
HETATM    5  O           1     -23.218  -4.629  -6.731  0.00  0.00    -0.271 OA
BRANCH   3   6
HETATM    6  C           1     -20.724  -5.326  -5.945  0.00  0.00     0.235 C 
BRANCH   6   7
HETATM    7  C           1     -20.495  -6.811  -6.077  0.00  0.00     0.191 C 
HETATM    8  O           1     -21.446  -7.606  -5.921  0.00  0.00    -0.647 OA
HETATM    9  O           1     -19.353  -7.246  -6.344  0.00  0.00    -0.647 OA
ENDBRANCH   6   7
ENDBRANCH   3   6
ENDBRANCH   1   2
BRANCH   1  10
HETATM   10  C           1     -23.773  -4.707  -9.553  0.00  0.00     0.155 C 
BRANCH  10  11
HETATM   11  C           1     -24.190  -4.064 -10.853  0.00  0.00     0.175 C 
HETATM   12  O           1     -25.028  -3.136 -10.850  0.00  0.00    -0.648 OA
HETATM   13  O           1     -23.697  -4.458 -11.932  0.00  0.00    -0.648 OA
ENDBRANCH  10  11
ENDBRANCH   1  10
BRANCH   1  14
HETATM   14  N           1     -21.460  -3.873  -9.764  0.00  0.00    -0.066 N 
HETATM   15  H           1     -20.680  -3.385  -9.269  0.00  0.00     0.275 HD
HETATM   16  H           1     -21.181  -4.859  -9.966  0.00  0.00     0.275 HD
HETATM   17  H           1     -21.666  -3.378 -10.661  0.00  0.00     0.275 HD
ENDBRANCH   1  14
TORSDOF 6
ENDMDL
MODEL 5
REMARK VINA RESULT:      -5.1      3.650      5.551
REMARK  6 active torsions:
REMARK  status: ('A' for Active; 'I' for Inactive)
REMARK       I    between atoms: C_3  and  N_11 
REMARK    1  A    between atoms: C_3  and  C_7 
REMARK    2  A    between atoms: C_7  and  C_8 
REMARK    3  A    between atoms: C_7  and  N_14 
REMARK    4  A    between atoms: C_8  and  C_16 
REMARK    5  A    between atoms: C_10  and  C_13 
REMARK    6  A    between atoms: C_10  and  N_11 
ROOT
HETATM    1  C           1     -20.469  -6.131  -5.493  0.00  0.00     0.284 C 
ENDROOT
BRANCH   1   2
HETATM    2  C           1     -21.555  -6.161  -4.445  0.00  0.00     0.249 C 
HETATM    3  N           1     -21.224  -6.158  -3.117  0.00  0.00    -0.349 N 
HETATM    4  H           1     -20.252  -6.136  -2.837  0.00  0.00     0.163 HD
HETATM    5  O           1     -22.715  -6.188  -4.778  0.00  0.00    -0.271 OA
BRANCH   3   6
HETATM    6  C           1     -22.268  -6.187  -2.110  0.00  0.00     0.235 C 
BRANCH   6   7
HETATM    7  C           1     -21.961  -7.263  -1.097  0.00  0.00     0.191 C 
HETATM    8  O           1     -20.891  -7.904  -1.170  0.00  0.00    -0.647 OA
HETATM    9  O           1     -22.778  -7.512  -0.184  0.00  0.00    -0.647 OA
ENDBRANCH   6   7
ENDBRANCH   3   6
ENDBRANCH   1   2
BRANCH   1  10
HETATM   10  C           1     -20.040  -4.690  -5.740  0.00  0.00     0.155 C 
BRANCH  10  11
HETATM   11  C           1     -20.583  -4.224  -7.069  0.00  0.00     0.175 C 
HETATM   12  O           1     -19.837  -4.199  -8.073  0.00  0.00    -0.648 OA
HETATM   13  O           1     -21.775  -3.866  -7.166  0.00  0.00    -0.648 OA
ENDBRANCH  10  11
ENDBRANCH   1  10
BRANCH   1  14
HETATM   14  N           1     -20.990  -6.722  -6.768  0.00  0.00    -0.066 N 
HETATM   15  H           1     -22.008  -6.935  -6.664  0.00  0.00     0.275 HD
HETATM   16  H           1     -20.856  -6.040  -7.549  0.00  0.00     0.275 HD
HETATM   17  H           1     -20.470  -7.604  -6.982  0.00  0.00     0.275 HD
ENDBRANCH   1  14
TORSDOF 6
ENDMDL
MODEL 6
REMARK VINA RESULT:      -4.9      2.159      5.636
REMARK  6 active torsions:
REMARK  status: ('A' for Active; 'I' for Inactive)
REMARK       I    between atoms: C_3  and  N_11 
REMARK    1  A    between atoms: C_3  and  C_7 
REMARK    2  A    between atoms: C_7  and  C_8 
REMARK    3  A    between atoms: C_7  and  N_14 
REMARK    4  A    between atoms: C_8  and  C_16 
REMARK    5  A    between atoms: C_10  and  C_13 
REMARK    6  A    between atoms: C_10  and  N_11 
ROOT
HETATM    1  C           1     -21.286  -5.689  -6.231  0.00  0.00     0.284 C 
ENDROOT
BRANCH   1   2
HETATM    2  C           1     -22.027  -4.879  -7.267  0.00  0.00     0.249 C 
HETATM    3  N           1     -21.435  -4.596  -8.468  0.00  0.00    -0.349 N 
HETATM    4  H           1     -20.499  -4.931  -8.662  0.00  0.00     0.163 HD
HETATM    5  O           1     -23.144  -4.479  -7.036  0.00  0.00    -0.271 OA
BRANCH   3   6
HETATM    6  C           1     -22.147  -3.818  -9.463  0.00  0.00     0.235 C 
BRANCH   6   7
HETATM    7  C           1     -21.318  -3.727 -10.720  0.00  0.00     0.191 C 
HETATM    8  O           1     -20.307  -4.449 -10.856  0.00  0.00    -0.647 OA
HETATM    9  O           1     -21.642  -2.928 -11.626  0.00  0.00    -0.647 OA
ENDBRANCH   6   7
ENDBRANCH   3   6
ENDBRANCH   1   2
BRANCH   1  10
HETATM   10  C           1     -22.286  -6.346  -5.289  0.00  0.00     0.155 C 
BRANCH  10  11
HETATM   11  C           1     -21.639  -6.570  -3.944  0.00  0.00     0.175 C 
HETATM   12  O           1     -22.039  -5.933  -2.945  0.00  0.00    -0.648 OA
HETATM   13  O           1     -20.705  -7.391  -3.829  0.00  0.00    -0.648 OA
ENDBRANCH  10  11
ENDBRANCH   1  10
BRANCH   1  14
HETATM   14  N           1     -20.380  -4.787  -5.448  0.00  0.00    -0.066 N 
HETATM   15  H           1     -20.737  -4.699  -4.470  0.00  0.00     0.275 HD
HETATM   16  H           1     -19.416  -5.191  -5.431  0.00  0.00     0.275 HD
HETATM   17  H           1     -20.355  -3.843  -5.896  0.00  0.00     0.275 HD
ENDBRANCH   1  14
TORSDOF 6
ENDMDL
MODEL 7
REMARK VINA RESULT:      -4.7      2.099      2.852
REMARK  6 active torsions:
REMARK  status: ('A' for Active; 'I' for Inactive)
REMARK       I    between atoms: C_3  and  N_11 
REMARK    1  A    between atoms: C_3  and  C_7 
REMARK    2  A    between atoms: C_7  and  C_8 
REMARK    3  A    between atoms: C_7  and  N_14 
REMARK    4  A    between atoms: C_8  and  C_16 
REMARK    5  A    between atoms: C_10  and  C_13 
REMARK    6  A    between atoms: C_10  and  N_11 
ROOT
HETATM    1  C           1     -21.876  -4.639  -8.418  0.00  0.00     0.284 C 
ENDROOT
BRANCH   1   2
HETATM    2  C           1     -21.049  -5.529  -7.522  0.00  0.00     0.249 C 
HETATM    3  N           1     -21.504  -5.857  -6.274  0.00  0.00    -0.349 N 
HETATM    4  H           1     -22.396  -5.504  -5.951  0.00  0.00     0.163 HD
HETATM    5  O           1     -19.984  -5.951  -7.907  0.00  0.00    -0.271 OA
BRANCH   3   6
HETATM    6  C           1     -20.709  -6.712  -5.414  0.00  0.00     0.235 C 
BRANCH   6   7
HETATM    7  C           1     -21.413  -6.892  -4.092  0.00  0.00     0.191 C 
HETATM    8  O           1     -21.059  -7.804  -3.314  0.00  0.00    -0.647 OA
HETATM    9  O           1     -22.351  -6.129  -3.774  0.00  0.00    -0.647 OA
ENDBRANCH   6   7
ENDBRANCH   3   6
ENDBRANCH   1   2
BRANCH   1  10
HETATM   10  C           1     -21.087  -4.312  -9.679  0.00  0.00     0.155 C 
BRANCH  10  11
HETATM   11  C           1     -22.040  -3.912 -10.780  0.00  0.00     0.175 C 
HETATM   12  O           1     -21.890  -2.819 -11.368  0.00  0.00    -0.648 OA
HETATM   13  O           1     -22.976  -4.674 -11.103  0.00  0.00    -0.648 OA
ENDBRANCH  10  11
ENDBRANCH   1  10
BRANCH   1  14
HETATM   14  N           1     -22.206  -3.369  -7.693  0.00  0.00    -0.066 N 
HETATM   15  H           1     -23.044  -3.520  -7.088  0.00  0.00     0.275 HD
HETATM   16  H           1     -21.394  -3.087  -7.098  0.00  0.00     0.275 HD
HETATM   17  H           1     -22.409  -2.614  -8.387  0.00  0.00     0.275 HD
ENDBRANCH   1  14
TORSDOF 6
ENDMDL
MODEL 8
REMARK VINA RESULT:      -4.6      4.777      7.046
REMARK  6 active torsions:
REMARK  status: ('A' for Active; 'I' for Inactive)
REMARK       I    between atoms: C_3  and  N_11 
REMARK    1  A    between atoms: C_3  and  C_7 
REMARK    2  A    between atoms: C_7  and  C_8 
REMARK    3  A    between atoms: C_7  and  N_14 
REMARK    4  A    between atoms: C_8  and  C_16 
REMARK    5  A    between atoms: C_10  and  C_13 
REMARK    6  A    between atoms: C_10  and  N_11 
ROOT
HETATM    1  C           1     -21.754  -7.201  -4.482  0.00  0.00     0.284 C 
ENDROOT
BRANCH   1   2
HETATM    2  C           1     -21.691  -6.985  -2.989  0.00  0.00     0.249 C 
HETATM    3  N           1     -21.601  -8.059  -2.146  0.00  0.00    -0.349 N 
HETATM    4  H           1     -21.576  -8.998  -2.522  0.00  0.00     0.163 HD
HETATM    5  O           1     -21.720  -5.864  -2.539  0.00  0.00    -0.271 OA
BRANCH   3   6
HETATM    6  C           1     -21.540  -7.852  -0.711  0.00  0.00     0.235 C 
BRANCH   6   7
HETATM    7  C           1     -22.725  -8.517  -0.055  0.00  0.00     0.191 C 
HETATM    8  O           1     -23.369  -7.914   0.830  0.00  0.00    -0.647 OA
HETATM    9  O           1     -23.063  -9.670  -0.398  0.00  0.00    -0.647 OA
ENDBRANCH   6   7
ENDBRANCH   3   6
ENDBRANCH   1   2
BRANCH   1  10
HETATM   10  C           1     -20.344  -7.181  -5.058  0.00  0.00     0.155 C 
BRANCH  10  11
HETATM   11  C           1     -20.235  -6.080  -6.085  0.00  0.00     0.175 C 
HETATM   12  O           1     -19.974  -4.913  -5.723  0.00  0.00    -0.648 OA
HETATM   13  O           1     -20.404  -6.336  -7.296  0.00  0.00    -0.648 OA
ENDBRANCH  10  11
ENDBRANCH   1  10
BRANCH   1  14
HETATM   14  N           1     -22.565  -6.107  -5.110  0.00  0.00    -0.066 N 
HETATM   15  H           1     -22.633  -5.300  -4.450  0.00  0.00     0.275 HD
HETATM   16  H           1     -22.103  -5.796  -5.994  0.00  0.00     0.275 HD
HETATM   17  H           1     -23.524  -6.464  -5.324  0.00  0.00     0.275 HD
ENDBRANCH   1  14
TORSDOF 6
ENDMDL
MODEL 9
REMARK VINA RESULT:      -4.5      4.041      7.415
REMARK  6 active torsions:
REMARK  status: ('A' for Active; 'I' for Inactive)
REMARK       I    between atoms: C_3  and  N_11 
REMARK    1  A    between atoms: C_3  and  C_7 
REMARK    2  A    between atoms: C_7  and  C_8 
REMARK    3  A    between atoms: C_7  and  N_14 
REMARK    4  A    between atoms: C_8  and  C_16 
REMARK    5  A    between atoms: C_10  and  C_13 
REMARK    6  A    between atoms: C_10  and  N_11 
ROOT
HETATM    1  C           1     -21.215  -6.293  -2.842  0.00  0.00     0.284 C 
ENDROOT
BRANCH   1   2
HETATM    2  C           1     -21.507  -6.393  -4.319  0.00  0.00     0.249 C 
HETATM    3  N           1     -20.925  -5.515  -5.193  0.00  0.00    -0.349 N 
HETATM    4  H           1     -20.299  -4.798  -4.849  0.00  0.00     0.163 HD
HETATM    5  O           1     -22.254  -7.249  -4.731  0.00  0.00    -0.271 OA
BRANCH   3   6
HETATM    6  C           1     -21.205  -5.612  -6.613  0.00  0.00     0.235 C 
BRANCH   6   7
HETATM    7  C           1     -21.949  -4.380  -7.065  0.00  0.00     0.191 C 
HETATM    8  O           1     -21.342  -3.295  -7.192  0.00  0.00    -0.647 OA
HETATM    9  O           1     -23.172  -4.444  -7.312  0.00  0.00    -0.647 OA
ENDBRANCH   6   7
ENDBRANCH   3   6
ENDBRANCH   1   2
BRANCH   1  10
HETATM   10  C           1     -20.621  -7.607  -2.350  0.00  0.00     0.155 C 
BRANCH  10  11
HETATM   11  C           1     -21.503  -8.185  -1.270  0.00  0.00     0.175 C 
HETATM   12  O           1     -22.328  -9.081  -1.551  0.00  0.00    -0.648 OA
HETATM   13  O           1     -21.407  -7.769  -0.096  0.00  0.00    -0.648 OA
ENDBRANCH  10  11
ENDBRANCH   1  10
BRANCH   1  14
HETATM   14  N           1     -22.488  -6.012  -2.100  0.00  0.00    -0.066 N 
HETATM   15  H           1     -22.722  -4.997  -2.181  0.00  0.00     0.275 HD
HETATM   16  H           1     -23.263  -6.582  -2.510  0.00  0.00     0.275 HD
HETATM   17  H           1     -22.366  -6.263  -1.092  0.00  0.00     0.275 HD
ENDBRANCH   1  14
TORSDOF 6
ENDMDL
