MODEL 1
REMARK VINA RESULT:      -7.0      0.000      0.000
REMARK  10 active torsions:
REMARK  status: ('A' for Active; 'I' for Inactive)
REMARK    1  A    between atoms: C_2  and  C_4 
REMARK    2  A    between atoms: C_4  and  C_5 
REMARK    3  A    between atoms: C_5  and  C_6 
REMARK    4  A    between atoms: C_5  and  N_9 
REMARK       I    between atoms: N_9  and  C_10 
REMARK    5  A    between atoms: C_10  and  C_11 
REMARK    6  A    between atoms: C_11  and  C_12 
REMARK    7  A    between atoms: C_11  and  N_19 
REMARK    8  A    between atoms: C_12  and  C_13 
REMARK    9  A    between atoms: C_13  and  C_14 
REMARK   10  A    between atoms: C_14  and  N_15 
REMARK       I    between atoms: N_15  and  C_16 
REMARK       I    between atoms: C_16  and  N_17 
ROOT
HETATM    1  C           1     -25.799  -7.358 -20.158  0.00  0.00     0.274 C 
ENDROOT
BRANCH   1   2
HETATM    2  C           1     -25.723  -6.752 -18.777  0.00  0.00     0.249 C 
HETATM    3  N           1     -26.870  -6.535 -18.061  0.00  0.00    -0.345 N 
HETATM    4  H           1     -27.768  -6.780 -18.459  0.00  0.00     0.163 HD
HETATM    5  O           1     -24.651  -6.461 -18.304  0.00  0.00    -0.271 OA
BRANCH   3   6
HETATM    6  C           1     -26.797  -5.954 -16.736  0.00  0.00     0.185 C 
BRANCH   6   7
HETATM    7  C           1     -28.070  -5.166 -16.458  0.00  0.00     0.040 C 
BRANCH   7   8
HETATM    8  C           1     -29.069  -5.400 -17.584  0.00  0.00    -0.020 C 
HETATM    9  C           1     -30.224  -6.249 -17.068  0.00  0.00     0.009 C 
HETATM   10  C           1     -29.603  -4.062 -18.076  0.00  0.00     0.009 C 
ENDBRANCH   7   8
ENDBRANCH   6   7
BRANCH   6  11
HETATM   11  C           1     -26.651  -7.053 -15.712  0.00  0.00     0.196 C 
HETATM   12  O           1     -27.666  -7.532 -15.161  0.00  0.00    -0.646 OA
HETATM   13  O           1     -25.516  -7.484 -15.416  0.00  0.00    -0.646 OA
ENDBRANCH   6  11
ENDBRANCH   3   6
ENDBRANCH   1   2
BRANCH   1  14
HETATM   14  C           1     -25.252  -6.369 -21.178  0.00  0.00     0.044 C 
BRANCH  14  15
HETATM   15  C           1     -24.408  -7.112 -22.206  0.00  0.00     0.023 C 
BRANCH  15  16
HETATM   16  C           1     -23.984  -8.459 -21.636  0.00  0.00     0.138 C 
BRANCH  16  17
HETATM   17  N           1     -22.864  -8.994 -22.425  0.00  0.00    -0.227 N 
HETATM   18  C           1     -21.706  -9.058 -21.919  0.00  0.00     0.665 C 
HETATM   19  N           1     -20.742  -9.520 -22.597  0.00  0.00    -0.235 N 
HETATM   20  N           1     -21.506  -8.650 -20.700  0.00  0.00    -0.235 N 
HETATM   21  H           1     -19.781  -9.572 -22.177  0.00  0.00     0.174 HD
HETATM   22  H           1     -20.904  -9.848 -23.582  0.00  0.00     0.174 HD
HETATM   23  H           1     -20.550  -8.703 -20.281  0.00  0.00     0.174 HD
HETATM   24  H           1     -22.301  -8.270 -20.140  0.00  0.00     0.174 HD
HETATM   25  H           1     -23.026  -9.324 -23.409  0.00  0.00     0.177 HD
ENDBRANCH  16  17
ENDBRANCH  15  16
ENDBRANCH  14  15
ENDBRANCH   1  14
BRANCH   1  26
HETATM   26  N           1     -27.228  -7.676 -20.486  0.00  0.00    -0.067 N 
HETATM   27  H           1     -27.859  -7.090 -19.894  0.00  0.00     0.275 HD
HETATM   28  H           1     -27.407  -7.471 -21.494  0.00  0.00     0.275 HD
HETATM   29  H           1     -27.412  -8.687 -20.297  0.00  0.00     0.275 HD
ENDBRANCH   1  26
TORSDOF 10
ENDMDL
MODEL 2
REMARK VINA RESULT:      -6.8     11.226     14.103
REMARK  10 active torsions:
REMARK  status: ('A' for Active; 'I' for Inactive)
REMARK    1  A    between atoms: C_2  and  C_4 
REMARK    2  A    between atoms: C_4  and  C_5 
REMARK    3  A    between atoms: C_5  and  C_6 
REMARK    4  A    between atoms: C_5  and  N_9 
REMARK       I    between atoms: N_9  and  C_10 
REMARK    5  A    between atoms: C_10  and  C_11 
REMARK    6  A    between atoms: C_11  and  C_12 
REMARK    7  A    between atoms: C_11  and  N_19 
REMARK    8  A    between atoms: C_12  and  C_13 
REMARK    9  A    between atoms: C_13  and  C_14 
REMARK   10  A    between atoms: C_14  and  N_15 
REMARK       I    between atoms: N_15  and  C_16 
REMARK       I    between atoms: C_16  and  N_17 
ROOT
HETATM    1  C           1     -22.403  -4.946  -6.268  0.00  0.00     0.274 C 
ENDROOT
BRANCH   1   2
HETATM    2  C           1     -22.344  -4.206  -7.583  0.00  0.00     0.249 C 
HETATM    3  N           1     -23.215  -4.529  -8.589  0.00  0.00    -0.345 N 
HETATM    4  H           1     -23.897  -5.264  -8.452  0.00  0.00     0.163 HD
HETATM    5  O           1     -21.530  -3.329  -7.746  0.00  0.00    -0.271 OA
BRANCH   3   6
HETATM    6  C           1     -23.159  -3.818  -9.851  0.00  0.00     0.185 C 
BRANCH   6   7
HETATM    7  C           1     -22.612  -4.744 -10.930  0.00  0.00     0.040 C 
BRANCH   7   8
HETATM    8  C           1     -21.272  -4.213 -11.423  0.00  0.00    -0.020 C 
HETATM    9  C           1     -21.273  -2.692 -11.356  0.00  0.00     0.009 C 
HETATM   10  C           1     -20.155  -4.760 -10.544  0.00  0.00     0.009 C 
ENDBRANCH   7   8
ENDBRANCH   6   7
BRANCH   6  11
HETATM   11  C           1     -24.545  -3.362 -10.233  0.00  0.00     0.196 C 
HETATM   12  O           1     -25.001  -3.629 -11.366  0.00  0.00    -0.646 OA
HETATM   13  O           1     -25.238  -2.716  -9.417  0.00  0.00    -0.646 OA
ENDBRANCH   6  11
ENDBRANCH   3   6
ENDBRANCH   1   2
BRANCH   1  14
HETATM   14  C           1     -21.526  -6.188  -6.344  0.00  0.00     0.044 C 
BRANCH  14  15
HETATM   15  C           1     -21.673  -6.993  -5.059  0.00  0.00     0.023 C 
BRANCH  15  16
HETATM   16  C           1     -21.104  -6.197  -3.893  0.00  0.00     0.138 C 
BRANCH  16  17
HETATM   17  N           1     -22.043  -6.243  -2.762  0.00  0.00    -0.227 N 
HETATM   18  C           1     -21.784  -6.961  -1.753  0.00  0.00     0.665 C 
HETATM   19  N           1     -22.593  -7.001  -0.779  0.00  0.00    -0.235 N 
HETATM   20  N           1     -20.687  -7.658  -1.715  0.00  0.00    -0.235 N 
HETATM   21  H           1     -22.378  -7.597   0.058  0.00  0.00     0.174 HD
HETATM   22  H           1     -23.479  -6.438  -0.810  0.00  0.00     0.174 HD
HETATM   23  H           1     -20.474  -8.251  -0.882  0.00  0.00     0.174 HD
HETATM   24  H           1     -20.021  -7.626  -2.518  0.00  0.00     0.174 HD
HETATM   25  H           1     -22.928  -5.679  -2.793  0.00  0.00     0.177 HD
ENDBRANCH  16  17
ENDBRANCH  15  16
ENDBRANCH  14  15
ENDBRANCH   1  14
BRANCH   1  26
HETATM   26  N           1     -23.820  -5.351  -5.987  0.00  0.00    -0.067 N 
HETATM   27  H           1     -24.250  -4.674  -5.318  0.00  0.00     0.275 HD
HETATM   28  H           1     -24.365  -5.352  -6.879  0.00  0.00     0.275 HD
HETATM   29  H           1     -23.832  -6.310  -5.569  0.00  0.00     0.275 HD
ENDBRANCH   1  26
TORSDOF 10
ENDMDL
MODEL 3
REMARK VINA RESULT:      -6.7      9.525     12.517
REMARK  10 active torsions:
REMARK  status: ('A' for Active; 'I' for Inactive)
REMARK    1  A    between atoms: C_2  and  C_4 
REMARK    2  A    between atoms: C_4  and  C_5 
REMARK    3  A    between atoms: C_5  and  C_6 
REMARK    4  A    between atoms: C_5  and  N_9 
REMARK       I    between atoms: N_9  and  C_10 
REMARK    5  A    between atoms: C_10  and  C_11 
REMARK    6  A    between atoms: C_11  and  C_12 
REMARK    7  A    between atoms: C_11  and  N_19 
REMARK    8  A    between atoms: C_12  and  C_13 
REMARK    9  A    between atoms: C_13  and  C_14 
REMARK   10  A    between atoms: C_14  and  N_15 
REMARK       I    between atoms: N_15  and  C_16 
REMARK       I    between atoms: C_16  and  N_17 
ROOT
HETATM    1  C           1     -35.834   0.303 -15.009  0.00  0.00     0.274 C 
ENDROOT
BRANCH   1   2
HETATM    2  C           1     -36.445  -0.302 -13.769  0.00  0.00     0.249 C 
HETATM    3  N           1     -35.733  -0.332 -12.599  0.00  0.00    -0.345 N 
HETATM    4  H           1     -34.797   0.051 -12.567  0.00  0.00     0.163 HD
HETATM    5  O           1     -37.563  -0.758 -13.807  0.00  0.00    -0.271 OA
BRANCH   3   6
HETATM    6  C           1     -36.321  -0.912 -11.408  0.00  0.00     0.185 C 
BRANCH   6   7
HETATM    7  C           1     -35.247  -1.655 -10.624  0.00  0.00     0.040 C 
BRANCH   7   8
HETATM    8  C           1     -34.739  -2.832 -11.447  0.00  0.00    -0.020 C 
HETATM    9  C           1     -33.232  -2.964 -11.267  0.00  0.00     0.009 C 
HETATM   10  C           1     -35.420  -4.110 -10.978  0.00  0.00     0.009 C 
ENDBRANCH   7   8
ENDBRANCH   6   7
BRANCH   6  11
HETATM   11  C           1     -36.904   0.183 -10.551  0.00  0.00     0.196 C 
HETATM   12  O           1     -38.072   0.581 -10.753  0.00  0.00    -0.646 OA
HETATM   13  O           1     -36.220   0.693  -9.637  0.00  0.00    -0.646 OA
ENDBRANCH   6  11
ENDBRANCH   3   6
ENDBRANCH   1   2
BRANCH   1  14
HETATM   14  C           1     -35.896  -0.705 -16.149  0.00  0.00     0.044 C 
BRANCH  14  15
HETATM   15  C           1     -35.133  -1.964 -15.757  0.00  0.00     0.023 C 
BRANCH  15  16
HETATM   16  C           1     -34.394  -2.509 -16.972  0.00  0.00     0.138 C 
BRANCH  16  17
HETATM   17  N           1     -33.769  -3.795 -16.630  0.00  0.00    -0.227 N 
HETATM   18  C           1     -32.568  -4.022 -16.957  0.00  0.00     0.665 C 
HETATM   19  N           1     -32.030  -5.130 -16.663  0.00  0.00    -0.235 N 
HETATM   20  N           1     -31.886  -3.118 -17.597  0.00  0.00    -0.235 N 
HETATM   21  H           1     -31.034  -5.318 -16.936  0.00  0.00     0.174 HD
HETATM   22  H           1     -32.581  -5.860 -16.148  0.00  0.00     0.174 HD
HETATM   23  H           1     -30.895  -3.306 -17.867  0.00  0.00     0.174 HD
HETATM   24  H           1     -32.331  -2.205 -17.840  0.00  0.00     0.174 HD
HETATM   25  H           1     -34.320  -4.525 -16.113  0.00  0.00     0.177 HD
ENDBRANCH  16  17
ENDBRANCH  15  16
ENDBRANCH  14  15
ENDBRANCH   1  14
BRANCH   1  26
HETATM   26  N           1     -34.403   0.661 -14.736  0.00  0.00    -0.067 N 
HETATM   27  H           1     -34.073   1.347 -15.451  0.00  0.00     0.275 HD
HETATM   28  H           1     -34.327   1.087 -13.785  0.00  0.00     0.275 HD
HETATM   29  H           1     -33.813  -0.201 -14.781  0.00  0.00     0.275 HD
ENDBRANCH   1  26
TORSDOF 10
ENDMDL
MODEL 4
REMARK VINA RESULT:      -6.7     11.786     14.122
REMARK  10 active torsions:
REMARK  status: ('A' for Active; 'I' for Inactive)
REMARK    1  A    between atoms: C_2  and  C_4 
REMARK    2  A    between atoms: C_4  and  C_5 
REMARK    3  A    between atoms: C_5  and  C_6 
REMARK    4  A    between atoms: C_5  and  N_9 
REMARK       I    between atoms: N_9  and  C_10 
REMARK    5  A    between atoms: C_10  and  C_11 
REMARK    6  A    between atoms: C_11  and  C_12 
REMARK    7  A    between atoms: C_11  and  N_19 
REMARK    8  A    between atoms: C_12  and  C_13 
REMARK    9  A    between atoms: C_13  and  C_14 
REMARK   10  A    between atoms: C_14  and  N_15 
REMARK       I    between atoms: N_15  and  C_16 
REMARK       I    between atoms: C_16  and  N_17 
ROOT
HETATM    1  C           1     -36.598  -0.872 -10.068  0.00  0.00     0.274 C 
ENDROOT
BRANCH   1   2
HETATM    2  C           1     -35.461  -1.762 -10.507  0.00  0.00     0.249 C 
HETATM    3  N           1     -35.717  -2.887 -11.244  0.00  0.00    -0.345 N 
HETATM    4  H           1     -36.670  -3.122 -11.494  0.00  0.00     0.163 HD
HETATM    5  O           1     -34.325  -1.481 -10.209  0.00  0.00    -0.271 OA
BRANCH   3   6
HETATM    6  C           1     -34.625  -3.742 -11.666  0.00  0.00     0.185 C 
BRANCH   6   7
HETATM    7  C           1     -35.046  -5.200 -11.541  0.00  0.00     0.040 C 
BRANCH   7   8
HETATM    8  C           1     -34.211  -5.879 -10.461  0.00  0.00    -0.020 C 
HETATM    9  C           1     -34.928  -7.135  -9.982  0.00  0.00     0.009 C 
HETATM   10  C           1     -32.852  -6.257 -11.034  0.00  0.00     0.009 C 
ENDBRANCH   7   8
ENDBRANCH   6   7
BRANCH   6  11
HETATM   11  C           1     -34.276  -3.439 -13.102  0.00  0.00     0.196 C 
HETATM   12  O           1     -34.879  -2.532 -13.714  0.00  0.00    -0.646 OA
HETATM   13  O           1     -33.383  -4.097 -13.680  0.00  0.00    -0.646 OA
ENDBRANCH   6  11
ENDBRANCH   3   6
ENDBRANCH   1   2
BRANCH   1  14
HETATM   14  C           1     -36.885   0.157 -11.153  0.00  0.00     0.044 C 
BRANCH  14  15
HETATM   15  C           1     -38.074  -0.302 -11.987  0.00  0.00     0.023 C 
BRANCH  15  16
HETATM   16  C           1     -37.830   0.041 -13.450  0.00  0.00     0.138 C 
BRANCH  16  17
HETATM   17  N           1     -36.388  -0.009 -13.732  0.00  0.00    -0.227 N 
HETATM   18  C           1     -35.938   0.459 -14.819  0.00  0.00     0.665 C 
HETATM   19  N           1     -34.696   0.415 -15.062  0.00  0.00    -0.235 N 
HETATM   20  N           1     -36.752   0.984 -15.687  0.00  0.00    -0.235 N 
HETATM   21  H           1     -34.324   0.803 -15.964  0.00  0.00     0.174 HD
HETATM   22  H           1     -34.039  -0.010 -14.362  0.00  0.00     0.174 HD
HETATM   23  H           1     -36.381   1.371 -16.584  0.00  0.00     0.174 HD
HETATM   24  H           1     -37.776   1.020 -15.486  0.00  0.00     0.174 HD
HETATM   25  H           1     -35.731  -0.433 -13.032  0.00  0.00     0.177 HD
ENDBRANCH  16  17
ENDBRANCH  15  16
ENDBRANCH  14  15
ENDBRANCH   1  14
BRANCH   1  26
HETATM   26  N           1     -36.219  -0.168  -8.799  0.00  0.00    -0.067 N 
HETATM   27  H           1     -35.197  -0.293  -8.623  0.00  0.00     0.275 HD
HETATM   28  H           1     -36.434   0.851  -8.889  0.00  0.00     0.275 HD
HETATM   29  H           1     -36.762  -0.570  -8.002  0.00  0.00     0.275 HD
ENDBRANCH   1  26
TORSDOF 10
ENDMDL
MODEL 5
REMARK VINA RESULT:      -6.7     11.718     13.310
REMARK  10 active torsions:
REMARK  status: ('A' for Active; 'I' for Inactive)
REMARK    1  A    between atoms: C_2  and  C_4 
REMARK    2  A    between atoms: C_4  and  C_5 
REMARK    3  A    between atoms: C_5  and  C_6 
REMARK    4  A    between atoms: C_5  and  N_9 
REMARK       I    between atoms: N_9  and  C_10 
REMARK    5  A    between atoms: C_10  and  C_11 
REMARK    6  A    between atoms: C_11  and  C_12 
REMARK    7  A    between atoms: C_11  and  N_19 
REMARK    8  A    between atoms: C_12  and  C_13 
REMARK    9  A    between atoms: C_13  and  C_14 
REMARK   10  A    between atoms: C_14  and  N_15 
REMARK       I    between atoms: N_15  and  C_16 
REMARK       I    between atoms: C_16  and  N_17 
ROOT
HETATM    1  C           1     -34.252  -3.810 -12.262  0.00  0.00     0.274 C 
ENDROOT
BRANCH   1   2
HETATM    2  C           1     -34.557  -2.344 -12.077  0.00  0.00     0.249 C 
HETATM    3  N           1     -35.635  -1.783 -12.707  0.00  0.00    -0.345 N 
HETATM    4  H           1     -36.227  -2.352 -13.299  0.00  0.00     0.163 HD
HETATM    5  O           1     -33.850  -1.665 -11.370  0.00  0.00    -0.271 OA
BRANCH   3   6
HETATM    6  C           1     -35.927  -0.375 -12.528  0.00  0.00     0.185 C 
BRANCH   6   7
HETATM    7  C           1     -36.611   0.164 -13.778  0.00  0.00     0.040 C 
BRANCH   7   8
HETATM    8  C           1     -35.596   0.261 -14.911  0.00  0.00    -0.020 C 
HETATM    9  C           1     -36.015  -0.662 -16.047  0.00  0.00     0.009 C 
HETATM   10  C           1     -35.537   1.695 -15.417  0.00  0.00     0.009 C 
ENDBRANCH   7   8
ENDBRANCH   6   7
BRANCH   6  11
HETATM   11  C           1     -36.839  -0.198 -11.340  0.00  0.00     0.196 C 
HETATM   12  O           1     -37.943  -0.784 -11.306  0.00  0.00    -0.646 OA
HETATM   13  O           1     -36.491   0.534 -10.387  0.00  0.00    -0.646 OA
ENDBRANCH   6  11
ENDBRANCH   3   6
ENDBRANCH   1   2
BRANCH   1  14
HETATM   14  C           1     -33.391  -4.301 -11.107  0.00  0.00     0.044 C 
BRANCH  14  15
HETATM   15  C           1     -34.229  -5.177 -10.184  0.00  0.00     0.023 C 
BRANCH  15  16
HETATM   16  C           1     -34.707  -6.405 -10.945  0.00  0.00     0.138 C 
BRANCH  16  17
HETATM   17  N           1     -34.967  -7.499  -9.997  0.00  0.00    -0.227 N 
HETATM   18  C           1     -34.091  -8.393  -9.806  0.00  0.00     0.665 C 
HETATM   19  N           1     -34.314  -9.335  -8.990  0.00  0.00    -0.235 N 
HETATM   20  N           1     -32.961  -8.343 -10.447  0.00  0.00    -0.235 N 
HETATM   21  H           1     -33.588 -10.076  -8.831  0.00  0.00     0.174 HD
HETATM   22  H           1     -35.228  -9.375  -8.473  0.00  0.00     0.174 HD
HETATM   23  H           1     -32.237  -9.081 -10.289  0.00  0.00     0.174 HD
HETATM   24  H           1     -32.776  -7.566 -11.120  0.00  0.00     0.174 HD
HETATM   25  H           1     -35.879  -7.539  -9.480  0.00  0.00     0.177 HD
ENDBRANCH  16  17
ENDBRANCH  15  16
ENDBRANCH  14  15
ENDBRANCH   1  14
BRANCH   1  26
HETATM   26  N           1     -33.515  -4.007 -13.554  0.00  0.00    -0.067 N 
HETATM   27  H           1     -33.388  -3.084 -14.026  0.00  0.00     0.275 HD
HETATM   28  H           1     -32.580  -4.430 -13.359  0.00  0.00     0.275 HD
HETATM   29  H           1     -34.064  -4.644 -14.175  0.00  0.00     0.275 HD
ENDBRANCH   1  26
TORSDOF 10
ENDMDL
MODEL 6
REMARK VINA RESULT:      -6.6      1.832      2.380
REMARK  10 active torsions:
REMARK  status: ('A' for Active; 'I' for Inactive)
REMARK    1  A    between atoms: C_2  and  C_4 
REMARK    2  A    between atoms: C_4  and  C_5 
REMARK    3  A    between atoms: C_5  and  C_6 
REMARK    4  A    between atoms: C_5  and  N_9 
REMARK       I    between atoms: N_9  and  C_10 
REMARK    5  A    between atoms: C_10  and  C_11 
REMARK    6  A    between atoms: C_11  and  C_12 
REMARK    7  A    between atoms: C_11  and  N_19 
REMARK    8  A    between atoms: C_12  and  C_13 
REMARK    9  A    between atoms: C_13  and  C_14 
REMARK   10  A    between atoms: C_14  and  N_15 
REMARK       I    between atoms: N_15  and  C_16 
REMARK       I    between atoms: C_16  and  N_17 
ROOT
HETATM    1  C           1     -25.188  -6.549 -19.398  0.00  0.00     0.274 C 
ENDROOT
BRANCH   1   2
HETATM    2  C           1     -26.390  -6.397 -18.498  0.00  0.00     0.249 C 
HETATM    3  N           1     -27.644  -6.663 -18.980  0.00  0.00    -0.345 N 
HETATM    4  H           1     -27.764  -6.960 -19.940  0.00  0.00     0.163 HD
HETATM    5  O           1     -26.246  -6.043 -17.352  0.00  0.00    -0.271 OA
BRANCH   3   6
HETATM    6  C           1     -28.798  -6.518 -18.115  0.00  0.00     0.185 C 
BRANCH   6   7
HETATM    7  C           1     -29.509  -5.210 -18.435  0.00  0.00     0.040 C 
BRANCH   7   8
HETATM    8  C           1     -29.688  -4.402 -17.155  0.00  0.00    -0.020 C 
HETATM    9  C           1     -29.178  -5.212 -15.970  0.00  0.00     0.009 C 
HETATM   10  C           1     -28.899  -3.105 -17.261  0.00  0.00     0.009 C 
ENDBRANCH   7   8
ENDBRANCH   6   7
BRANCH   6  11
HETATM   11  C           1     -29.742  -7.673 -18.340  0.00  0.00     0.196 C 
HETATM   12  O           1     -29.588  -8.424 -19.327  0.00  0.00    -0.646 OA
HETATM   13  O           1     -30.679  -7.880 -17.538  0.00  0.00    -0.646 OA
ENDBRANCH   6  11
ENDBRANCH   3   6
ENDBRANCH   1   2
BRANCH   1  14
HETATM   14  C           1     -25.650  -6.814 -20.824  0.00  0.00     0.044 C 
BRANCH  14  15
HETATM   15  C           1     -24.937  -8.044 -21.369  0.00  0.00     0.023 C 
BRANCH  15  16
HETATM   16  C           1     -23.882  -7.614 -22.378  0.00  0.00     0.138 C 
BRANCH  16  17
HETATM   17  N           1     -23.187  -8.801 -22.899  0.00  0.00    -0.227 N 
HETATM   18  C           1     -22.183  -9.267 -22.285  0.00  0.00     0.665 C 
HETATM   19  N           1     -21.585 -10.290 -22.733  0.00  0.00    -0.235 N 
HETATM   20  N           1     -21.765  -8.696 -21.194  0.00  0.00    -0.235 N 
HETATM   21  H           1     -20.752 -10.676 -22.225  0.00  0.00     0.174 HD
HETATM   22  H           1     -21.922 -10.750 -23.615  0.00  0.00     0.174 HD
HETATM   23  H           1     -20.936  -9.081 -20.688  0.00  0.00     0.174 HD
HETATM   24  H           1     -22.258  -7.853 -20.825  0.00  0.00     0.174 HD
HETATM   25  H           1     -23.525  -9.262 -23.779  0.00  0.00     0.177 HD
ENDBRANCH  16  17
ENDBRANCH  15  16
ENDBRANCH  14  15
ENDBRANCH   1  14
BRANCH   1  26
HETATM   26  N           1     -24.350  -7.699 -18.922  0.00  0.00    -0.067 N 
HETATM   27  H           1     -24.157  -7.590 -17.901  0.00  0.00     0.275 HD
HETATM   28  H           1     -24.864  -8.594 -19.086  0.00  0.00     0.275 HD
HETATM   29  H           1     -23.447  -7.713 -19.448  0.00  0.00     0.275 HD
ENDBRANCH   1  26
TORSDOF 10
ENDMDL
MODEL 7
REMARK VINA RESULT:      -6.5     11.437     13.873
REMARK  10 active torsions:
REMARK  status: ('A' for Active; 'I' for Inactive)
REMARK    1  A    between atoms: C_2  and  C_4 
REMARK    2  A    between atoms: C_4  and  C_5 
REMARK    3  A    between atoms: C_5  and  C_6 
REMARK    4  A    between atoms: C_5  and  N_9 
REMARK       I    between atoms: N_9  and  C_10 
REMARK    5  A    between atoms: C_10  and  C_11 
REMARK    6  A    between atoms: C_11  and  C_12 
REMARK    7  A    between atoms: C_11  and  N_19 
REMARK    8  A    between atoms: C_12  and  C_13 
REMARK    9  A    between atoms: C_13  and  C_14 
REMARK   10  A    between atoms: C_14  and  N_15 
REMARK       I    between atoms: N_15  and  C_16 
REMARK       I    between atoms: C_16  and  N_17 
ROOT
HETATM    1  C           1     -21.526  -5.066  -7.499  0.00  0.00     0.274 C 
ENDROOT
BRANCH   1   2
HETATM    2  C           1     -20.935  -5.644  -6.236  0.00  0.00     0.249 C 
HETATM    3  N           1     -20.922  -7.000  -6.044  0.00  0.00    -0.345 N 
HETATM    4  H           1     -21.309  -7.614  -6.749  0.00  0.00     0.163 HD
HETATM    5  O           1     -20.472  -4.911  -5.395  0.00  0.00    -0.271 OA
BRANCH   3   6
HETATM    6  C           1     -20.353  -7.554  -4.831  0.00  0.00     0.185 C 
BRANCH   6   7
HETATM    7  C           1     -21.459  -7.771  -3.807  0.00  0.00     0.040 C 
BRANCH   7   8
HETATM    8  C           1     -21.066  -7.118  -2.488  0.00  0.00    -0.020 C 
HETATM    9  C           1     -22.171  -6.169  -2.043  0.00  0.00     0.009 C 
HETATM   10  C           1     -20.864  -8.194  -1.430  0.00  0.00     0.009 C 
ENDBRANCH   7   8
ENDBRANCH   6   7
BRANCH   6  11
HETATM   11  C           1     -19.691  -8.873  -5.144  0.00  0.00     0.196 C 
HETATM   12  O           1     -20.087  -9.919  -4.588  0.00  0.00    -0.646 OA
HETATM   13  O           1     -18.744  -8.919  -5.960  0.00  0.00    -0.646 OA
ENDBRANCH   6  11
ENDBRANCH   3   6
ENDBRANCH   1   2
BRANCH   1  14
HETATM   14  C           1     -20.534  -4.096  -8.126  0.00  0.00     0.044 C 
BRANCH  14  15
HETATM   15  C           1     -20.088  -4.631  -9.481  0.00  0.00     0.023 C 
BRANCH  15  16
HETATM   16  C           1     -20.645  -3.744 -10.586  0.00  0.00     0.138 C 
BRANCH  16  17
HETATM   17  N           1     -21.492  -4.547 -11.480  0.00  0.00    -0.227 N 
HETATM   18  C           1     -22.752  -4.475 -11.391  0.00  0.00     0.665 C 
HETATM   19  N           1     -23.482  -5.167 -12.161  0.00  0.00    -0.235 N 
HETATM   20  N           1     -23.299  -3.692 -10.508  0.00  0.00    -0.235 N 
HETATM   21  H           1     -24.528  -5.108 -12.086  0.00  0.00     0.174 HD
HETATM   22  H           1     -23.041  -5.800 -12.873  0.00  0.00     0.174 HD
HETATM   23  H           1     -24.339  -3.633 -10.435  0.00  0.00     0.174 HD
HETATM   24  H           1     -22.697  -3.122  -9.873  0.00  0.00     0.174 HD
HETATM   25  H           1     -21.051  -5.179 -12.193  0.00  0.00     0.177 HD
ENDBRANCH  16  17
ENDBRANCH  15  16
ENDBRANCH  14  15
ENDBRANCH   1  14
BRANCH   1  26
HETATM   26  N           1     -22.796  -4.339  -7.168  0.00  0.00    -0.067 N 
HETATM   27  H           1     -22.652  -3.312  -7.297  0.00  0.00     0.275 HD
HETATM   28  H           1     -23.559  -4.667  -7.802  0.00  0.00     0.275 HD
HETATM   29  H           1     -23.059  -4.532  -6.175  0.00  0.00     0.275 HD
ENDBRANCH   1  26
TORSDOF 10
ENDMDL
MODEL 8
REMARK VINA RESULT:      -6.4     13.541     16.180
REMARK  10 active torsions:
REMARK  status: ('A' for Active; 'I' for Inactive)
REMARK    1  A    between atoms: C_2  and  C_4 
REMARK    2  A    between atoms: C_4  and  C_5 
REMARK    3  A    between atoms: C_5  and  C_6 
REMARK    4  A    between atoms: C_5  and  N_9 
REMARK       I    between atoms: N_9  and  C_10 
REMARK    5  A    between atoms: C_10  and  C_11 
REMARK    6  A    between atoms: C_11  and  C_12 
REMARK    7  A    between atoms: C_11  and  N_19 
REMARK    8  A    between atoms: C_12  and  C_13 
REMARK    9  A    between atoms: C_13  and  C_14 
REMARK   10  A    between atoms: C_14  and  N_15 
REMARK       I    between atoms: N_15  and  C_16 
REMARK       I    between atoms: C_16  and  N_17 
ROOT
HETATM    1  C           1     -21.747  -6.493  -5.164  0.00  0.00     0.274 C 
ENDROOT
BRANCH   1   2
HETATM    2  C           1     -21.275  -6.813  -3.767  0.00  0.00     0.249 C 
HETATM    3  N           1     -20.895  -8.089  -3.447  0.00  0.00    -0.345 N 
HETATM    4  H           1     -20.932  -8.818  -4.149  0.00  0.00     0.163 HD
HETATM    5  O           1     -21.231  -5.943  -2.930  0.00  0.00    -0.271 OA
BRANCH   3   6
HETATM    6  C           1     -20.442  -8.396  -2.105  0.00  0.00     0.185 C 
BRANCH   6   7
HETATM    7  C           1     -21.609  -8.931  -1.286  0.00  0.00     0.040 C 
BRANCH   7   8
HETATM    8  C           1     -21.687  -8.181   0.038  0.00  0.00    -0.020 C 
HETATM    9  C           1     -23.143  -7.880   0.365  0.00  0.00     0.009 C 
HETATM   10  C           1     -21.085  -9.039   1.143  0.00  0.00     0.009 C 
ENDBRANCH   7   8
ENDBRANCH   6   7
BRANCH   6  11
HETATM   11  C           1     -19.352  -9.437  -2.169  0.00  0.00     0.196 C 
HETATM   12  O           1     -18.249  -9.157  -2.687  0.00  0.00    -0.646 OA
HETATM   13  O           1     -19.550 -10.580  -1.702  0.00  0.00    -0.646 OA
ENDBRANCH   6  11
ENDBRANCH   3   6
ENDBRANCH   1   2
BRANCH   1  14
HETATM   14  C           1     -20.927  -5.340  -5.726  0.00  0.00     0.044 C 
BRANCH  14  15
HETATM   15  C           1     -20.903  -5.426  -7.247  0.00  0.00     0.023 C 
BRANCH  15  16
HETATM   16  C           1     -21.174  -4.049  -7.838  0.00  0.00     0.138 C 
BRANCH  16  17
HETATM   17  N           1     -22.622  -3.795  -7.845  0.00  0.00    -0.227 N 
HETATM   18  C           1     -23.240  -3.684  -8.943  0.00  0.00     0.665 C 
HETATM   19  N           1     -24.487  -3.465  -8.950  0.00  0.00    -0.235 N 
HETATM   20  N           1     -22.594  -3.796 -10.067  0.00  0.00    -0.235 N 
HETATM   21  H           1     -24.999  -3.372  -9.862  0.00  0.00     0.174 HD
HETATM   22  H           1     -25.008  -3.373  -8.043  0.00  0.00     0.174 HD
HETATM   23  H           1     -23.104  -3.705 -10.974  0.00  0.00     0.174 HD
HETATM   24  H           1     -21.566  -3.977 -10.062  0.00  0.00     0.174 HD
HETATM   25  H           1     -23.143  -3.705  -6.938  0.00  0.00     0.177 HD
ENDBRANCH  16  17
ENDBRANCH  15  16
ENDBRANCH  14  15
ENDBRANCH   1  14
BRANCH   1  26
HETATM   26  N           1     -23.195  -6.104  -5.125  0.00  0.00    -0.067 N 
HETATM   27  H           1     -23.304  -5.221  -4.578  0.00  0.00     0.275 HD
HETATM   28  H           1     -23.542  -5.955  -6.100  0.00  0.00     0.275 HD
HETATM   29  H           1     -23.748  -6.866  -4.671  0.00  0.00     0.275 HD
ENDBRANCH   1  26
TORSDOF 10
ENDMDL
MODEL 9
REMARK VINA RESULT:      -6.4     10.714     13.130
REMARK  10 active torsions:
REMARK  status: ('A' for Active; 'I' for Inactive)
REMARK    1  A    between atoms: C_2  and  C_4 
REMARK    2  A    between atoms: C_4  and  C_5 
REMARK    3  A    between atoms: C_5  and  C_6 
REMARK    4  A    between atoms: C_5  and  N_9 
REMARK       I    between atoms: N_9  and  C_10 
REMARK    5  A    between atoms: C_10  and  C_11 
REMARK    6  A    between atoms: C_11  and  C_12 
REMARK    7  A    between atoms: C_11  and  N_19 
REMARK    8  A    between atoms: C_12  and  C_13 
REMARK    9  A    between atoms: C_13  and  C_14 
REMARK   10  A    between atoms: C_14  and  N_15 
REMARK       I    between atoms: N_15  and  C_16 
REMARK       I    between atoms: C_16  and  N_17 
ROOT
HETATM    1  C           1     -22.263  -4.909  -6.285  0.00  0.00     0.274 C 
ENDROOT
BRANCH   1   2
HETATM    2  C           1     -22.242  -4.172  -7.602  0.00  0.00     0.249 C 
HETATM    3  N           1     -23.129  -4.509  -8.589  0.00  0.00    -0.345 N 
HETATM    4  H           1     -23.799  -5.253  -8.435  0.00  0.00     0.163 HD
HETATM    5  O           1     -21.444  -3.285  -7.785  0.00  0.00    -0.271 OA
BRANCH   3   6
HETATM    6  C           1     -23.109  -3.801  -9.854  0.00  0.00     0.185 C 
BRANCH   6   7
HETATM    7  C           1     -22.567  -4.720 -10.940  0.00  0.00     0.040 C 
BRANCH   7   8
HETATM    8  C           1     -21.214  -4.204 -11.415  0.00  0.00    -0.020 C 
HETATM    9  C           1     -21.180  -2.686 -11.294  0.00  0.00     0.009 C 
HETATM   10  C           1     -20.112  -4.807 -10.555  0.00  0.00     0.009 C 
ENDBRANCH   7   8
ENDBRANCH   6   7
BRANCH   6  11
HETATM   11  C           1     -24.510  -3.370 -10.211  0.00  0.00     0.196 C 
HETATM   12  O           1     -24.974  -3.627 -11.342  0.00  0.00    -0.646 OA
HETATM   13  O           1     -25.207  -2.755  -9.374  0.00  0.00    -0.646 OA
ENDBRANCH   6  11
ENDBRANCH   3   6
ENDBRANCH   1   2
BRANCH   1  14
HETATM   14  C           1     -21.316  -6.099  -6.353  0.00  0.00     0.044 C 
BRANCH  14  15
HETATM   15  C           1     -20.865  -6.472  -4.946  0.00  0.00     0.023 C 
BRANCH  15  16
HETATM   16  C           1     -21.010  -7.974  -4.747  0.00  0.00     0.138 C 
BRANCH  16  17
HETATM   17  N           1     -20.119  -8.680  -5.680  0.00  0.00    -0.227 N 
HETATM   18  C           1     -19.047  -9.204  -5.257  0.00  0.00     0.665 C 
HETATM   19  N           1     -18.279  -9.813  -6.060  0.00  0.00    -0.235 N 
HETATM   20  N           1     -18.733  -9.118  -3.998  0.00  0.00    -0.235 N 
HETATM   21  H           1     -17.390 -10.246  -5.709  0.00  0.00     0.174 HD
HETATM   22  H           1     -18.532  -9.881  -7.076  0.00  0.00     0.174 HD
HETATM   23  H           1     -17.848  -9.550  -3.649  0.00  0.00     0.174 HD
HETATM   24  H           1     -19.366  -8.615  -3.336  0.00  0.00     0.174 HD
HETATM   25  H           1     -20.372  -8.750  -6.696  0.00  0.00     0.177 HD
ENDBRANCH  16  17
ENDBRANCH  15  16
ENDBRANCH  14  15
ENDBRANCH   1  14
BRANCH   1  26
HETATM   26  N           1     -23.656  -5.393  -6.007  0.00  0.00    -0.067 N 
HETATM   27  H           1     -23.720  -6.413  -6.224  0.00  0.00     0.275 HD
HETATM   28  H           1     -23.883  -5.237  -4.999  0.00  0.00     0.275 HD
HETATM   29  H           1     -24.333  -4.867  -6.603  0.00  0.00     0.275 HD
ENDBRANCH   1  26
TORSDOF 10
ENDMDL
