MODEL 1
REMARK VINA RESULT:      -7.2      0.000      0.000
REMARK  8 active torsions:
REMARK  status: ('A' for Active; 'I' for Inactive)
REMARK    1  A    between atoms: C_2  and  C_6 
REMARK    2  A    between atoms: C_4  and  C_5 
REMARK    3  A    between atoms: C_5  and  C_6 
REMARK    4  A    between atoms: C_6  and  N_10 
REMARK       I    between atoms: N_10  and  C_11 
REMARK    5  A    between atoms: C_11  and  C_18 
REMARK    6  A    between atoms: N_16  and  C_18 
REMARK    7  A    between atoms: C_18  and  C_24 
REMARK    8  A    between atoms: C_23  and  C_24 
ROOT
HETATM    1  N           1     -35.839  -1.212 -10.041  0.00  0.00    -0.344 N 
HETATM    2  C           1     -34.815  -1.907 -10.627  0.00  0.00     0.249 C 
HETATM    3  O           1     -33.670  -1.664 -10.326  0.00  0.00    -0.271 OA
HETATM    4  H           1     -36.258  -1.554  -9.185  0.00  0.00     0.163 HD
ENDROOT
BRANCH   1   5
HETATM    5  C           1     -36.323   0.013 -10.648  0.00  0.00     0.189 C 
BRANCH   5   6
HETATM    6  C           1     -36.958   0.880  -9.588  0.00  0.00     0.197 C 
HETATM    7  O           1     -38.075   1.402  -9.793  0.00  0.00    -0.646 OA
HETATM    8  O           1     -36.366   1.077  -8.505  0.00  0.00    -0.646 OA
ENDBRANCH   5   6
BRANCH   5   9
HETATM    9  C           1     -37.357  -0.324 -11.715  0.00  0.00     0.074 C 
BRANCH   9  10
HETATM   10  C           1     -36.817   0.039 -13.063  0.00  0.00    -0.056 A 
HETATM   11  C           1     -37.634  -0.054 -14.189  0.00  0.00     0.007 A 
HETATM   12  C           1     -37.131   0.284 -15.446  0.00  0.00     0.001 A 
HETATM   13  C           1     -35.811   0.715 -15.576  0.00  0.00     0.000 A 
HETATM   14  C           1     -34.994   0.808 -14.449  0.00  0.00     0.001 A 
HETATM   15  C           1     -35.497   0.470 -13.192  0.00  0.00     0.007 A 
ENDBRANCH   9  10
ENDBRANCH   5   9
ENDBRANCH   1   5
BRANCH   2  16
HETATM   16  C           1     -35.116  -2.978 -11.647  0.00  0.00     0.284 C 
BRANCH  16  17
HETATM   17  N           1     -33.968  -3.088 -12.607  0.00  0.00    -0.066 N 
HETATM   18  H           1     -33.199  -3.643 -12.168  0.00  0.00     0.275 HD
HETATM   19  H           1     -34.288  -3.568 -13.478  0.00  0.00     0.275 HD
HETATM   20  H           1     -33.617  -2.132 -12.842  0.00  0.00     0.275 HD
ENDBRANCH  16  17
BRANCH  16  21
HETATM   21  C           1     -35.314  -4.312 -10.939  0.00  0.00     0.155 C 
BRANCH  21  22
HETATM   22  C           1     -34.608  -5.401 -11.707  0.00  0.00     0.175 C 
HETATM   23  O           1     -33.507  -5.836 -11.306  0.00  0.00    -0.648 OA
HETATM   24  O           1     -35.124  -5.870 -12.745  0.00  0.00    -0.648 OA
ENDBRANCH  21  22
ENDBRANCH  16  21
ENDBRANCH   2  16
TORSDOF 8
ENDMDL
MODEL 2
REMARK VINA RESULT:      -6.6      9.610     12.065
REMARK  8 active torsions:
REMARK  status: ('A' for Active; 'I' for Inactive)
REMARK    1  A    between atoms: C_2  and  C_6 
REMARK    2  A    between atoms: C_4  and  C_5 
REMARK    3  A    between atoms: C_5  and  C_6 
REMARK    4  A    between atoms: C_6  and  N_10 
REMARK       I    between atoms: N_10  and  C_11 
REMARK    5  A    between atoms: C_11  and  C_18 
REMARK    6  A    between atoms: N_16  and  C_18 
REMARK    7  A    between atoms: C_18  and  C_24 
REMARK    8  A    between atoms: C_23  and  C_24 
ROOT
HETATM    1  N           1     -28.571  -7.337 -16.668  0.00  0.00    -0.344 N 
HETATM    2  C           1     -29.671  -7.140 -17.460  0.00  0.00     0.249 C 
HETATM    3  O           1     -29.956  -7.950 -18.311  0.00  0.00    -0.271 OA
HETATM    4  H           1     -28.659  -7.844 -15.797  0.00  0.00     0.163 HD
ENDROOT
BRANCH   1   5
HETATM    5  C           1     -27.281  -6.817 -17.080  0.00  0.00     0.189 C 
BRANCH   5   6
HETATM    6  C           1     -26.820  -5.777 -16.088  0.00  0.00     0.197 C 
HETATM    7  O           1     -25.631  -5.762 -15.705  0.00  0.00    -0.646 OA
HETATM    8  O           1     -27.629  -4.931 -15.649  0.00  0.00    -0.646 OA
ENDBRANCH   5   6
BRANCH   5   9
HETATM    9  C           1     -27.406  -6.183 -18.459  0.00  0.00     0.074 C 
BRANCH   9  10
HETATM   10  C           1     -26.424  -6.821 -19.392  0.00  0.00    -0.056 A 
HETATM   11  C           1     -26.871  -7.432 -20.563  0.00  0.00     0.007 A 
HETATM   12  C           1     -25.955  -8.027 -21.432  0.00  0.00     0.001 A 
HETATM   13  C           1     -24.593  -8.010 -21.129  0.00  0.00     0.000 A 
HETATM   14  C           1     -24.148  -7.400 -19.957  0.00  0.00     0.001 A 
HETATM   15  C           1     -25.063  -6.805 -19.088  0.00  0.00     0.007 A 
ENDBRANCH   9  10
ENDBRANCH   5   9
ENDBRANCH   1   5
BRANCH   2  16
HETATM   16  C           1     -30.529  -5.913 -17.270  0.00  0.00     0.284 C 
BRANCH  16  17
HETATM   17  N           1     -30.449  -5.467 -15.840  0.00  0.00    -0.066 N 
HETATM   18  H           1     -31.240  -5.885 -15.299  0.00  0.00     0.275 HD
HETATM   19  H           1     -29.542  -5.782 -15.428  0.00  0.00     0.275 HD
HETATM   20  H           1     -30.510  -4.424 -15.795  0.00  0.00     0.275 HD
ENDBRANCH  16  17
BRANCH  16  21
HETATM   21  C           1     -30.028  -4.798 -18.178  0.00  0.00     0.155 C 
BRANCH  21  22
HETATM   22  C           1     -30.500  -3.466 -17.649  0.00  0.00     0.175 C 
HETATM   23  O           1     -31.722  -3.234 -17.538  0.00  0.00    -0.648 OA
HETATM   24  O           1     -29.666  -2.594 -17.319  0.00  0.00    -0.648 OA
ENDBRANCH  21  22
ENDBRANCH  16  21
ENDBRANCH   2  16
TORSDOF 8
ENDMDL
MODEL 3
REMARK VINA RESULT:      -6.3     17.190     19.858
REMARK  8 active torsions:
REMARK  status: ('A' for Active; 'I' for Inactive)
REMARK    1  A    between atoms: C_2  and  C_6 
REMARK    2  A    between atoms: C_4  and  C_5 
REMARK    3  A    between atoms: C_5  and  C_6 
REMARK    4  A    between atoms: C_6  and  N_10 
REMARK       I    between atoms: N_10  and  C_11 
REMARK    5  A    between atoms: C_11  and  C_18 
REMARK    6  A    between atoms: N_16  and  C_18 
REMARK    7  A    between atoms: C_18  and  C_24 
REMARK    8  A    between atoms: C_23  and  C_24 
ROOT
HETATM    1  N           1     -19.682  -8.221  -4.604  0.00  0.00    -0.344 N 
HETATM    2  C           1     -19.329  -9.535  -4.760  0.00  0.00     0.249 C 
HETATM    3  O           1     -19.481 -10.080  -5.828  0.00  0.00    -0.271 OA
HETATM    4  H           1     -19.007  -7.490  -4.788  0.00  0.00     0.163 HD
ENDROOT
BRANCH   1   5
HETATM    5  C           1     -21.025  -7.878  -4.177  0.00  0.00     0.189 C 
BRANCH   5   6
HETATM    6  C           1     -21.693  -7.044  -5.243  0.00  0.00     0.197 C 
HETATM    7  O           1     -21.276  -7.083  -6.421  0.00  0.00    -0.646 OA
HETATM    8  O           1     -22.663  -6.313  -4.948  0.00  0.00    -0.646 OA
ENDBRANCH   5   6
BRANCH   5   9
HETATM    9  C           1     -20.957  -7.084  -2.879  0.00  0.00     0.074 C 
BRANCH   9  10
HETATM   10  C           1     -21.709  -7.812  -1.809  0.00  0.00    -0.056 A 
HETATM   11  C           1     -22.291  -7.103  -0.759  0.00  0.00     0.007 A 
HETATM   12  C           1     -22.991  -7.783   0.238  0.00  0.00     0.001 A 
HETATM   13  C           1     -23.110  -9.171   0.184  0.00  0.00     0.000 A 
HETATM   14  C           1     -22.527  -9.880  -0.865  0.00  0.00     0.001 A 
HETATM   15  C           1     -21.827  -9.201  -1.863  0.00  0.00     0.007 A 
ENDBRANCH   9  10
ENDBRANCH   5   9
ENDBRANCH   1   5
BRANCH   2  16
HETATM   16  C           1     -18.747 -10.302  -3.597  0.00  0.00     0.284 C 
BRANCH  16  17
HETATM   17  N           1     -17.971 -11.477  -4.115  0.00  0.00    -0.066 N 
HETATM   18  H           1     -17.786 -11.350  -5.135  0.00  0.00     0.275 HD
HETATM   19  H           1     -17.063 -11.547  -3.603  0.00  0.00     0.275 HD
HETATM   20  H           1     -18.524 -12.352  -3.969  0.00  0.00     0.275 HD
ENDBRANCH  16  17
BRANCH  16  21
HETATM   21  C           1     -17.820  -9.393  -2.801  0.00  0.00     0.155 C 
BRANCH  21  22
HETATM   22  C           1     -16.386  -9.780  -3.064  0.00  0.00     0.175 C 
HETATM   23  O           1     -15.842  -9.467  -4.145  0.00  0.00    -0.648 OA
HETATM   24  O           1     -15.741 -10.412  -2.200  0.00  0.00    -0.648 OA
ENDBRANCH  21  22
ENDBRANCH  16  21
ENDBRANCH   2  16
TORSDOF 8
ENDMDL
MODEL 4
REMARK VINA RESULT:      -6.3      9.263     11.792
REMARK  8 active torsions:
REMARK  status: ('A' for Active; 'I' for Inactive)
REMARK    1  A    between atoms: C_2  and  C_6 
REMARK    2  A    between atoms: C_4  and  C_5 
REMARK    3  A    between atoms: C_5  and  C_6 
REMARK    4  A    between atoms: C_6  and  N_10 
REMARK       I    between atoms: N_10  and  C_11 
REMARK    5  A    between atoms: C_11  and  C_18 
REMARK    6  A    between atoms: N_16  and  C_18 
REMARK    7  A    between atoms: C_18  and  C_24 
REMARK    8  A    between atoms: C_23  and  C_24 
ROOT
HETATM    1  N           1     -28.131  -5.222 -16.208  0.00  0.00    -0.344 N 
HETATM    2  C           1     -29.322  -5.648 -15.684  0.00  0.00     0.249 C 
HETATM    3  O           1     -29.360  -6.112 -14.569  0.00  0.00    -0.271 OA
HETATM    4  H           1     -27.832  -4.265 -16.074  0.00  0.00     0.163 HD
ENDROOT
BRANCH   1   5
HETATM    5  C           1     -27.298  -6.145 -16.956  0.00  0.00     0.189 C 
BRANCH   5   6
HETATM    6  C           1     -26.112  -6.546 -16.112  0.00  0.00     0.197 C 
HETATM    7  O           1     -26.201  -7.515 -15.328  0.00  0.00    -0.646 OA
HETATM    8  O           1     -25.040  -5.909 -16.198  0.00  0.00    -0.646 OA
ENDBRANCH   5   6
BRANCH   5   9
HETATM    9  C           1     -26.808  -5.467 -18.230  0.00  0.00     0.074 C 
BRANCH   9  10
HETATM   10  C           1     -26.621  -6.496 -19.301  0.00  0.00    -0.056 A 
HETATM   11  C           1     -25.346  -6.757 -19.802  0.00  0.00     0.007 A 
HETATM   12  C           1     -25.172  -7.716 -20.801  0.00  0.00     0.001 A 
HETATM   13  C           1     -26.273  -8.414 -21.297  0.00  0.00     0.000 A 
HETATM   14  C           1     -27.548  -8.152 -20.796  0.00  0.00     0.001 A 
HETATM   15  C           1     -27.722  -7.193 -19.798  0.00  0.00     0.007 A 
ENDBRANCH   9  10
ENDBRANCH   5   9
ENDBRANCH   1   5
BRANCH   2  16
HETATM   16  C           1     -30.588  -5.538 -16.500  0.00  0.00     0.284 C 
BRANCH  16  17
HETATM   17  N           1     -31.608  -4.752 -15.730  0.00  0.00    -0.066 N 
HETATM   18  H           1     -31.283  -4.630 -14.744  0.00  0.00     0.275 HD
HETATM   19  H           1     -31.730  -3.813 -16.173  0.00  0.00     0.275 HD
HETATM   20  H           1     -32.519  -5.263 -15.735  0.00  0.00     0.275 HD
ENDBRANCH  16  17
BRANCH  16  21
HETATM   21  C           1     -30.285  -4.828 -17.812  0.00  0.00     0.155 C 
BRANCH  21  22
HETATM   22  C           1     -30.642  -3.367 -17.691  0.00  0.00     0.175 C 
HETATM   23  O           1     -29.767  -2.534 -17.371  0.00  0.00    -0.648 OA
HETATM   24  O           1     -31.813  -2.989 -17.911  0.00  0.00    -0.648 OA
ENDBRANCH  21  22
ENDBRANCH  16  21
ENDBRANCH   2  16
TORSDOF 8
ENDMDL
MODEL 5
REMARK VINA RESULT:      -6.3     17.047     19.415
REMARK  8 active torsions:
REMARK  status: ('A' for Active; 'I' for Inactive)
REMARK    1  A    between atoms: C_2  and  C_6 
REMARK    2  A    between atoms: C_4  and  C_5 
REMARK    3  A    between atoms: C_5  and  C_6 
REMARK    4  A    between atoms: C_6  and  N_10 
REMARK       I    between atoms: N_10  and  C_11 
REMARK    5  A    between atoms: C_11  and  C_18 
REMARK    6  A    between atoms: N_16  and  C_18 
REMARK    7  A    between atoms: C_18  and  C_24 
REMARK    8  A    between atoms: C_23  and  C_24 
ROOT
HETATM    1  N           1     -21.077  -7.611  -1.898  0.00  0.00    -0.344 N 
HETATM    2  C           1     -21.696  -6.783  -2.795  0.00  0.00     0.249 C 
HETATM    3  O           1     -22.121  -5.711  -2.435  0.00  0.00    -0.271 OA
HETATM    4  H           1     -20.076  -7.547  -1.757  0.00  0.00     0.163 HD
ENDROOT
BRANCH   1   5
HETATM    5  C           1     -21.854  -8.579  -1.149  0.00  0.00     0.189 C 
BRANCH   5   6
HETATM    6  C           1     -22.289  -7.969   0.161  0.00  0.00     0.197 C 
HETATM    7  O           1     -21.512  -7.968   1.140  0.00  0.00    -0.646 OA
HETATM    8  O           1     -23.427  -7.463   0.267  0.00  0.00    -0.646 OA
ENDBRANCH   5   6
BRANCH   5   9
HETATM    9  C           1     -21.002  -9.813  -0.876  0.00  0.00     0.074 C 
BRANCH   9  10
HETATM   10  C           1     -21.881 -10.934  -0.417  0.00  0.00    -0.056 A 
HETATM   11  C           1     -21.468 -11.762   0.626  0.00  0.00     0.007 A 
HETATM   12  C           1     -22.288 -12.808   1.053  0.00  0.00     0.001 A 
HETATM   13  C           1     -23.520 -13.024   0.436  0.00  0.00     0.000 A 
HETATM   14  C           1     -23.932 -12.197  -0.607  0.00  0.00     0.001 A 
HETATM   15  C           1     -23.113 -11.151  -1.035  0.00  0.00     0.007 A 
ENDBRANCH   9  10
ENDBRANCH   5   9
ENDBRANCH   1   5
BRANCH   2  16
HETATM   16  C           1     -21.848  -7.210  -4.235  0.00  0.00     0.284 C 
BRANCH  16  17
HETATM   17  N           1     -22.722  -6.227  -4.956  0.00  0.00    -0.066 N 
HETATM   18  H           1     -22.125  -5.514  -5.433  0.00  0.00     0.275 HD
HETATM   19  H           1     -23.297  -6.730  -5.668  0.00  0.00     0.275 HD
HETATM   20  H           1     -23.351  -5.751  -4.271  0.00  0.00     0.275 HD
ENDBRANCH  16  17
BRANCH  16  21
HETATM   21  C           1     -20.478  -7.251  -4.899  0.00  0.00     0.155 C 
BRANCH  21  22
HETATM   22  C           1     -20.383  -6.155  -5.930  0.00  0.00     0.175 C 
HETATM   23  O           1     -20.575  -6.413  -7.137  0.00  0.00    -0.648 OA
HETATM   24  O           1     -20.113  -4.986  -5.577  0.00  0.00    -0.648 OA
ENDBRANCH  21  22
ENDBRANCH  16  21
ENDBRANCH   2  16
TORSDOF 8
ENDMDL
MODEL 6
REMARK VINA RESULT:      -6.2     15.316     17.442
REMARK  8 active torsions:
REMARK  status: ('A' for Active; 'I' for Inactive)
REMARK    1  A    between atoms: C_2  and  C_6 
REMARK    2  A    between atoms: C_4  and  C_5 
REMARK    3  A    between atoms: C_5  and  C_6 
REMARK    4  A    between atoms: C_6  and  N_10 
REMARK       I    between atoms: N_10  and  C_11 
REMARK    5  A    between atoms: C_11  and  C_18 
REMARK    6  A    between atoms: N_16  and  C_18 
REMARK    7  A    between atoms: C_18  and  C_24 
REMARK    8  A    between atoms: C_23  and  C_24 
ROOT
HETATM    1  N           1     -22.387  -6.412  -4.143  0.00  0.00    -0.344 N 
HETATM    2  C           1     -21.780  -6.322  -2.919  0.00  0.00     0.249 C 
HETATM    3  O           1     -21.288  -5.277  -2.564  0.00  0.00    -0.271 OA
HETATM    4  H           1     -23.373  -6.208  -4.236  0.00  0.00     0.163 HD
ENDROOT
BRANCH   1   5
HETATM    5  C           1     -21.614  -6.801  -5.307  0.00  0.00     0.189 C 
BRANCH   5   6
HETATM    6  C           1     -20.893  -8.096  -5.021  0.00  0.00     0.197 C 
HETATM    7  O           1     -21.529  -9.171  -4.982  0.00  0.00    -0.646 OA
HETATM    8  O           1     -19.659  -8.093  -4.823  0.00  0.00    -0.646 OA
ENDBRANCH   5   6
BRANCH   5   9
HETATM    9  C           1     -20.596  -5.713  -5.626  0.00  0.00     0.074 C 
BRANCH   9  10
HETATM   10  C           1     -20.894  -5.131  -6.973  0.00  0.00    -0.056 A 
HETATM   11  C           1     -22.130  -4.534  -7.217  0.00  0.00     0.007 A 
HETATM   12  C           1     -22.408  -3.992  -8.473  0.00  0.00     0.001 A 
HETATM   13  C           1     -21.448  -4.047  -9.483  0.00  0.00     0.000 A 
HETATM   14  C           1     -20.213  -4.645  -9.239  0.00  0.00     0.001 A 
HETATM   15  C           1     -19.934  -5.187  -7.984  0.00  0.00     0.007 A 
ENDBRANCH   9  10
ENDBRANCH   5   9
ENDBRANCH   1   5
BRANCH   2  16
HETATM   16  C           1     -21.728  -7.527  -2.012  0.00  0.00     0.284 C 
BRANCH  16  17
HETATM   17  N           1     -20.297  -7.868  -1.719  0.00  0.00    -0.066 N 
HETATM   18  H           1     -19.779  -7.000  -1.457  0.00  0.00     0.275 HD
HETATM   19  H           1     -20.257  -8.548  -0.926  0.00  0.00     0.275 HD
HETATM   20  H           1     -19.858  -8.293  -2.567  0.00  0.00     0.275 HD
ENDBRANCH  16  17
BRANCH  16  21
HETATM   21  C           1     -22.452  -7.213  -0.709  0.00  0.00     0.155 C 
BRANCH  21  22
HETATM   22  C           1     -22.399  -8.416   0.200  0.00  0.00     0.175 C 
HETATM   23  O           1     -23.247  -9.325   0.084  0.00  0.00    -0.648 OA
HETATM   24  O           1     -21.505  -8.503   1.070  0.00  0.00    -0.648 OA
ENDBRANCH  21  22
ENDBRANCH  16  21
ENDBRANCH   2  16
TORSDOF 8
ENDMDL
MODEL 7
REMARK VINA RESULT:      -6.2      5.378      7.784
REMARK  8 active torsions:
REMARK  status: ('A' for Active; 'I' for Inactive)
REMARK    1  A    between atoms: C_2  and  C_6 
REMARK    2  A    between atoms: C_4  and  C_5 
REMARK    3  A    between atoms: C_5  and  C_6 
REMARK    4  A    between atoms: C_6  and  N_10 
REMARK       I    between atoms: N_10  and  C_11 
REMARK    5  A    between atoms: C_11  and  C_18 
REMARK    6  A    between atoms: N_16  and  C_18 
REMARK    7  A    between atoms: C_18  and  C_24 
REMARK    8  A    between atoms: C_23  and  C_24 
ROOT
HETATM    1  N           1     -33.838  -4.544 -15.754  0.00  0.00    -0.344 N 
HETATM    2  C           1     -34.184  -3.892 -14.601  0.00  0.00     0.249 C 
HETATM    3  O           1     -34.657  -2.781 -14.653  0.00  0.00    -0.271 OA
HETATM    4  H           1     -34.514  -5.129 -16.227  0.00  0.00     0.163 HD
ENDROOT
BRANCH   1   5
HETATM    5  C           1     -32.501  -4.395 -16.297  0.00  0.00     0.189 C 
BRANCH   5   6
HETATM    6  C           1     -32.501  -3.299 -17.335  0.00  0.00     0.197 C 
HETATM    7  O           1     -31.435  -2.970 -17.898  0.00  0.00    -0.646 OA
HETATM    8  O           1     -33.568  -2.720 -17.632  0.00  0.00    -0.646 OA
ENDBRANCH   5   6
BRANCH   5   9
HETATM    9  C           1     -32.067  -5.705 -16.942  0.00  0.00     0.074 C 
BRANCH   9  10
HETATM   10  C           1     -30.572  -5.794 -16.930  0.00  0.00    -0.056 A 
HETATM   11  C           1     -29.866  -5.510 -15.762  0.00  0.00     0.007 A 
HETATM   12  C           1     -28.473  -5.593 -15.752  0.00  0.00     0.001 A 
HETATM   13  C           1     -27.788  -5.962 -16.910  0.00  0.00     0.000 A 
HETATM   14  C           1     -28.495  -6.245 -18.077  0.00  0.00     0.001 A 
HETATM   15  C           1     -29.888  -6.162 -18.088  0.00  0.00     0.007 A 
ENDBRANCH   9  10
ENDBRANCH   5   9
ENDBRANCH   1   5
BRANCH   2  16
HETATM   16  C           1     -33.975  -4.561 -13.264  0.00  0.00     0.284 C 
BRANCH  16  17
HETATM   17  N           1     -32.524  -4.487 -12.891  0.00  0.00    -0.066 N 
HETATM   18  H           1     -32.306  -3.530 -12.530  0.00  0.00     0.275 HD
HETATM   19  H           1     -32.320  -5.192 -12.148  0.00  0.00     0.275 HD
HETATM   20  H           1     -31.937  -4.684 -13.732  0.00  0.00     0.275 HD
ENDBRANCH  16  17
BRANCH  16  21
HETATM   21  C           1     -34.808  -3.849 -12.205  0.00  0.00     0.155 C 
BRANCH  21  22
HETATM   22  C           1     -34.037  -3.794 -10.910  0.00  0.00     0.175 C 
HETATM   23  O           1     -33.527  -2.719 -10.531  0.00  0.00    -0.648 OA
HETATM   24  O           1     -33.910  -4.825 -10.214  0.00  0.00    -0.648 OA
ENDBRANCH  21  22
ENDBRANCH  16  21
ENDBRANCH   2  16
TORSDOF 8
ENDMDL
MODEL 8
REMARK VINA RESULT:      -6.1     14.734     16.359
REMARK  8 active torsions:
REMARK  status: ('A' for Active; 'I' for Inactive)
REMARK    1  A    between atoms: C_2  and  C_6 
REMARK    2  A    between atoms: C_4  and  C_5 
REMARK    3  A    between atoms: C_5  and  C_6 
REMARK    4  A    between atoms: C_6  and  N_10 
REMARK       I    between atoms: N_10  and  C_11 
REMARK    5  A    between atoms: C_11  and  C_18 
REMARK    6  A    between atoms: N_16  and  C_18 
REMARK    7  A    between atoms: C_18  and  C_24 
REMARK    8  A    between atoms: C_23  and  C_24 
ROOT
HETATM    1  N           1     -22.187  -5.576  -5.687  0.00  0.00    -0.344 N 
HETATM    2  C           1     -21.618  -6.345  -4.708  0.00  0.00     0.249 C 
HETATM    3  O           1     -20.856  -5.846  -3.913  0.00  0.00    -0.271 OA
HETATM    4  H           1     -23.070  -5.112  -5.517  0.00  0.00     0.163 HD
ENDROOT
BRANCH   1   5
HETATM    5  C           1     -21.523  -5.427  -6.968  0.00  0.00     0.189 C 
BRANCH   5   6
HETATM    6  C           1     -20.030  -5.534  -6.775  0.00  0.00     0.197 C 
HETATM    7  O           1     -19.444  -6.612  -7.010  0.00  0.00    -0.646 OA
HETATM    8  O           1     -19.379  -4.543  -6.380  0.00  0.00    -0.646 OA
ENDBRANCH   5   6
BRANCH   5   9
HETATM    9  C           1     -21.862  -4.064  -7.559  0.00  0.00     0.074 C 
BRANCH   9  10
HETATM   10  C           1     -21.824  -4.146  -9.054  0.00  0.00    -0.056 A 
HETATM   11  C           1     -20.632  -3.904  -9.735  0.00  0.00     0.007 A 
HETATM   12  C           1     -20.598  -3.979 -11.129  0.00  0.00     0.001 A 
HETATM   13  C           1     -21.755  -4.298 -11.838  0.00  0.00     0.000 A 
HETATM   14  C           1     -22.947  -4.539 -11.156  0.00  0.00     0.001 A 
HETATM   15  C           1     -22.983  -4.463  -9.764  0.00  0.00     0.007 A 
ENDBRANCH   9  10
ENDBRANCH   5   9
ENDBRANCH   1   5
BRANCH   2  16
HETATM   16  C           1     -21.942  -7.817  -4.620  0.00  0.00     0.284 C 
BRANCH  16  17
HETATM   17  N           1     -21.133  -8.567  -5.638  0.00  0.00    -0.066 N 
HETATM   18  H           1     -20.909  -9.519  -5.271  0.00  0.00     0.275 HD
HETATM   19  H           1     -21.683  -8.656  -6.522  0.00  0.00     0.275 HD
HETATM   20  H           1     -20.245  -8.049  -5.828  0.00  0.00     0.275 HD
ENDBRANCH  16  17
BRANCH  16  21
HETATM   21  C           1     -21.603  -8.329  -3.227  0.00  0.00     0.155 C 
BRANCH  21  22
HETATM   22  C           1     -21.331  -9.811  -3.286  0.00  0.00     0.175 C 
HETATM   23  O           1     -20.169 -10.241  -3.118  0.00  0.00    -0.648 OA
HETATM   24  O           1     -22.267 -10.611  -3.501  0.00  0.00    -0.648 OA
ENDBRANCH  21  22
ENDBRANCH  16  21
ENDBRANCH   2  16
TORSDOF 8
ENDMDL
MODEL 9
REMARK VINA RESULT:      -6.1      9.689     12.209
REMARK  8 active torsions:
REMARK  status: ('A' for Active; 'I' for Inactive)
REMARK    1  A    between atoms: C_2  and  C_6 
REMARK    2  A    between atoms: C_4  and  C_5 
REMARK    3  A    between atoms: C_5  and  C_6 
REMARK    4  A    between atoms: C_6  and  N_10 
REMARK       I    between atoms: N_10  and  C_11 
REMARK    5  A    between atoms: C_11  and  C_18 
REMARK    6  A    between atoms: N_16  and  C_18 
REMARK    7  A    between atoms: C_18  and  C_24 
REMARK    8  A    between atoms: C_23  and  C_24 
ROOT
HETATM    1  N           1     -27.568  -5.202 -16.581  0.00  0.00    -0.344 N 
HETATM    2  C           1     -28.896  -5.248 -16.251  0.00  0.00     0.249 C 
HETATM    3  O           1     -29.228  -5.364 -15.095  0.00  0.00    -0.271 OA
HETATM    4  H           1     -27.086  -4.313 -16.617  0.00  0.00     0.163 HD
ENDROOT
BRANCH   1   5
HETATM    5  C           1     -26.853  -6.428 -16.877  0.00  0.00     0.189 C 
BRANCH   5   6
HETATM    6  C           1     -26.580  -7.173 -15.593  0.00  0.00     0.197 C 
HETATM    7  O           1     -27.506  -7.780 -15.013  0.00  0.00    -0.646 OA
HETATM    8  O           1     -25.428  -7.182 -15.109  0.00  0.00    -0.646 OA
ENDBRANCH   5   6
BRANCH   5   9
HETATM    9  C           1     -25.533  -6.094 -17.560  0.00  0.00     0.074 C 
BRANCH   9  10
HETATM   10  C           1     -25.476  -6.771 -18.894  0.00  0.00    -0.056 A 
HETATM   11  C           1     -24.269  -7.288 -19.362  0.00  0.00     0.007 A 
HETATM   12  C           1     -24.216  -7.920 -20.606  0.00  0.00     0.001 A 
HETATM   13  C           1     -25.371  -8.034 -21.379  0.00  0.00     0.000 A 
HETATM   14  C           1     -26.577  -7.516 -20.911  0.00  0.00     0.001 A 
HETATM   15  C           1     -26.631  -6.885 -19.668  0.00  0.00     0.007 A 
ENDBRANCH   9  10
ENDBRANCH   5   9
ENDBRANCH   1   5
BRANCH   2  16
HETATM   16  C           1     -29.946  -5.152 -17.332  0.00  0.00     0.284 C 
BRANCH  16  17
HETATM   17  N           1     -29.289  -5.267 -18.675  0.00  0.00    -0.066 N 
HETATM   18  H           1     -28.257  -5.143 -18.570  0.00  0.00     0.275 HD
HETATM   19  H           1     -29.486  -6.210 -19.079  0.00  0.00     0.275 HD
HETATM   20  H           1     -29.665  -4.528 -19.312  0.00  0.00     0.275 HD
ENDBRANCH  16  17
BRANCH  16  21
HETATM   21  C           1     -30.954  -6.281 -17.162  0.00  0.00     0.155 C 
BRANCH  21  22
HETATM   22  C           1     -30.472  -7.503 -17.904  0.00  0.00     0.175 C 
HETATM   23  O           1     -30.942  -7.778 -19.028  0.00  0.00    -0.648 OA
HETATM   24  O           1     -29.601  -8.241 -17.394  0.00  0.00    -0.648 OA
ENDBRANCH  21  22
ENDBRANCH  16  21
ENDBRANCH   2  16
TORSDOF 8
ENDMDL
