MODEL 1
REMARK VINA RESULT:      -7.5      0.000      0.000
REMARK  9 active torsions:
REMARK  status: ('A' for Active; 'I' for Inactive)
REMARK    1  A    between atoms: N_1  and  C_16 
REMARK       I    between atoms: N_1  and  C_2 
REMARK    2  A    between atoms: C_2  and  C_3 
REMARK    3  A    between atoms: C_3  and  C_4 
REMARK    4  A    between atoms: C_3  and  N_8 
REMARK    5  A    between atoms: C_4  and  C_5 
REMARK    6  A    between atoms: O_13  and  C_14 
REMARK    7  A    between atoms: C_15  and  C_26 
REMARK    8  A    between atoms: C_15  and  C_16 
REMARK    9  A    between atoms: C_16  and  C_17 
ROOT
HETATM    1  N           1     -25.986  -6.704 -18.531  0.00  0.00    -0.344 N 
HETATM    2  C           1     -26.322  -6.483 -19.839  0.00  0.00     0.249 C 
HETATM    3  O           1     -27.319  -5.854 -20.108  0.00  0.00    -0.271 OA
HETATM    4  H           1     -25.152  -7.231 -18.305  0.00  0.00     0.163 HD
ENDROOT
BRANCH   1   5
HETATM    5  C           1     -26.826  -6.187 -17.468  0.00  0.00     0.189 C 
BRANCH   5   6
HETATM    6  C           1     -28.180  -6.883 -17.507  0.00  0.00     0.074 C 
BRANCH   6   7
HETATM    7  C           1     -29.270  -5.857 -17.460  0.00  0.00    -0.056 A 
HETATM    8  C           1     -30.572  -6.238 -17.135  0.00  0.00     0.010 A 
HETATM    9  C           1     -31.587  -5.283 -17.091  0.00  0.00     0.037 A 
HETATM   10  C           1     -31.301  -3.947 -17.370  0.00  0.00     0.065 A 
HETATM   11  C           1     -29.999  -3.566 -17.694  0.00  0.00     0.037 A 
HETATM   12  C           1     -28.983  -4.521 -17.739  0.00  0.00     0.010 A 
BRANCH  10  13
HETATM   13  O           1     -32.287  -3.018 -17.327  0.00  0.00    -0.361 OA
HETATM   14  H           1     -33.051  -3.413 -16.876  0.00  0.00     0.217 HD
ENDBRANCH  10  13
ENDBRANCH   6   7
ENDBRANCH   5   6
BRANCH   5  15
HETATM   15  C           1     -26.165  -6.446 -16.136  0.00  0.00     0.197 C 
HETATM   16  O           1     -25.174  -5.768 -15.788  0.00  0.00    -0.646 OA
HETATM   17  O           1     -26.609  -7.337 -15.380  0.00  0.00    -0.646 OA
ENDBRANCH   5  15
ENDBRANCH   1   5
BRANCH   2  18
HETATM   18  C           1     -25.449  -7.022 -20.944  0.00  0.00     0.284 C 
BRANCH  18  19
HETATM   19  C           1     -24.289  -7.804 -20.341  0.00  0.00     0.155 C 
BRANCH  19  20
HETATM   20  C           1     -23.392  -8.305 -21.446  0.00  0.00     0.175 C 
HETATM   21  O           1     -23.836  -8.423 -22.607  0.00  0.00    -0.648 OA
HETATM   22  O           1     -22.203  -8.602 -21.198  0.00  0.00    -0.648 OA
ENDBRANCH  19  20
ENDBRANCH  18  19
BRANCH  18  23
HETATM   23  N           1     -24.912  -5.883 -21.759  0.00  0.00    -0.066 N 
HETATM   24  H           1     -25.043  -6.088 -22.775  0.00  0.00     0.275 HD
HETATM   25  H           1     -25.427  -5.007 -21.512  0.00  0.00     0.275 HD
HETATM   26  H           1     -23.895  -5.759 -21.557  0.00  0.00     0.275 HD
ENDBRANCH  18  23
ENDBRANCH   2  18
TORSDOF 9
ENDMDL
MODEL 2
REMARK VINA RESULT:      -7.5     11.590     14.765
REMARK  9 active torsions:
REMARK  status: ('A' for Active; 'I' for Inactive)
REMARK    1  A    between atoms: N_1  and  C_16 
REMARK       I    between atoms: N_1  and  C_2 
REMARK    2  A    between atoms: C_2  and  C_3 
REMARK    3  A    between atoms: C_3  and  C_4 
REMARK    4  A    between atoms: C_3  and  N_8 
REMARK    5  A    between atoms: C_4  and  C_5 
REMARK    6  A    between atoms: O_13  and  C_14 
REMARK    7  A    between atoms: C_15  and  C_26 
REMARK    8  A    between atoms: C_15  and  C_16 
REMARK    9  A    between atoms: C_16  and  C_17 
ROOT
HETATM    1  N           1     -21.039  -5.133  -5.206  0.00  0.00    -0.344 N 
HETATM    2  C           1     -21.317  -6.239  -4.450  0.00  0.00     0.249 C 
HETATM    3  O           1     -21.578  -7.289  -4.989  0.00  0.00    -0.271 OA
HETATM    4  H           1     -20.821  -4.253  -4.755  0.00  0.00     0.163 HD
ENDROOT
BRANCH   1   5
HETATM    5  C           1     -21.057  -5.220  -6.654  0.00  0.00     0.189 C 
BRANCH   5   6
HETATM    6  C           1     -21.532  -3.895  -7.236  0.00  0.00     0.074 C 
BRANCH   6   7
HETATM    7  C           1     -22.093  -4.124  -8.605  0.00  0.00    -0.056 A 
HETATM    8  C           1     -21.249  -4.105  -9.715  0.00  0.00     0.010 A 
HETATM    9  C           1     -21.772  -4.318 -10.991  0.00  0.00     0.037 A 
HETATM   10  C           1     -23.136  -4.553 -11.156  0.00  0.00     0.065 A 
HETATM   11  C           1     -23.980  -4.573 -10.046  0.00  0.00     0.037 A 
HETATM   12  C           1     -23.459  -4.358  -8.769  0.00  0.00     0.010 A 
BRANCH  10  13
HETATM   13  O           1     -23.643  -4.761 -12.395  0.00  0.00    -0.361 OA
HETATM   14  H           1     -24.129  -3.962 -12.660  0.00  0.00     0.217 HD
ENDBRANCH  10  13
ENDBRANCH   6   7
ENDBRANCH   5   6
BRANCH   5  15
HETATM   15  C           1     -19.665  -5.519  -7.155  0.00  0.00     0.197 C 
HETATM   16  O           1     -19.327  -6.698  -7.396  0.00  0.00    -0.646 OA
HETATM   17  O           1     -18.850  -4.587  -7.330  0.00  0.00    -0.646 OA
ENDBRANCH   5  15
ENDBRANCH   1   5
BRANCH   2  18
HETATM   18  C           1     -21.300  -6.148  -2.945  0.00  0.00     0.284 C 
BRANCH  18  19
HETATM   19  C           1     -20.703  -7.423  -2.364  0.00  0.00     0.155 C 
BRANCH  19  20
HETATM   20  C           1     -21.652  -8.005  -1.346  0.00  0.00     0.175 C 
HETATM   21  O           1     -22.298  -9.041  -1.614  0.00  0.00    -0.648 OA
HETATM   22  O           1     -21.791  -7.452  -0.234  0.00  0.00    -0.648 OA
ENDBRANCH  19  20
ENDBRANCH  18  19
BRANCH  18  23
HETATM   23  N           1     -22.702  -5.978  -2.438  0.00  0.00    -0.066 N 
HETATM   24  H           1     -23.349  -5.833  -3.245  0.00  0.00     0.275 HD
HETATM   25  H           1     -22.987  -6.835  -1.912  0.00  0.00     0.275 HD
HETATM   26  H           1     -22.745  -5.149  -1.804  0.00  0.00     0.275 HD
ENDBRANCH  18  23
ENDBRANCH   2  18
TORSDOF 9
ENDMDL
MODEL 3
REMARK VINA RESULT:      -7.1      1.976      6.878
REMARK  9 active torsions:
REMARK  status: ('A' for Active; 'I' for Inactive)
REMARK    1  A    between atoms: N_1  and  C_16 
REMARK       I    between atoms: N_1  and  C_2 
REMARK    2  A    between atoms: C_2  and  C_3 
REMARK    3  A    between atoms: C_3  and  C_4 
REMARK    4  A    between atoms: C_3  and  N_8 
REMARK    5  A    between atoms: C_4  and  C_5 
REMARK    6  A    between atoms: O_13  and  C_14 
REMARK    7  A    between atoms: C_15  and  C_26 
REMARK    8  A    between atoms: C_15  and  C_16 
REMARK    9  A    between atoms: C_16  and  C_17 
ROOT
HETATM    1  N           1     -27.892  -5.218 -16.655  0.00  0.00    -0.344 N 
HETATM    2  C           1     -28.990  -4.941 -17.423  0.00  0.00     0.249 C 
HETATM    3  O           1     -29.305  -5.690 -18.318  0.00  0.00    -0.271 OA
HETATM    4  H           1     -27.627  -4.590 -15.906  0.00  0.00     0.163 HD
ENDROOT
BRANCH   1   5
HETATM    5  C           1     -27.106  -6.409 -16.914  0.00  0.00     0.189 C 
BRANCH   5   6
HETATM    6  C           1     -25.721  -6.007 -17.402  0.00  0.00     0.074 C 
BRANCH   6   7
HETATM    7  C           1     -25.448  -6.660 -18.721  0.00  0.00    -0.056 A 
HETATM    8  C           1     -26.455  -6.734 -19.684  0.00  0.00     0.010 A 
HETATM    9  C           1     -26.200  -7.343 -20.913  0.00  0.00     0.037 A 
HETATM   10  C           1     -24.940  -7.876 -21.180  0.00  0.00     0.065 A 
HETATM   11  C           1     -23.932  -7.801 -20.218  0.00  0.00     0.037 A 
HETATM   12  C           1     -24.186  -7.193 -18.988  0.00  0.00     0.010 A 
BRANCH  10  13
HETATM   13  O           1     -24.693  -8.467 -22.375  0.00  0.00    -0.361 OA
HETATM   14  H           1     -25.478  -8.352 -22.934  0.00  0.00     0.217 HD
ENDBRANCH  10  13
ENDBRANCH   6   7
ENDBRANCH   5   6
BRANCH   5  15
HETATM   15  C           1     -26.978  -7.211 -15.642  0.00  0.00     0.197 C 
HETATM   16  O           1     -28.003  -7.576 -15.027  0.00  0.00    -0.646 OA
HETATM   17  O           1     -25.846  -7.511 -15.203  0.00  0.00    -0.646 OA
ENDBRANCH   5  15
ENDBRANCH   1   5
BRANCH   2  18
HETATM   18  C           1     -29.806  -3.701 -17.155  0.00  0.00     0.284 C 
BRANCH  18  19
HETATM   19  C           1     -31.028  -3.690 -18.063  0.00  0.00     0.155 C 
BRANCH  19  20
HETATM   20  C           1     -32.280  -3.625 -17.223  0.00  0.00     0.175 C 
HETATM   21  O           1     -32.374  -4.320 -16.189  0.00  0.00    -0.648 OA
HETATM   22  O           1     -33.221  -2.877 -17.562  0.00  0.00    -0.648 OA
ENDBRANCH  19  20
ENDBRANCH  18  19
BRANCH  18  23
HETATM   23  N           1     -28.971  -2.484 -17.427  0.00  0.00    -0.066 N 
HETATM   24  H           1     -28.236  -2.716 -18.132  0.00  0.00     0.275 HD
HETATM   25  H           1     -29.581  -1.721 -17.797  0.00  0.00     0.275 HD
HETATM   26  H           1     -28.516  -2.170 -16.541  0.00  0.00     0.275 HD
ENDBRANCH  18  23
ENDBRANCH   2  18
TORSDOF 9
ENDMDL
MODEL 4
REMARK VINA RESULT:      -7.1     11.401     14.310
REMARK  9 active torsions:
REMARK  status: ('A' for Active; 'I' for Inactive)
REMARK    1  A    between atoms: N_1  and  C_16 
REMARK       I    between atoms: N_1  and  C_2 
REMARK    2  A    between atoms: C_2  and  C_3 
REMARK    3  A    between atoms: C_3  and  C_4 
REMARK    4  A    between atoms: C_3  and  N_8 
REMARK    5  A    between atoms: C_4  and  C_5 
REMARK    6  A    between atoms: O_13  and  C_14 
REMARK    7  A    between atoms: C_15  and  C_26 
REMARK    8  A    between atoms: C_15  and  C_16 
REMARK    9  A    between atoms: C_16  and  C_17 
ROOT
HETATM    1  N           1     -21.758  -5.078  -7.517  0.00  0.00    -0.344 N 
HETATM    2  C           1     -23.024  -4.594  -7.708  0.00  0.00     0.249 C 
HETATM    3  O           1     -23.748  -4.405  -6.759  0.00  0.00    -0.271 OA
HETATM    4  H           1     -21.152  -5.237  -8.311  0.00  0.00     0.163 HD
ENDROOT
BRANCH   1   5
HETATM    5  C           1     -21.286  -5.365  -6.176  0.00  0.00     0.189 C 
BRANCH   5   6
HETATM    6  C           1     -21.212  -6.873  -5.976  0.00  0.00     0.074 C 
BRANCH   6   7
HETATM    7  C           1     -21.144  -7.179  -4.512  0.00  0.00    -0.056 A 
HETATM    8  C           1     -20.303  -8.192  -4.051  0.00  0.00     0.010 A 
HETATM    9  C           1     -20.239  -8.478  -2.687  0.00  0.00     0.037 A 
HETATM   10  C           1     -21.014  -7.750  -1.785  0.00  0.00     0.065 A 
HETATM   11  C           1     -21.854  -6.736  -2.246  0.00  0.00     0.037 A 
HETATM   12  C           1     -21.919  -6.450  -3.610  0.00  0.00     0.010 A 
BRANCH  10  13
HETATM   13  O           1     -20.951  -8.026  -0.459  0.00  0.00    -0.361 OA
HETATM   14  H           1     -21.657  -8.661  -0.251  0.00  0.00     0.217 HD
ENDBRANCH  10  13
ENDBRANCH   6   7
ENDBRANCH   5   6
BRANCH   5  15
HETATM   15  C           1     -19.914  -4.765  -5.989  0.00  0.00     0.197 C 
HETATM   16  O           1     -19.595  -4.265  -4.888  0.00  0.00    -0.646 OA
HETATM   17  O           1     -19.096  -4.768  -6.934  0.00  0.00    -0.646 OA
ENDBRANCH   5  15
ENDBRANCH   1   5
BRANCH   2  18
HETATM   18  C           1     -23.515  -4.297  -9.103  0.00  0.00     0.284 C 
BRANCH  18  19
HETATM   19  C           1     -22.353  -3.813  -9.960  0.00  0.00     0.155 C 
BRANCH  19  20
HETATM   20  C           1     -22.612  -4.164 -11.405  0.00  0.00     0.175 C 
HETATM   21  O           1     -23.702  -4.676 -11.737  0.00  0.00    -0.648 OA
HETATM   22  O           1     -21.737  -3.941 -12.268  0.00  0.00    -0.648 OA
ENDBRANCH  19  20
ENDBRANCH  18  19
BRANCH  18  23
HETATM   23  N           1     -24.569  -3.231  -9.045  0.00  0.00    -0.066 N 
HETATM   24  H           1     -25.129  -3.246  -9.927  0.00  0.00     0.275 HD
HETATM   25  H           1     -25.199  -3.409  -8.230  0.00  0.00     0.275 HD
HETATM   26  H           1     -24.114  -2.297  -8.938  0.00  0.00     0.275 HD
ENDBRANCH  18  23
ENDBRANCH   2  18
TORSDOF 9
ENDMDL
MODEL 5
REMARK VINA RESULT:      -6.9     13.064     15.944
REMARK  9 active torsions:
REMARK  status: ('A' for Active; 'I' for Inactive)
REMARK    1  A    between atoms: N_1  and  C_16 
REMARK       I    between atoms: N_1  and  C_2 
REMARK    2  A    between atoms: C_2  and  C_3 
REMARK    3  A    between atoms: C_3  and  C_4 
REMARK    4  A    between atoms: C_3  and  N_8 
REMARK    5  A    between atoms: C_4  and  C_5 
REMARK    6  A    between atoms: O_13  and  C_14 
REMARK    7  A    between atoms: C_15  and  C_26 
REMARK    8  A    between atoms: C_15  and  C_16 
REMARK    9  A    between atoms: C_16  and  C_17 
ROOT
HETATM    1  N           1     -20.056  -6.924  -6.050  0.00  0.00    -0.344 N 
HETATM    2  C           1     -20.178  -5.561  -6.043  0.00  0.00     0.249 C 
HETATM    3  O           1     -20.279  -4.969  -4.994  0.00  0.00    -0.271 OA
HETATM    4  H           1     -19.971  -7.420  -6.928  0.00  0.00     0.163 HD
ENDROOT
BRANCH   1   5
HETATM    5  C           1     -20.048  -7.658  -4.799  0.00  0.00     0.189 C 
BRANCH   5   6
HETATM    6  C           1     -21.453  -8.169  -4.502  0.00  0.00     0.074 C 
BRANCH   6   7
HETATM    7  C           1     -21.718  -8.072  -3.032  0.00  0.00    -0.056 A 
HETATM    8  C           1     -21.954  -6.828  -2.447  0.00  0.00     0.010 A 
HETATM    9  C           1     -22.201  -6.739  -1.077  0.00  0.00     0.037 A 
HETATM   10  C           1     -22.214  -7.891  -0.293  0.00  0.00     0.065 A 
HETATM   11  C           1     -21.978  -9.135  -0.878  0.00  0.00     0.037 A 
HETATM   12  C           1     -21.730  -9.226  -2.248  0.00  0.00     0.010 A 
BRANCH  10  13
HETATM   13  O           1     -22.454  -7.804   1.038  0.00  0.00    -0.361 OA
HETATM   14  H           1     -22.481  -6.863   1.277  0.00  0.00     0.217 HD
ENDBRANCH  10  13
ENDBRANCH   6   7
ENDBRANCH   5   6
BRANCH   5  15
HETATM   15  C           1     -19.101  -8.828  -4.911  0.00  0.00     0.197 C 
HETATM   16  O           1     -18.527  -9.267  -3.891  0.00  0.00    -0.646 OA
HETATM   17  O           1     -18.891  -9.359  -6.023  0.00  0.00    -0.646 OA
ENDBRANCH   5  15
ENDBRANCH   1   5
BRANCH   2  18
HETATM   18  C           1     -20.187  -4.798  -7.344  0.00  0.00     0.284 C 
BRANCH  18  19
HETATM   19  C           1     -21.113  -3.595  -7.222  0.00  0.00     0.155 C 
BRANCH  19  20
HETATM   20  C           1     -22.431  -3.904  -7.888  0.00  0.00     0.175 C 
HETATM   21  O           1     -22.628  -3.562  -9.073  0.00  0.00    -0.648 OA
HETATM   22  O           1     -23.326  -4.502  -7.254  0.00  0.00    -0.648 OA
ENDBRANCH  19  20
ENDBRANCH  18  19
BRANCH  18  23
HETATM   23  N           1     -20.675  -5.692  -8.445  0.00  0.00    -0.066 N 
HETATM   24  H           1     -21.714  -5.781  -8.388  0.00  0.00     0.275 HD
HETATM   25  H           1     -20.410  -5.281  -9.369  0.00  0.00     0.275 HD
HETATM   26  H           1     -20.240  -6.637  -8.345  0.00  0.00     0.275 HD
ENDBRANCH  18  23
ENDBRANCH   2  18
TORSDOF 9
ENDMDL
MODEL 6
REMARK VINA RESULT:      -6.4     15.421     18.230
REMARK  9 active torsions:
REMARK  status: ('A' for Active; 'I' for Inactive)
REMARK    1  A    between atoms: N_1  and  C_16 
REMARK       I    between atoms: N_1  and  C_2 
REMARK    2  A    between atoms: C_2  and  C_3 
REMARK    3  A    between atoms: C_3  and  C_4 
REMARK    4  A    between atoms: C_3  and  N_8 
REMARK    5  A    between atoms: C_4  and  C_5 
REMARK    6  A    between atoms: O_13  and  C_14 
REMARK    7  A    between atoms: C_15  and  C_26 
REMARK    8  A    between atoms: C_15  and  C_16 
REMARK    9  A    between atoms: C_16  and  C_17 
ROOT
HETATM    1  N           1     -21.092  -8.488  -2.527  0.00  0.00    -0.344 N 
HETATM    2  C           1     -21.247  -9.339  -3.587  0.00  0.00     0.249 C 
HETATM    3  O           1     -22.106 -10.190  -3.559  0.00  0.00    -0.271 OA
HETATM    4  H           1     -20.373  -7.777  -2.550  0.00  0.00     0.163 HD
ENDROOT
BRANCH   1   5
HETATM    5  C           1     -21.957  -8.607  -1.369  0.00  0.00     0.189 C 
BRANCH   5   6
HETATM    6  C           1     -21.190  -9.262  -0.228  0.00  0.00     0.074 C 
BRANCH   6   7
HETATM    7  C           1     -21.832 -10.570   0.118  0.00  0.00    -0.056 A 
HETATM    8  C           1     -21.089 -11.565   0.752  0.00  0.00     0.010 A 
HETATM    9  C           1     -21.687 -12.783   1.074  0.00  0.00     0.037 A 
HETATM   10  C           1     -23.028 -13.006   0.765  0.00  0.00     0.065 A 
HETATM   11  C           1     -23.772 -12.010   0.132  0.00  0.00     0.037 A 
HETATM   12  C           1     -23.175 -10.792  -0.191  0.00  0.00     0.010 A 
BRANCH  10  13
HETATM   13  O           1     -23.609 -14.189   1.079  0.00  0.00    -0.361 OA
HETATM   14  H           1     -24.570 -14.088   0.975  0.00  0.00     0.217 HD
ENDBRANCH  10  13
ENDBRANCH   6   7
ENDBRANCH   5   6
BRANCH   5  15
HETATM   15  C           1     -22.416  -7.233  -0.944  0.00  0.00     0.197 C 
HETATM   16  O           1     -22.139  -6.237  -1.646  0.00  0.00    -0.646 OA
HETATM   17  O           1     -23.073  -7.092   0.110  0.00  0.00    -0.646 OA
ENDBRANCH   5  15
ENDBRANCH   1   5
BRANCH   2  18
HETATM   18  C           1     -20.346  -9.217  -4.791  0.00  0.00     0.284 C 
BRANCH  18  19
HETATM   19  C           1     -20.003  -7.751  -5.023  0.00  0.00     0.155 C 
BRANCH  19  20
HETATM   20  C           1     -21.135  -7.079  -5.760  0.00  0.00     0.175 C 
HETATM   21  O           1     -22.202  -6.820  -5.164  0.00  0.00    -0.648 OA
HETATM   22  O           1     -21.006  -6.783  -6.967  0.00  0.00    -0.648 OA
ENDBRANCH  19  20
ENDBRANCH  18  19
BRANCH  18  23
HETATM   23  N           1     -21.050  -9.761  -5.999  0.00  0.00    -0.066 N 
HETATM   24  H           1     -20.440 -10.468  -6.469  0.00  0.00     0.275 HD
HETATM   25  H           1     -21.944 -10.214  -5.705  0.00  0.00     0.275 HD
HETATM   26  H           1     -21.254  -8.982  -6.664  0.00  0.00     0.275 HD
ENDBRANCH  18  23
ENDBRANCH   2  18
TORSDOF 9
ENDMDL
MODEL 7
REMARK VINA RESULT:      -6.3     12.769     15.091
REMARK  9 active torsions:
REMARK  status: ('A' for Active; 'I' for Inactive)
REMARK    1  A    between atoms: N_1  and  C_16 
REMARK       I    between atoms: N_1  and  C_2 
REMARK    2  A    between atoms: C_2  and  C_3 
REMARK    3  A    between atoms: C_3  and  C_4 
REMARK    4  A    between atoms: C_3  and  N_8 
REMARK    5  A    between atoms: C_4  and  C_5 
REMARK    6  A    between atoms: O_13  and  C_14 
REMARK    7  A    between atoms: C_15  and  C_26 
REMARK    8  A    between atoms: C_15  and  C_16 
REMARK    9  A    between atoms: C_16  and  C_17 
ROOT
HETATM    1  N           1     -21.487  -8.494  -4.394  0.00  0.00    -0.344 N 
HETATM    2  C           1     -20.417  -9.242  -4.804  0.00  0.00     0.249 C 
HETATM    3  O           1     -19.342  -8.717  -4.971  0.00  0.00    -0.271 OA
HETATM    4  H           1     -22.388  -8.933  -4.254  0.00  0.00     0.163 HD
ENDROOT
BRANCH   1   5
HETATM    5  C           1     -21.331  -7.071  -4.163  0.00  0.00     0.189 C 
BRANCH   5   6
HETATM    6  C           1     -22.389  -6.309  -4.951  0.00  0.00     0.074 C 
BRANCH   6   7
HETATM    7  C           1     -21.745  -5.625  -6.117  0.00  0.00    -0.056 A 
HETATM    8  C           1     -20.382  -5.796  -6.360  0.00  0.00     0.010 A 
HETATM    9  C           1     -19.783  -5.159  -7.446  0.00  0.00     0.037 A 
HETATM   10  C           1     -20.545  -4.353  -8.291  0.00  0.00     0.065 A 
HETATM   11  C           1     -21.909  -4.183  -8.049  0.00  0.00     0.037 A 
HETATM   12  C           1     -22.509  -4.819  -6.962  0.00  0.00     0.010 A 
BRANCH  10  13
HETATM   13  O           1     -19.963  -3.735  -9.347  0.00  0.00    -0.361 OA
HETATM   14  H           1     -20.213  -2.796  -9.321  0.00  0.00     0.217 HD
ENDBRANCH  10  13
ENDBRANCH   6   7
ENDBRANCH   5   6
BRANCH   5  15
HETATM   15  C           1     -21.496  -6.782  -2.691  0.00  0.00     0.197 C 
HETATM   16  O           1     -22.307  -5.909  -2.312  0.00  0.00    -0.646 OA
HETATM   17  O           1     -20.822  -7.415  -1.850  0.00  0.00    -0.646 OA
ENDBRANCH   5  15
ENDBRANCH   1   5
BRANCH   2  18
HETATM   18  C           1     -20.580 -10.722  -5.046  0.00  0.00     0.284 C 
BRANCH  18  19
HETATM   19  C           1     -19.212 -11.391  -5.052  0.00  0.00     0.155 C 
BRANCH  19  20
HETATM   20  C           1     -18.954 -11.997  -6.410  0.00  0.00     0.175 C 
HETATM   21  O           1     -19.102 -13.225  -6.584  0.00  0.00    -0.648 OA
HETATM   22  O           1     -18.592 -11.270  -7.360  0.00  0.00    -0.648 OA
ENDBRANCH  19  20
ENDBRANCH  18  19
BRANCH  18  23
HETATM   23  N           1     -21.248 -10.941  -6.371  0.00  0.00    -0.066 N 
HETATM   24  H           1     -20.826 -11.774  -6.841  0.00  0.00     0.275 HD
HETATM   25  H           1     -22.270 -11.106  -6.222  0.00  0.00     0.275 HD
HETATM   26  H           1     -21.114 -10.098  -6.972  0.00  0.00     0.275 HD
ENDBRANCH  18  23
ENDBRANCH   2  18
TORSDOF 9
ENDMDL
MODEL 8
REMARK VINA RESULT:      -6.3     16.349     18.299
REMARK  9 active torsions:
REMARK  status: ('A' for Active; 'I' for Inactive)
REMARK    1  A    between atoms: N_1  and  C_16 
REMARK       I    between atoms: N_1  and  C_2 
REMARK    2  A    between atoms: C_2  and  C_3 
REMARK    3  A    between atoms: C_3  and  C_4 
REMARK    4  A    between atoms: C_3  and  N_8 
REMARK    5  A    between atoms: C_4  and  C_5 
REMARK    6  A    between atoms: O_13  and  C_14 
REMARK    7  A    between atoms: C_15  and  C_26 
REMARK    8  A    between atoms: C_15  and  C_16 
REMARK    9  A    between atoms: C_16  and  C_17 
ROOT
HETATM    1  N           1     -20.750  -8.497  -3.048  0.00  0.00    -0.344 N 
HETATM    2  C           1     -20.979  -9.518  -3.930  0.00  0.00     0.249 C 
HETATM    3  O           1     -22.017 -10.136  -3.884  0.00  0.00    -0.271 OA
HETATM    4  H           1     -19.881  -7.980  -3.086  0.00  0.00     0.163 HD
ENDROOT
BRANCH   1   5
HETATM    5  C           1     -21.753  -8.157  -2.057  0.00  0.00     0.189 C 
BRANCH   5   6
HETATM    6  C           1     -21.245  -8.533  -0.671  0.00  0.00     0.074 C 
BRANCH   6   7
HETATM    7  C           1     -21.848  -9.838  -0.255  0.00  0.00    -0.056 A 
HETATM    8  C           1     -23.213 -10.064  -0.436  0.00  0.00     0.010 A 
HETATM    9  C           1     -23.775 -11.281  -0.049  0.00  0.00     0.037 A 
HETATM   10  C           1     -22.973 -12.272   0.516  0.00  0.00     0.065 A 
HETATM   11  C           1     -21.608 -12.047   0.696  0.00  0.00     0.037 A 
HETATM   12  C           1     -21.045 -10.830   0.310  0.00  0.00     0.010 A 
BRANCH  10  13
HETATM   13  O           1     -23.519 -13.454   0.891  0.00  0.00    -0.361 OA
HETATM   14  H           1     -23.374 -13.563   1.846  0.00  0.00     0.217 HD
ENDBRANCH  10  13
ENDBRANCH   6   7
ENDBRANCH   5   6
BRANCH   5  15
HETATM   15  C           1     -22.024  -6.673  -2.108  0.00  0.00     0.197 C 
HETATM   16  O           1     -22.418  -6.074  -1.083  0.00  0.00    -0.646 OA
HETATM   17  O           1     -21.855  -6.043  -3.174  0.00  0.00    -0.646 OA
ENDBRANCH   5  15
ENDBRANCH   1   5
BRANCH   2  18
HETATM   18  C           1     -19.935  -9.873  -4.960  0.00  0.00     0.284 C 
BRANCH  18  19
HETATM   19  C           1     -18.849 -10.723  -4.312  0.00  0.00     0.155 C 
BRANCH  19  20
HETATM   20  C           1     -17.663  -9.853  -3.975  0.00  0.00     0.175 C 
HETATM   21  O           1     -17.657  -9.188  -2.918  0.00  0.00    -0.648 OA
HETATM   22  O           1     -16.687  -9.799  -4.753  0.00  0.00    -0.648 OA
ENDBRANCH  19  20
ENDBRANCH  18  19
BRANCH  18  23
HETATM   23  N           1     -19.325  -8.616  -5.506  0.00  0.00    -0.066 N 
HETATM   24  H           1     -19.653  -7.797  -4.947  0.00  0.00     0.275 HD
HETATM   25  H           1     -18.283  -8.682  -5.448  0.00  0.00     0.275 HD
HETATM   26  H           1     -19.613  -8.494  -6.503  0.00  0.00     0.275 HD
ENDBRANCH  18  23
ENDBRANCH   2  18
TORSDOF 9
ENDMDL
MODEL 9
REMARK VINA RESULT:      -6.2     14.883     16.665
REMARK  9 active torsions:
REMARK  status: ('A' for Active; 'I' for Inactive)
REMARK    1  A    between atoms: N_1  and  C_16 
REMARK       I    between atoms: N_1  and  C_2 
REMARK    2  A    between atoms: C_2  and  C_3 
REMARK    3  A    between atoms: C_3  and  C_4 
REMARK    4  A    between atoms: C_3  and  N_8 
REMARK    5  A    between atoms: C_4  and  C_5 
REMARK    6  A    between atoms: O_13  and  C_14 
REMARK    7  A    between atoms: C_15  and  C_26 
REMARK    8  A    between atoms: C_15  and  C_16 
REMARK    9  A    between atoms: C_16  and  C_17 
ROOT
HETATM    1  N           1     -19.825  -9.663  -5.428  0.00  0.00    -0.344 N 
HETATM    2  C           1     -20.142 -10.991  -5.343  0.00  0.00     0.249 C 
HETATM    3  O           1     -21.082 -11.346  -4.671  0.00  0.00    -0.271 OA
HETATM    4  H           1     -19.038  -9.365  -5.990  0.00  0.00     0.163 HD
ENDROOT
BRANCH   1   5
HETATM    5  C           1     -20.616  -8.681  -4.711  0.00  0.00     0.189 C 
BRANCH   5   6
HETATM    6  C           1     -19.901  -8.297  -3.421  0.00  0.00     0.074 C 
BRANCH   6   7
HETATM    7  C           1     -20.905  -8.139  -2.323  0.00  0.00    -0.056 A 
HETATM    8  C           1     -21.296  -9.247  -1.571  0.00  0.00     0.010 A 
HETATM    9  C           1     -22.232  -9.099  -0.547  0.00  0.00     0.037 A 
HETATM   10  C           1     -22.775  -7.844  -0.274  0.00  0.00     0.065 A 
HETATM   11  C           1     -22.383  -6.736  -1.025  0.00  0.00     0.037 A 
HETATM   12  C           1     -21.448  -6.883  -2.049  0.00  0.00     0.010 A 
BRANCH  10  13
HETATM   13  O           1     -23.684  -7.700   0.722  0.00  0.00    -0.361 OA
HETATM   14  H           1     -24.241  -8.496   0.737  0.00  0.00     0.217 HD
ENDBRANCH  10  13
ENDBRANCH   6   7
ENDBRANCH   5   6
BRANCH   5  15
HETATM   15  C           1     -20.793  -7.455  -5.572  0.00  0.00     0.197 C 
HETATM   16  O           1     -19.873  -7.090  -6.336  0.00  0.00    -0.646 OA
HETATM   17  O           1     -21.859  -6.804  -5.523  0.00  0.00    -0.646 OA
ENDBRANCH   5  15
ENDBRANCH   1   5
BRANCH   2  18
HETATM   18  C           1     -19.319 -12.013  -6.088  0.00  0.00     0.284 C 
BRANCH  18  19
HETATM   19  C           1     -17.990 -12.215  -5.371  0.00  0.00     0.155 C 
BRANCH  19  20
HETATM   20  C           1     -16.894 -11.512  -6.134  0.00  0.00     0.175 C 
HETATM   21  O           1     -16.151 -12.161  -6.901  0.00  0.00    -0.648 OA
HETATM   22  O           1     -16.731 -10.281  -5.999  0.00  0.00    -0.648 OA
ENDBRANCH  19  20
ENDBRANCH  18  19
BRANCH  18  23
HETATM   23  N           1     -19.064 -11.527  -7.484  0.00  0.00    -0.066 N 
HETATM   24  H           1     -18.037 -11.393  -7.624  0.00  0.00     0.275 HD
HETATM   25  H           1     -19.419 -12.234  -8.168  0.00  0.00     0.275 HD
HETATM   26  H           1     -19.557 -10.618  -7.632  0.00  0.00     0.275 HD
ENDBRANCH  18  23
ENDBRANCH   2  18
TORSDOF 9
ENDMDL
