MODEL 1
REMARK VINA RESULT:      -6.1      0.000      0.000
REMARK  6 active torsions:
REMARK  status: ('A' for Active; 'I' for Inactive)
REMARK    1  A    between atoms: C_3  and  C_14 
REMARK    2  A    between atoms: C_4  and  C_13 
REMARK    3  A    between atoms: N_7  and  C_13 
REMARK       I    between atoms: N_7  and  C_8 
REMARK    4  A    between atoms: C_8  and  C_9 
REMARK    5  A    between atoms: C_9  and  N_11 
REMARK    6  A    between atoms: C_13  and  C_14 
ROOT
HETATM    1  O           1     -25.589  -5.857 -15.867  0.00  0.00    -0.271 OA
HETATM    2  N           1     -26.694  -6.598 -17.661  0.00  0.00    -0.345 N 
HETATM    3  C           1     -25.545  -6.406 -16.942  0.00  0.00     0.248 C 
HETATM    4  H           1     -26.657  -7.058 -18.562  0.00  0.00     0.163 HD
ENDROOT
BRANCH   2   5
HETATM    5  C           1     -27.965  -6.143 -17.132  0.00  0.00     0.185 C 
BRANCH   5   6
HETATM    6  C           1     -28.647  -7.282 -16.416  0.00  0.00     0.196 C 
HETATM    7  O           1     -28.370  -7.526 -15.222  0.00  0.00    -0.646 OA
HETATM    8  O           1     -29.491  -7.982 -17.016  0.00  0.00    -0.646 OA
ENDBRANCH   5   6
BRANCH   5   9
HETATM    9  C           1     -28.847  -5.660 -18.276  0.00  0.00     0.040 C 
BRANCH   9  10
HETATM   10  C           1     -29.384  -4.272 -17.953  0.00  0.00    -0.020 C 
HETATM   11  C           1     -30.772  -4.395 -17.340  0.00  0.00     0.009 C 
HETATM   12  C           1     -28.450  -3.585 -16.965  0.00  0.00     0.009 C 
ENDBRANCH   9  10
ENDBRANCH   5   9
ENDBRANCH   2   5
BRANCH   3  13
HETATM   13  C           1     -24.222  -6.880 -17.494  0.00  0.00     0.270 C 
HETATM   14  C           1     -24.384  -7.236 -18.967  0.00  0.00     0.050 C 
BRANCH  13  15
HETATM   15  N           1     -23.771  -8.092 -16.735  0.00  0.00    -0.067 N 
HETATM   16  H           1     -22.908  -7.863 -16.191  0.00  0.00     0.275 HD
HETATM   17  H           1     -24.526  -8.393 -16.078  0.00  0.00     0.275 HD
HETATM   18  H           1     -23.563  -8.867 -17.405  0.00  0.00     0.275 HD
ENDBRANCH  13  15
ENDBRANCH   3  13
TORSDOF 6
ENDMDL
MODEL 2
REMARK VINA RESULT:      -6.1      1.739      2.620
REMARK  6 active torsions:
REMARK  status: ('A' for Active; 'I' for Inactive)
REMARK    1  A    between atoms: C_3  and  C_14 
REMARK    2  A    between atoms: C_4  and  C_13 
REMARK    3  A    between atoms: N_7  and  C_13 
REMARK       I    between atoms: N_7  and  C_8 
REMARK    4  A    between atoms: C_8  and  C_9 
REMARK    5  A    between atoms: C_9  and  N_11 
REMARK    6  A    between atoms: C_13  and  C_14 
ROOT
HETATM    1  O           1     -24.372  -6.449 -18.534  0.00  0.00    -0.271 OA
HETATM    2  N           1     -26.575  -6.650 -18.231  0.00  0.00    -0.345 N 
HETATM    3  C           1     -25.434  -6.829 -18.966  0.00  0.00     0.248 C 
HETATM    4  H           1     -27.465  -6.968 -18.593  0.00  0.00     0.163 HD
ENDROOT
BRANCH   2   5
HETATM    5  C           1     -26.509  -6.004 -16.935  0.00  0.00     0.185 C 
BRANCH   5   6
HETATM    6  C           1     -26.306  -7.049 -15.864  0.00  0.00     0.196 C 
HETATM    7  O           1     -25.149  -7.397 -15.542  0.00  0.00    -0.646 OA
HETATM    8  O           1     -27.293  -7.566 -15.299  0.00  0.00    -0.646 OA
ENDBRANCH   5   6
BRANCH   5   9
HETATM    9  C           1     -27.809  -5.256 -16.673  0.00  0.00     0.040 C 
BRANCH   9  10
HETATM   10  C           1     -28.839  -5.641 -17.727  0.00  0.00    -0.020 C 
HETATM   11  C           1     -29.968  -6.425 -17.069  0.00  0.00     0.009 C 
HETATM   12  C           1     -29.402  -4.381 -18.370  0.00  0.00     0.009 C 
ENDBRANCH   9  10
ENDBRANCH   5   9
ENDBRANCH   2   5
BRANCH   3  13
HETATM   13  C           1     -25.503  -7.500 -20.316  0.00  0.00     0.270 C 
HETATM   14  C           1     -25.004  -6.539 -21.387  0.00  0.00     0.050 C 
BRANCH  13  15
HETATM   15  N           1     -26.923  -7.883 -20.611  0.00  0.00    -0.067 N 
HETATM   16  H           1     -27.079  -8.881 -20.343  0.00  0.00     0.275 HD
HETATM   17  H           1     -27.569  -7.271 -20.062  0.00  0.00     0.275 HD
HETATM   18  H           1     -27.112  -7.764 -21.632  0.00  0.00     0.275 HD
ENDBRANCH  13  15
ENDBRANCH   3  13
TORSDOF 6
ENDMDL
MODEL 3
REMARK VINA RESULT:      -6.0     10.727     12.359
REMARK  6 active torsions:
REMARK  status: ('A' for Active; 'I' for Inactive)
REMARK    1  A    between atoms: C_3  and  C_14 
REMARK    2  A    between atoms: C_4  and  C_13 
REMARK    3  A    between atoms: N_7  and  C_13 
REMARK       I    between atoms: N_7  and  C_8 
REMARK    4  A    between atoms: C_8  and  C_9 
REMARK    5  A    between atoms: C_9  and  N_11 
REMARK    6  A    between atoms: C_13  and  C_14 
ROOT
HETATM    1  O           1     -37.689  -0.689 -13.608  0.00  0.00    -0.271 OA
HETATM    2  N           1     -35.829  -0.338 -12.424  0.00  0.00    -0.345 N 
HETATM    3  C           1     -36.553  -0.281 -13.584  0.00  0.00     0.248 C 
HETATM    4  H           1     -34.877   0.004 -12.403  0.00  0.00     0.163 HD
ENDROOT
BRANCH   2   5
HETATM    5  C           1     -36.427  -0.888 -11.223  0.00  0.00     0.185 C 
BRANCH   5   6
HETATM    6  C           1     -36.939   0.237 -10.357  0.00  0.00     0.196 C 
HETATM    7  O           1     -38.075   0.717 -10.563  0.00  0.00    -0.646 OA
HETATM    8  O           1     -36.229   0.689  -9.434  0.00  0.00    -0.646 OA
ENDBRANCH   5   6
BRANCH   5   9
HETATM    9  C           1     -35.382  -1.685 -10.454  0.00  0.00     0.040 C 
BRANCH   9  10
HETATM   10  C           1     -34.849  -2.807 -11.334  0.00  0.00    -0.020 C 
HETATM   11  C           1     -33.331  -2.861 -11.225  0.00  0.00     0.009 C 
HETATM   12  C           1     -35.439  -4.135 -10.875  0.00  0.00     0.009 C 
ENDBRANCH   9  10
ENDBRANCH   5   9
ENDBRANCH   2   5
BRANCH   3  13
HETATM   13  C           1     -35.930   0.291 -14.834  0.00  0.00     0.270 C 
HETATM   14  C           1     -34.759   1.190 -14.452  0.00  0.00     0.050 C 
BRANCH  13  15
HETATM   15  N           1     -36.953   1.095 -15.579  0.00  0.00    -0.067 N 
HETATM   16  H           1     -36.475   1.705 -16.281  0.00  0.00     0.275 HD
HETATM   17  H           1     -37.611   0.449 -16.072  0.00  0.00     0.275 HD
HETATM   18  H           1     -37.487   1.691 -14.907  0.00  0.00     0.275 HD
ENDBRANCH  13  15
ENDBRANCH   3  13
TORSDOF 6
ENDMDL
MODEL 4
REMARK VINA RESULT:      -5.9      1.661      2.081
REMARK  6 active torsions:
REMARK  status: ('A' for Active; 'I' for Inactive)
REMARK    1  A    between atoms: C_3  and  C_14 
REMARK    2  A    between atoms: C_4  and  C_13 
REMARK    3  A    between atoms: N_7  and  C_13 
REMARK       I    between atoms: N_7  and  C_8 
REMARK    4  A    between atoms: C_8  and  C_9 
REMARK    5  A    between atoms: C_9  and  N_11 
REMARK    6  A    between atoms: C_13  and  C_14 
ROOT
HETATM    1  O           1     -25.969  -6.226 -17.744  0.00  0.00    -0.271 OA
HETATM    2  N           1     -27.612  -6.743 -19.165  0.00  0.00    -0.345 N 
HETATM    3  C           1     -26.288  -6.604 -18.846  0.00  0.00     0.248 C 
HETATM    4  H           1     -27.880  -7.060 -20.087  0.00  0.00     0.163 HD
ENDROOT
BRANCH   2   5
HETATM    5  C           1     -28.631  -6.437 -18.180  0.00  0.00     0.185 C 
BRANCH   5   6
HETATM    6  C           1     -29.609  -7.583 -18.097  0.00  0.00     0.196 C 
HETATM    7  O           1     -29.597  -8.344 -17.105  0.00  0.00    -0.646 OA
HETATM    8  O           1     -30.431  -7.772 -19.019  0.00  0.00    -0.646 OA
ENDBRANCH   5   6
BRANCH   5   9
HETATM    9  C           1     -29.369  -5.169 -18.590  0.00  0.00     0.040 C 
BRANCH   9  10
HETATM   10  C           1     -29.723  -4.363 -17.348  0.00  0.00    -0.020 C 
HETATM   11  C           1     -28.599  -3.382 -17.042  0.00  0.00     0.009 C 
HETATM   12  C           1     -31.016  -3.595 -17.595  0.00  0.00     0.009 C 
ENDBRANCH   9  10
ENDBRANCH   5   9
ENDBRANCH   2   5
BRANCH   3  13
HETATM   13  C           1     -25.228  -6.923 -19.871  0.00  0.00     0.270 C 
HETATM   14  C           1     -25.824  -7.807 -20.960  0.00  0.00     0.050 C 
BRANCH  13  15
HETATM   15  N           1     -24.093  -7.646 -19.208  0.00  0.00    -0.067 N 
HETATM   16  H           1     -23.972  -8.585 -19.649  0.00  0.00     0.275 HD
HETATM   17  H           1     -23.214  -7.092 -19.324  0.00  0.00     0.275 HD
HETATM   18  H           1     -24.301  -7.763 -18.191  0.00  0.00     0.275 HD
ENDBRANCH  13  15
ENDBRANCH   3  13
TORSDOF 6
ENDMDL
MODEL 5
REMARK VINA RESULT:      -5.9      9.591     11.243
REMARK  6 active torsions:
REMARK  status: ('A' for Active; 'I' for Inactive)
REMARK    1  A    between atoms: C_3  and  C_14 
REMARK    2  A    between atoms: C_4  and  C_13 
REMARK    3  A    between atoms: N_7  and  C_13 
REMARK       I    between atoms: N_7  and  C_8 
REMARK    4  A    between atoms: C_8  and  C_9 
REMARK    5  A    between atoms: C_9  and  N_11 
REMARK    6  A    between atoms: C_13  and  C_14 
ROOT
HETATM    1  O           1     -36.638  -1.235 -13.534  0.00  0.00    -0.271 OA
HETATM    2  N           1     -34.771  -0.750 -12.409  0.00  0.00    -0.345 N 
HETATM    3  C           1     -35.689  -0.501 -13.393  0.00  0.00     0.248 C 
HETATM    4  H           1     -33.977  -0.136 -12.290  0.00  0.00     0.163 HD
ENDROOT
BRANCH   2   5
HETATM    5  C           1     -34.937  -1.896 -11.535  0.00  0.00     0.185 C 
BRANCH   5   6
HETATM    6  C           1     -35.915  -1.552 -10.438  0.00  0.00     0.196 C 
HETATM    7  O           1     -35.660  -0.623  -9.641  0.00  0.00    -0.646 OA
HETATM    8  O           1     -36.981  -2.195 -10.327  0.00  0.00    -0.646 OA
ENDBRANCH   5   6
BRANCH   5   9
HETATM    9  C           1     -33.594  -2.265 -10.922  0.00  0.00     0.040 C 
BRANCH   9  10
HETATM   10  C           1     -33.222  -3.685 -11.328  0.00  0.00    -0.020 C 
HETATM   11  C           1     -33.987  -4.677 -10.463  0.00  0.00     0.009 C 
HETATM   12  C           1     -33.582  -3.903 -12.792  0.00  0.00     0.009 C 
ENDBRANCH   9  10
ENDBRANCH   5   9
ENDBRANCH   2   5
BRANCH   3  13
HETATM   13  C           1     -35.516   0.691 -14.302  0.00  0.00     0.270 C 
HETATM   14  C           1     -36.647   0.721 -15.323  0.00  0.00     0.050 C 
BRANCH  13  15
HETATM   15  N           1     -34.202   0.587 -15.017  0.00  0.00    -0.067 N 
HETATM   16  H           1     -34.318   0.895 -16.008  0.00  0.00     0.275 HD
HETATM   17  H           1     -33.499   1.200 -14.543  0.00  0.00     0.275 HD
HETATM   18  H           1     -33.871  -0.404 -14.997  0.00  0.00     0.275 HD
ENDBRANCH  13  15
ENDBRANCH   3  13
TORSDOF 6
ENDMDL
MODEL 6
REMARK VINA RESULT:      -5.8      9.225     11.039
REMARK  6 active torsions:
REMARK  status: ('A' for Active; 'I' for Inactive)
REMARK    1  A    between atoms: C_3  and  C_14 
REMARK    2  A    between atoms: C_4  and  C_13 
REMARK    3  A    between atoms: N_7  and  C_13 
REMARK       I    between atoms: N_7  and  C_8 
REMARK    4  A    between atoms: C_8  and  C_9 
REMARK    5  A    between atoms: C_9  and  N_11 
REMARK    6  A    between atoms: C_13  and  C_14 
ROOT
HETATM    1  O           1     -33.554  -1.411 -10.767  0.00  0.00    -0.271 OA
HETATM    2  N           1     -35.431  -2.042 -11.800  0.00  0.00    -0.345 N 
HETATM    3  C           1     -34.260  -2.315 -11.145  0.00  0.00     0.248 C 
HETATM    4  H           1     -36.022  -2.799 -12.117  0.00  0.00     0.163 HD
ENDROOT
BRANCH   2   5
HETATM    5  C           1     -35.824  -0.667 -12.039  0.00  0.00     0.185 C 
BRANCH   5   6
HETATM    6  C           1     -36.854  -0.254 -11.016  0.00  0.00     0.196 C 
HETATM    7  O           1     -37.982  -0.793 -11.012  0.00  0.00    -0.646 OA
HETATM    8  O           1     -36.578   0.625 -10.171  0.00  0.00    -0.646 OA
ENDBRANCH   5   6
BRANCH   5   9
HETATM    9  C           1     -36.418  -0.544 -13.436  0.00  0.00     0.040 C 
BRANCH   9  10
HETATM   10  C           1     -35.381   0.050 -14.379  0.00  0.00    -0.020 C 
HETATM   11  C           1     -36.087   0.720 -15.551  0.00  0.00     0.009 C 
HETATM   12  C           1     -34.547   1.082 -13.630  0.00  0.00     0.009 C 
ENDBRANCH   9  10
ENDBRANCH   5   9
ENDBRANCH   2   5
BRANCH   3  13
HETATM   13  C           1     -33.852  -3.747 -10.896  0.00  0.00     0.270 C 
HETATM   14  C           1     -32.762  -4.143 -11.885  0.00  0.00     0.050 C 
BRANCH  13  15
HETATM   15  N           1     -35.039  -4.644 -11.077  0.00  0.00    -0.067 N 
HETATM   16  H           1     -34.750  -5.639 -10.942  0.00  0.00     0.275 HD
HETATM   17  H           1     -35.773  -4.397 -10.374  0.00  0.00     0.275 HD
HETATM   18  H           1     -35.425  -4.522 -12.041  0.00  0.00     0.275 HD
ENDBRANCH  13  15
ENDBRANCH   3  13
TORSDOF 6
ENDMDL
MODEL 7
REMARK VINA RESULT:      -5.8      2.291      3.081
REMARK  6 active torsions:
REMARK  status: ('A' for Active; 'I' for Inactive)
REMARK    1  A    between atoms: C_3  and  C_14 
REMARK    2  A    between atoms: C_4  and  C_13 
REMARK    3  A    between atoms: N_7  and  C_13 
REMARK       I    between atoms: N_7  and  C_8 
REMARK    4  A    between atoms: C_8  and  C_9 
REMARK    5  A    between atoms: C_9  and  N_11 
REMARK    6  A    between atoms: C_13  and  C_14 
ROOT
HETATM    1  O           1     -26.959  -6.282 -20.297  0.00  0.00    -0.271 OA
HETATM    2  N           1     -26.770  -6.391 -18.075  0.00  0.00    -0.345 N 
HETATM    3  C           1     -26.254  -6.488 -19.339  0.00  0.00     0.248 C 
HETATM    4  H           1     -26.179  -6.563 -17.272  0.00  0.00     0.163 HD
ENDROOT
BRANCH   2   5
HETATM    5  C           1     -28.164  -6.040 -17.886  0.00  0.00     0.185 C 
BRANCH   5   6
HETATM    6  C           1     -28.261  -4.616 -17.395  0.00  0.00     0.196 C 
HETATM    7  O           1     -29.084  -3.831 -17.913  0.00  0.00    -0.646 OA
HETATM    8  O           1     -27.519  -4.223 -16.470  0.00  0.00    -0.646 OA
ENDBRANCH   5   6
BRANCH   5   9
HETATM    9  C           1     -28.789  -6.976 -16.860  0.00  0.00     0.040 C 
BRANCH   9  10
HETATM   10  C           1     -30.050  -7.599 -17.441  0.00  0.00    -0.020 C 
HETATM   11  C           1     -31.205  -6.614 -17.321  0.00  0.00     0.009 C 
HETATM   12  C           1     -29.819  -7.937 -18.908  0.00  0.00     0.009 C 
ENDBRANCH   9  10
ENDBRANCH   5   9
ENDBRANCH   2   5
BRANCH   3  13
HETATM   13  C           1     -24.803  -6.853 -19.535  0.00  0.00     0.270 C 
HETATM   14  C           1     -24.679  -7.839 -20.690  0.00  0.00     0.050 C 
BRANCH  13  15
HETATM   15  N           1     -24.273  -7.484 -18.282  0.00  0.00    -0.067 N 
HETATM   16  H           1     -24.325  -8.524 -18.365  0.00  0.00     0.275 HD
HETATM   17  H           1     -23.277  -7.197 -18.142  0.00  0.00     0.275 HD
HETATM   18  H           1     -24.844  -7.171 -17.465  0.00  0.00     0.275 HD
ENDBRANCH  13  15
ENDBRANCH   3  13
TORSDOF 6
ENDMDL
MODEL 8
REMARK VINA RESULT:      -5.5      8.997     10.377
REMARK  6 active torsions:
REMARK  status: ('A' for Active; 'I' for Inactive)
REMARK    1  A    between atoms: C_3  and  C_14 
REMARK    2  A    between atoms: C_4  and  C_13 
REMARK    3  A    between atoms: N_7  and  C_13 
REMARK       I    between atoms: N_7  and  C_8 
REMARK    4  A    between atoms: C_8  and  C_9 
REMARK    5  A    between atoms: C_9  and  N_11 
REMARK    6  A    between atoms: C_13  and  C_14 
ROOT
HETATM    1  O           1     -21.504  -3.179  -7.055  0.00  0.00    -0.271 OA
HETATM    2  N           1     -22.749  -4.563  -8.288  0.00  0.00    -0.345 N 
HETATM    3  C           1     -21.897  -4.305  -7.248  0.00  0.00     0.248 C 
HETATM    4  H           1     -23.079  -5.506  -8.450  0.00  0.00     0.163 HD
ENDROOT
BRANCH   2   5
HETATM    5  C           1     -23.181  -3.486  -9.158  0.00  0.00     0.185 C 
BRANCH   5   6
HETATM    6  C           1     -24.424  -3.909  -9.902  0.00  0.00     0.196 C 
HETATM    7  O           1     -24.903  -5.050  -9.721  0.00  0.00    -0.646 OA
HETATM    8  O           1     -24.975  -3.120 -10.698  0.00  0.00    -0.646 OA
ENDBRANCH   5   6
BRANCH   5   9
HETATM    9  C           1     -22.076  -3.165 -10.155  0.00  0.00     0.040 C 
BRANCH   9  10
HETATM   10  C           1     -21.573  -4.454 -10.791  0.00  0.00    -0.020 C 
HETATM   11  C           1     -21.872  -4.433 -12.284  0.00  0.00     0.009 C 
HETATM   12  C           1     -20.070  -4.573 -10.574  0.00  0.00     0.009 C 
ENDBRANCH   9  10
ENDBRANCH   5   9
ENDBRANCH   2   5
BRANCH   3  13
HETATM   13  C           1     -21.449  -5.426  -6.344  0.00  0.00     0.270 C 
HETATM   14  C           1     -20.379  -4.911  -5.388  0.00  0.00     0.050 C 
BRANCH  13  15
HETATM   15  N           1     -20.882  -6.540  -7.173  0.00  0.00    -0.067 N 
HETATM   16  H           1     -20.926  -7.434  -6.634  0.00  0.00     0.275 HD
HETATM   17  H           1     -21.439  -6.637  -8.052  0.00  0.00     0.275 HD
HETATM   18  H           1     -19.887  -6.327  -7.412  0.00  0.00     0.275 HD
ENDBRANCH  13  15
ENDBRANCH   3  13
TORSDOF 6
ENDMDL
MODEL 9
REMARK VINA RESULT:      -5.1     10.282     11.651
REMARK  6 active torsions:
REMARK  status: ('A' for Active; 'I' for Inactive)
REMARK    1  A    between atoms: C_3  and  C_14 
REMARK    2  A    between atoms: C_4  and  C_13 
REMARK    3  A    between atoms: N_7  and  C_13 
REMARK       I    between atoms: N_7  and  C_8 
REMARK    4  A    between atoms: C_8  and  C_9 
REMARK    5  A    between atoms: C_9  and  N_11 
REMARK    6  A    between atoms: C_13  and  C_14 
ROOT
HETATM    1  O           1     -21.146  -7.130  -6.912  0.00  0.00    -0.271 OA
HETATM    2  N           1     -21.498  -4.925  -6.857  0.00  0.00    -0.345 N 
HETATM    3  C           1     -21.288  -6.132  -6.246  0.00  0.00     0.248 C 
HETATM    4  H           1     -21.616  -4.089  -6.300  0.00  0.00     0.163 HD
ENDROOT
BRANCH   2   5
HETATM    5  C           1     -21.549  -4.844  -8.304  0.00  0.00     0.185 C 
BRANCH   5   6
HETATM    6  C           1     -20.172  -4.539  -8.839  0.00  0.00     0.196 C 
HETATM    7  O           1     -19.318  -4.004  -8.099  0.00  0.00    -0.646 OA
HETATM    8  O           1     -19.884  -4.821 -10.022  0.00  0.00    -0.646 OA
ENDBRANCH   5   6
BRANCH   5   9
HETATM    9  C           1     -22.511  -3.738  -8.717  0.00  0.00     0.040 C 
BRANCH   9  10
HETATM   10  C           1     -23.696  -4.344  -9.456  0.00  0.00    -0.020 C 
HETATM   11  C           1     -24.809  -3.309  -9.565  0.00  0.00     0.009 C 
HETATM   12  C           1     -23.259  -4.770 -10.852  0.00  0.00     0.009 C 
ENDBRANCH   9  10
ENDBRANCH   5   9
ENDBRANCH   2   5
BRANCH   3  13
HETATM   13  C           1     -21.234  -6.216  -4.741  0.00  0.00     0.270 C 
HETATM   14  C           1     -20.572  -7.525  -4.328  0.00  0.00     0.050 C 
BRANCH  13  15
HETATM   15  N           1     -22.627  -6.166  -4.188  0.00  0.00    -0.067 N 
HETATM   16  H           1     -23.087  -7.095  -4.316  0.00  0.00     0.275 HD
HETATM   17  H           1     -22.588  -5.935  -3.169  0.00  0.00     0.275 HD
HETATM   18  H           1     -23.177  -5.433  -4.691  0.00  0.00     0.275 HD
ENDBRANCH  13  15
ENDBRANCH   3  13
TORSDOF 6
ENDMDL
