MODEL 1
REMARK VINA RESULT:      -5.2      0.000      0.000
REMARK  6 active torsions:
REMARK  status: ('A' for Active; 'I' for Inactive)
REMARK    1  A    between atoms: C_7  and  C_8 
REMARK       I    between atoms: C_8  and  N_9 
REMARK    2  A    between atoms: N_9  and  C_13 
REMARK    3  A    between atoms: C_12  and  C_13 
REMARK    4  A    between atoms: C_13  and  C_15 
REMARK    5  A    between atoms: C_15  and  C_16 
REMARK    6  A    between atoms: C_16  and  S_17 
ROOT
HETATM    1  O           1     -21.066  -6.687  -7.146  0.00  0.00    -0.271 OA
HETATM    2  C           1     -20.697  -5.748  -6.480  0.00  0.00     0.249 C 
HETATM    3  N           1     -20.736  -5.821  -5.114  0.00  0.00    -0.345 N 
HETATM    4  H           1     -20.426  -5.035  -4.556  0.00  0.00     0.163 HD
ENDROOT
BRANCH   2   5
HETATM    5  C           1     -20.194  -4.496  -7.156  0.00  0.00     0.274 C 
HETATM    6  N           1     -19.816  -4.811  -8.573  0.00  0.00    -0.067 N 
HETATM    7  H           1     -19.468  -3.945  -9.041  0.00  0.00     0.275 HD
HETATM    8  H           1     -19.064  -5.537  -8.579  0.00  0.00     0.275 HD
HETATM    9  H           1     -20.653  -5.171  -9.084  0.00  0.00     0.275 HD
HETATM   10 Se           1     -22.017  -4.371  -9.734  0.00  0.00     0.000 Se
HETATM   11  C           1     -23.799  -4.970 -10.248  0.00  0.00     0.000 C 
HETATM   12  C           1     -22.508  -3.962  -7.893  0.00  0.00     0.003 C 
HETATM   13  C           1     -21.289  -3.438  -7.146  0.00  0.00     0.042 C 
ENDBRANCH   2   5
BRANCH   3  14
HETATM   14  C           1     -21.219  -7.024  -4.465  0.00  0.00     0.186 C 
BRANCH  14  15
HETATM   15  C           1     -21.558  -6.717  -3.026  0.00  0.00     0.196 C 
HETATM   16  O           1     -22.513  -5.956  -2.759  0.00  0.00    -0.646 OA
HETATM   17  O           1     -20.884  -7.223  -2.104  0.00  0.00    -0.646 OA
ENDBRANCH  14  15
BRANCH  14  18
HETATM   18  C           1     -20.138  -8.096  -4.514  0.00  0.00     0.046 C 
BRANCH  18  19
HETATM   19  C           1     -20.765  -9.434  -4.879  0.00  0.00     0.076 C 
BRANCH  19  20
HETATM   20  S           1     -20.559 -10.596  -3.501  0.00  0.00    -0.173 SA
HETATM   21  C           1     -18.917 -10.014  -2.993  0.00  0.00     0.089 C 
ENDBRANCH  19  20
ENDBRANCH  18  19
ENDBRANCH  14  18
ENDBRANCH   3  14
TORSDOF 6
ENDMDL
MODEL 2
REMARK VINA RESULT:      -4.7      3.759      6.570
REMARK  6 active torsions:
REMARK  status: ('A' for Active; 'I' for Inactive)
REMARK    1  A    between atoms: C_7  and  C_8 
REMARK       I    between atoms: C_8  and  N_9 
REMARK    2  A    between atoms: N_9  and  C_13 
REMARK    3  A    between atoms: C_12  and  C_13 
REMARK    4  A    between atoms: C_13  and  C_15 
REMARK    5  A    between atoms: C_15  and  C_16 
REMARK    6  A    between atoms: C_16  and  S_17 
ROOT
HETATM    1  O           1     -19.780  -8.129  -1.508  0.00  0.00    -0.271 OA
HETATM    2  C           1     -20.960  -7.928  -1.345  0.00  0.00     0.249 C 
HETATM    3  N           1     -21.764  -7.661  -2.420  0.00  0.00    -0.345 N 
HETATM    4  H           1     -22.753  -7.493  -2.284  0.00  0.00     0.163 HD
ENDROOT
BRANCH   2   5
HETATM    5  C           1     -21.548  -7.971   0.044  0.00  0.00     0.274 C 
HETATM    6  N           1     -23.044  -7.919  -0.045  0.00  0.00    -0.067 N 
HETATM    7  H           1     -23.452  -7.949   0.917  0.00  0.00     0.275 HD
HETATM    8  H           1     -23.334  -7.034  -0.518  0.00  0.00     0.275 HD
HETATM    9  H           1     -23.388  -8.738  -0.595  0.00  0.00     0.275 HD
HETATM   10 Se           1     -23.573 -10.387  -0.181  0.00  0.00     0.000 Se
HETATM   11  C           1     -23.730 -12.020  -1.232  0.00  0.00     0.000 C 
HETATM   12  C           1     -21.629 -10.454  -0.065  0.00  0.00     0.003 C 
HETATM   13  C           1     -21.125  -9.261   0.736  0.00  0.00     0.042 C 
ENDBRANCH   2   5
BRANCH   3  14
HETATM   14  C           1     -21.199  -7.620  -3.756  0.00  0.00     0.186 C 
BRANCH  14  15
HETATM   15  C           1     -21.639  -6.353  -4.448  0.00  0.00     0.196 C 
HETATM   16  O           1     -22.833  -6.211  -4.792  0.00  0.00    -0.646 OA
HETATM   17  O           1     -20.810  -5.446  -4.677  0.00  0.00    -0.646 OA
ENDBRANCH  14  15
BRANCH  14  18
HETATM   18  C           1     -21.684  -8.827  -4.548  0.00  0.00     0.046 C 
BRANCH  18  19
HETATM   19  C           1     -20.618  -9.914  -4.520  0.00  0.00     0.076 C 
BRANCH  19  20
HETATM   20  S           1     -19.002  -9.189  -4.914  0.00  0.00    -0.173 SA
HETATM   21  C           1     -18.365 -10.613  -5.841  0.00  0.00     0.089 C 
ENDBRANCH  19  20
ENDBRANCH  18  19
ENDBRANCH  14  18
ENDBRANCH   3  14
TORSDOF 6
ENDMDL
MODEL 3
REMARK VINA RESULT:      -4.7      4.288      5.931
REMARK  6 active torsions:
REMARK  status: ('A' for Active; 'I' for Inactive)
REMARK    1  A    between atoms: C_7  and  C_8 
REMARK       I    between atoms: C_8  and  N_9 
REMARK    2  A    between atoms: N_9  and  C_13 
REMARK    3  A    between atoms: C_12  and  C_13 
REMARK    4  A    between atoms: C_13  and  C_15 
REMARK    5  A    between atoms: C_15  and  C_16 
REMARK    6  A    between atoms: C_16  and  S_17 
ROOT
HETATM    1  O           1     -21.759 -10.427  -3.892  0.00  0.00    -0.271 OA
HETATM    2  C           1     -20.814  -9.806  -4.319  0.00  0.00     0.249 C 
HETATM    3  N           1     -20.509  -8.579  -3.795  0.00  0.00    -0.345 N 
HETATM    4  H           1     -19.718  -8.058  -4.152  0.00  0.00     0.163 HD
ENDROOT
BRANCH   2   5
HETATM    5  C           1     -19.972 -10.383  -5.430  0.00  0.00     0.274 C 
HETATM    6  N           1     -18.957  -9.368  -5.865  0.00  0.00    -0.067 N 
HETATM    7  H           1     -18.373  -9.766  -6.635  0.00  0.00     0.275 HD
HETATM    8  H           1     -19.446  -8.510  -6.208  0.00  0.00     0.275 HD
HETATM    9  H           1     -18.344  -9.120  -5.056  0.00  0.00     0.275 HD
HETATM   10 Se           1     -17.045  -9.954  -4.318  0.00  0.00     0.000 Se
HETATM   11  C           1     -16.191  -9.821  -2.572  0.00  0.00     0.000 C 
HETATM   12  C           1     -18.365 -11.272  -3.754  0.00  0.00     0.003 C 
HETATM   13  C           1     -19.259 -11.633  -4.932  0.00  0.00     0.042 C 
ENDBRANCH   2   5
BRANCH   3  14
HETATM   14  C           1     -21.318  -8.025  -2.726  0.00  0.00     0.186 C 
BRANCH  14  15
HETATM   15  C           1     -21.703  -6.607  -3.071  0.00  0.00     0.196 C 
HETATM   16  O           1     -21.280  -6.084  -4.125  0.00  0.00    -0.646 OA
HETATM   17  O           1     -22.443  -5.956  -2.303  0.00  0.00    -0.646 OA
ENDBRANCH  14  15
BRANCH  14  18
HETATM   18  C           1     -20.519  -8.033  -1.429  0.00  0.00     0.046 C 
BRANCH  18  19
HETATM   19  C           1     -20.856  -9.288  -0.634  0.00  0.00     0.076 C 
BRANCH  19  20
HETATM   20  S           1     -22.658  -9.475  -0.531  0.00  0.00    -0.173 SA
HETATM   21  C           1     -22.944  -8.051   0.558  0.00  0.00     0.089 C 
ENDBRANCH  19  20
ENDBRANCH  18  19
ENDBRANCH  14  18
ENDBRANCH   3  14
TORSDOF 6
ENDMDL
MODEL 4
REMARK VINA RESULT:      -4.7      2.656      6.059
REMARK  6 active torsions:
REMARK  status: ('A' for Active; 'I' for Inactive)
REMARK    1  A    between atoms: C_7  and  C_8 
REMARK       I    between atoms: C_8  and  N_9 
REMARK    2  A    between atoms: N_9  and  C_13 
REMARK    3  A    between atoms: C_12  and  C_13 
REMARK    4  A    between atoms: C_13  and  C_15 
REMARK    5  A    between atoms: C_15  and  C_16 
REMARK    6  A    between atoms: C_16  and  S_17 
ROOT
HETATM    1  O           1     -19.699  -8.602  -5.628  0.00  0.00    -0.271 OA
HETATM    2  C           1     -20.640  -9.191  -5.151  0.00  0.00     0.249 C 
HETATM    3  N           1     -21.551  -8.519  -4.382  0.00  0.00    -0.345 N 
HETATM    4  H           1     -22.339  -9.012  -3.983  0.00  0.00     0.163 HD
ENDROOT
BRANCH   2   5
HETATM    5  C           1     -20.809 -10.670  -5.402  0.00  0.00     0.274 C 
HETATM    6  N           1     -19.774 -11.131  -6.385  0.00  0.00    -0.067 N 
HETATM    7  H           1     -19.890 -12.155  -6.558  0.00  0.00     0.275 HD
HETATM    8  H           1     -19.890 -10.610  -7.283  0.00  0.00     0.275 HD
HETATM    9  H           1     -18.821 -10.950  -5.996  0.00  0.00     0.275 HD
HETATM   10 Se           1     -17.906 -11.768  -4.804  0.00  0.00     0.000 Se
HETATM   11  C           1     -16.389 -11.251  -3.695  0.00  0.00     0.000 C 
HETATM   12  C           1     -19.252 -11.168  -3.528  0.00  0.00     0.003 C 
HETATM   13  C           1     -20.642 -11.430  -4.093  0.00  0.00     0.042 C 
ENDBRANCH   2   5
BRANCH   3  14
HETATM   14  C           1     -21.388  -7.097  -4.142  0.00  0.00     0.186 C 
BRANCH  14  15
HETATM   15  C           1     -21.607  -6.808  -2.676  0.00  0.00     0.196 C 
HETATM   16  O           1     -20.956  -7.435  -1.812  0.00  0.00    -0.646 OA
HETATM   17  O           1     -22.438  -5.943  -2.328  0.00  0.00    -0.646 OA
ENDBRANCH  14  15
BRANCH  14  18
HETATM   18  C           1     -22.406  -6.324  -4.969  0.00  0.00     0.046 C 
BRANCH  18  19
HETATM   19  C           1     -21.717  -5.722  -6.187  0.00  0.00     0.076 C 
BRANCH  19  20
HETATM   20  S           1     -20.227  -4.830  -5.662  0.00  0.00    -0.173 SA
HETATM   21  C           1     -19.455  -4.747  -7.302  0.00  0.00     0.089 C 
ENDBRANCH  19  20
ENDBRANCH  18  19
ENDBRANCH  14  18
ENDBRANCH   3  14
TORSDOF 6
ENDMDL
MODEL 5
REMARK VINA RESULT:      -4.7      3.497      6.297
REMARK  6 active torsions:
REMARK  status: ('A' for Active; 'I' for Inactive)
REMARK    1  A    between atoms: C_7  and  C_8 
REMARK       I    between atoms: C_8  and  N_9 
REMARK    2  A    between atoms: N_9  and  C_13 
REMARK    3  A    between atoms: C_12  and  C_13 
REMARK    4  A    between atoms: C_13  and  C_15 
REMARK    5  A    between atoms: C_15  and  C_16 
REMARK    6  A    between atoms: C_16  and  S_17 
ROOT
HETATM    1  O           1     -19.216  -9.839  -6.117  0.00  0.00    -0.271 OA
HETATM    2  C           1     -18.948  -9.366  -5.038  0.00  0.00     0.249 C 
HETATM    3  N           1     -19.640  -8.279  -4.575  0.00  0.00    -0.345 N 
HETATM    4  H           1     -19.416  -7.883  -3.672  0.00  0.00     0.163 HD
ENDROOT
BRANCH   2   5
HETATM    5  C           1     -17.848  -9.973  -4.201  0.00  0.00     0.274 C 
HETATM    6  N           1     -17.813  -9.300  -2.861  0.00  0.00    -0.067 N 
HETATM    7  H           1     -17.052  -9.720  -2.280  0.00  0.00     0.275 HD
HETATM    8  H           1     -17.631  -8.280  -2.988  0.00  0.00     0.275 HD
HETATM    9  H           1     -18.731  -9.434  -2.381  0.00  0.00     0.275 HD
HETATM   10 Se           1     -19.404 -10.783  -1.572  0.00  0.00     0.000 Se
HETATM   11  C           1     -21.226 -11.282  -1.093  0.00  0.00     0.000 C 
HETATM   12  C           1     -19.450 -11.656  -3.315  0.00  0.00     0.003 C 
HETATM   13  C           1     -18.113 -11.461  -4.016  0.00  0.00     0.042 C 
ENDBRANCH   2   5
BRANCH   3  14
HETATM   14  C           1     -20.697  -7.696  -5.380  0.00  0.00     0.186 C 
BRANCH  14  15
HETATM   15  C           1     -20.193  -6.431  -6.029  0.00  0.00     0.196 C 
HETATM   16  O           1     -19.667  -6.477  -7.162  0.00  0.00    -0.646 OA
HETATM   17  O           1     -20.302  -5.337  -5.435  0.00  0.00    -0.646 OA
ENDBRANCH  14  15
BRANCH  14  18
HETATM   18  C           1     -21.890  -7.371  -4.490  0.00  0.00     0.046 C 
BRANCH  18  19
HETATM   19  C           1     -21.545  -7.690  -3.042  0.00  0.00     0.076 C 
BRANCH  19  20
HETATM   20  S           1     -22.076  -6.319  -1.977  0.00  0.00    -0.173 SA
HETATM   21  C           1     -22.389  -7.325  -0.499  0.00  0.00     0.089 C 
ENDBRANCH  19  20
ENDBRANCH  18  19
ENDBRANCH  14  18
ENDBRANCH   3  14
TORSDOF 6
ENDMDL
MODEL 6
REMARK VINA RESULT:      -4.7      4.253      6.879
REMARK  6 active torsions:
REMARK  status: ('A' for Active; 'I' for Inactive)
REMARK    1  A    between atoms: C_7  and  C_8 
REMARK       I    between atoms: C_8  and  N_9 
REMARK    2  A    between atoms: N_9  and  C_13 
REMARK    3  A    between atoms: C_12  and  C_13 
REMARK    4  A    between atoms: C_13  and  C_15 
REMARK    5  A    between atoms: C_15  and  C_16 
REMARK    6  A    between atoms: C_16  and  S_17 
ROOT
HETATM    1  O           1     -20.844  -8.126  -0.354  0.00  0.00    -0.271 OA
HETATM    2  C           1     -21.518  -8.885  -1.009  0.00  0.00     0.249 C 
HETATM    3  N           1     -21.632  -8.706  -2.361  0.00  0.00    -0.345 N 
HETATM    4  H           1     -22.197  -9.341  -2.910  0.00  0.00     0.163 HD
ENDROOT
BRANCH   2   5
HETATM    5  C           1     -22.235 -10.030  -0.336  0.00  0.00     0.274 C 
HETATM    6  N           1     -22.892 -10.888  -1.377  0.00  0.00    -0.067 N 
HETATM    7  H           1     -23.388 -11.681  -0.912  0.00  0.00     0.275 HD
HETATM    8  H           1     -23.579 -10.316  -1.917  0.00  0.00     0.275 HD
HETATM    9  H           1     -22.165 -11.264  -2.026  0.00  0.00     0.275 HD
HETATM   10 Se           1     -21.028 -12.530  -1.846  0.00  0.00     0.000 Se
HETATM   11  C           1     -19.366 -12.974  -2.762  0.00  0.00     0.000 C 
HETATM   12  C           1     -20.176 -11.415  -0.494  0.00  0.00     0.003 C 
HETATM   13  C           1     -21.234 -10.864   0.452  0.00  0.00     0.042 C 
ENDBRANCH   2   5
BRANCH   3  14
HETATM   14  C           1     -20.943  -7.606  -3.008  0.00  0.00     0.186 C 
BRANCH  14  15
HETATM   15  C           1     -21.908  -6.464  -3.221  0.00  0.00     0.196 C 
HETATM   16  O           1     -22.333  -5.815  -2.240  0.00  0.00    -0.646 OA
HETATM   17  O           1     -22.281  -6.170  -4.376  0.00  0.00    -0.646 OA
ENDBRANCH  14  15
BRANCH  14  18
HETATM   18  C           1     -20.399  -8.069  -4.353  0.00  0.00     0.046 C 
BRANCH  18  19
HETATM   19  C           1     -20.013  -9.539  -4.265  0.00  0.00     0.076 C 
BRANCH  19  20
HETATM   20  S           1     -18.238  -9.721  -4.597  0.00  0.00    -0.173 SA
HETATM   21  C           1     -17.691  -9.507  -2.880  0.00  0.00     0.089 C 
ENDBRANCH  19  20
ENDBRANCH  18  19
ENDBRANCH  14  18
ENDBRANCH   3  14
TORSDOF 6
ENDMDL
MODEL 7
REMARK VINA RESULT:      -4.7      2.591      6.541
REMARK  6 active torsions:
REMARK  status: ('A' for Active; 'I' for Inactive)
REMARK    1  A    between atoms: C_7  and  C_8 
REMARK       I    between atoms: C_8  and  N_9 
REMARK    2  A    between atoms: N_9  and  C_13 
REMARK    3  A    between atoms: C_12  and  C_13 
REMARK    4  A    between atoms: C_13  and  C_15 
REMARK    5  A    between atoms: C_15  and  C_16 
REMARK    6  A    between atoms: C_16  and  S_17 
ROOT
HETATM    1  O           1     -19.733  -8.612  -2.857  0.00  0.00    -0.271 OA
HETATM    2  C           1     -20.203  -9.139  -3.837  0.00  0.00     0.249 C 
HETATM    3  N           1     -20.701  -8.370  -4.855  0.00  0.00    -0.345 N 
HETATM    4  H           1     -21.095  -8.811  -5.676  0.00  0.00     0.163 HD
ENDROOT
BRANCH   2   5
HETATM    5  C           1     -20.243 -10.644  -3.939  0.00  0.00     0.274 C 
HETATM    6  N           1     -19.791 -11.244  -2.641  0.00  0.00    -0.067 N 
HETATM    7  H           1     -19.818 -12.286  -2.711  0.00  0.00     0.275 HD
HETATM    8  H           1     -18.814 -10.934  -2.435  0.00  0.00     0.275 HD
HETATM    9  H           1     -20.426 -10.929  -1.873  0.00  0.00     0.275 HD
HETATM   10 Se           1     -22.004 -11.419  -1.432  0.00  0.00     0.000 Se
HETATM   11  C           1     -23.414 -10.591  -0.372  0.00  0.00     0.000 C 
HETATM   12  C           1     -22.591 -10.639  -3.120  0.00  0.00     0.003 C 
HETATM   13  C           1     -21.666 -11.096  -4.240  0.00  0.00     0.042 C 
ENDBRANCH   2   5
BRANCH   3  14
HETATM   14  C           1     -20.663  -6.924  -4.757  0.00  0.00     0.186 C 
BRANCH  14  15
HETATM   15  C           1     -21.988  -6.420  -4.238  0.00  0.00     0.196 C 
HETATM   16  O           1     -22.089  -6.035  -3.053  0.00  0.00    -0.646 OA
HETATM   17  O           1     -22.983  -6.390  -4.993  0.00  0.00    -0.646 OA
ENDBRANCH  14  15
BRANCH  14  18
HETATM   18  C           1     -20.397  -6.329  -6.134  0.00  0.00     0.046 C 
BRANCH  18  19
HETATM   19  C           1     -20.114  -4.839  -5.997  0.00  0.00     0.076 C 
BRANCH  19  20
HETATM   20  S           1     -21.144  -3.917  -7.173  0.00  0.00    -0.173 SA
HETATM   21  C           1     -20.009  -4.052  -8.582  0.00  0.00     0.089 C 
ENDBRANCH  19  20
ENDBRANCH  18  19
ENDBRANCH  14  18
ENDBRANCH   3  14
TORSDOF 6
ENDMDL
MODEL 8
REMARK VINA RESULT:      -4.7      4.398      7.684
REMARK  6 active torsions:
REMARK  status: ('A' for Active; 'I' for Inactive)
REMARK    1  A    between atoms: C_7  and  C_8 
REMARK       I    between atoms: C_8  and  N_9 
REMARK    2  A    between atoms: N_9  and  C_13 
REMARK    3  A    between atoms: C_12  and  C_13 
REMARK    4  A    between atoms: C_13  and  C_15 
REMARK    5  A    between atoms: C_15  and  C_16 
REMARK    6  A    between atoms: C_16  and  S_17 
ROOT
HETATM    1  O           1     -20.795 -10.036   1.110  0.00  0.00    -0.271 OA
HETATM    2  C           1     -21.578 -10.420   0.274  0.00  0.00     0.249 C 
HETATM    3  N           1     -21.926  -9.600  -0.766  0.00  0.00    -0.345 N 
HETATM    4  H           1     -22.582  -9.921  -1.467  0.00  0.00     0.163 HD
ENDROOT
BRANCH   2   5
HETATM    5  C           1     -22.173 -11.802   0.376  0.00  0.00     0.274 C 
HETATM    6  N           1     -23.151 -12.009  -0.743  0.00  0.00    -0.067 N 
HETATM    7  H           1     -23.563 -12.966  -0.674  0.00  0.00     0.275 HD
HETATM    8  H           1     -23.912 -11.296  -0.677  0.00  0.00     0.275 HD
HETATM    9  H           1     -22.657 -11.908  -1.659  0.00  0.00     0.275 HD
HETATM   10 Se           1     -21.616 -12.965  -2.510  0.00  0.00     0.000 Se
HETATM   11  C           1     -20.302 -12.696  -3.924  0.00  0.00     0.000 C 
HETATM   12  C           1     -20.346 -12.697  -1.055  0.00  0.00     0.003 C 
HETATM   13  C           1     -21.064 -12.842   0.280  0.00  0.00     0.042 C 
ENDBRANCH   2   5
BRANCH   3  14
HETATM   14  C           1     -21.353  -8.270  -0.864  0.00  0.00     0.186 C 
BRANCH  14  15
HETATM   15  C           1     -22.437  -7.241  -0.657  0.00  0.00     0.196 C 
HETATM   16  O           1     -23.355  -7.457   0.163  0.00  0.00    -0.646 OA
HETATM   17  O           1     -22.416  -6.173  -1.306  0.00  0.00    -0.646 OA
ENDBRANCH  14  15
BRANCH  14  18
HETATM   18  C           1     -20.734  -8.086  -2.243  0.00  0.00     0.046 C 
BRANCH  18  19
HETATM   19  C           1     -21.326  -9.106  -3.206  0.00  0.00     0.076 C 
BRANCH  19  20
HETATM   20  S           1     -21.115  -8.523  -4.912  0.00  0.00    -0.173 SA
HETATM   21  C           1     -21.983  -6.945  -4.692  0.00  0.00     0.089 C 
ENDBRANCH  19  20
ENDBRANCH  18  19
ENDBRANCH  14  18
ENDBRANCH   3  14
TORSDOF 6
ENDMDL
MODEL 9
REMARK VINA RESULT:      -4.5      3.407      7.396
REMARK  6 active torsions:
REMARK  status: ('A' for Active; 'I' for Inactive)
REMARK    1  A    between atoms: C_7  and  C_8 
REMARK       I    between atoms: C_8  and  N_9 
REMARK    2  A    between atoms: N_9  and  C_13 
REMARK    3  A    between atoms: C_12  and  C_13 
REMARK    4  A    between atoms: C_13  and  C_15 
REMARK    5  A    between atoms: C_15  and  C_16 
REMARK    6  A    between atoms: C_16  and  S_17 
ROOT
HETATM    1  O           1     -22.375 -10.392  -2.917  0.00  0.00    -0.271 OA
HETATM    2  C           1     -22.033  -9.377  -2.358  0.00  0.00     0.249 C 
HETATM    3  N           1     -21.354  -8.409  -3.049  0.00  0.00    -0.345 N 
HETATM    4  H           1     -21.068  -7.559  -2.581  0.00  0.00     0.163 HD
ENDROOT
BRANCH   2   5
HETATM    5  C           1     -22.355  -9.176  -0.897  0.00  0.00     0.274 C 
HETATM    6  N           1     -23.270 -10.269  -0.433  0.00  0.00    -0.067 N 
HETATM    7  H           1     -23.493 -10.131   0.579  0.00  0.00     0.275 HD
HETATM    8  H           1     -24.154 -10.244  -0.990  0.00  0.00     0.275 HD
HETATM    9  H           1     -22.801 -11.194  -0.563  0.00  0.00     0.275 HD
HETATM   10 Se           1     -21.574 -11.981   0.332  0.00  0.00     0.000 Se
HETATM   11  C           1     -20.330 -13.422  -0.086  0.00  0.00     0.000 C 
HETATM   12  C           1     -20.385 -10.559  -0.272  0.00  0.00     0.003 C 
HETATM   13  C           1     -21.067  -9.211  -0.084  0.00  0.00     0.042 C 
ENDBRANCH   2   5
BRANCH   3  14
HETATM   14  C           1     -21.046  -8.602  -4.453  0.00  0.00     0.186 C 
BRANCH  14  15
HETATM   15  C           1     -19.553  -8.748  -4.624  0.00  0.00     0.196 C 
HETATM   16  O           1     -18.826  -8.934  -3.624  0.00  0.00    -0.646 OA
HETATM   17  O           1     -19.046  -8.683  -5.763  0.00  0.00    -0.646 OA
ENDBRANCH  14  15
BRANCH  14  18
HETATM   18  C           1     -21.533  -7.399  -5.249  0.00  0.00     0.046 C 
BRANCH  18  19
HETATM   19  C           1     -21.175  -6.119  -4.505  0.00  0.00     0.076 C 
BRANCH  19  20
HETATM   20  S           1     -20.452  -4.926  -5.665  0.00  0.00    -0.173 SA
HETATM   21  C           1     -20.749  -5.902  -7.166  0.00  0.00     0.089 C 
ENDBRANCH  19  20
ENDBRANCH  18  19
ENDBRANCH  14  18
ENDBRANCH   3  14
TORSDOF 6
ENDMDL
