MODEL 1
REMARK VINA RESULT:      -5.7      0.000      0.000
REMARK  3 active torsions:
REMARK  status: ('A' for Active; 'I' for Inactive)
REMARK    1  A    between atoms: N_1  and  C_7 
REMARK    2  A    between atoms: C_7  and  C_11 
REMARK       I    between atoms: C_11  and  N_12 
REMARK    3  A    between atoms: C_13  and  C_15 
ROOT
HETATM    1  O           1     -27.602  -7.381 -15.055  0.00  0.00    -0.272 OA
HETATM    2  C           1     -28.195  -5.377 -18.001  0.00  0.00     0.127 C 
HETATM    3  C           1     -29.192  -4.245 -17.815  0.00  0.00     0.022 C 
HETATM    4  C           1     -30.223  -4.781 -16.828  0.00  0.00     0.038 C 
HETATM    5  C           1     -27.333  -6.754 -16.051  0.00  0.00     0.246 C 
HETATM    6  N           1     -28.332  -6.166 -16.781  0.00  0.00    -0.336 N 
HETATM    7  C           1     -29.766  -6.193 -16.508  0.00  0.00     0.188 C 
ENDROOT
BRANCH   5   8
HETATM    8  C           1     -25.896  -6.616 -16.492  0.00  0.00     0.332 C 
BRANCH   8   9
HETATM    9  N           1     -25.000  -6.634 -15.289  0.00  0.00    -0.071 N 
HETATM   10  H           1     -24.035  -6.345 -15.569  0.00  0.00     0.274 HD
HETATM   11  H           1     -25.367  -5.969 -14.572  0.00  0.00     0.274 HD
HETATM   12  H           1     -24.973  -7.600 -14.890  0.00  0.00     0.274 HD
ENDBRANCH   8   9
ENDBRANCH   5   8
BRANCH   7  13
HETATM   13  C           1     -30.462  -7.197 -17.393  0.00  0.00     0.196 C 
HETATM   14  O           1     -29.842  -8.200 -17.809  0.00  0.00    -0.646 OA
HETATM   15  O           1     -31.660  -7.027 -17.711  0.00  0.00    -0.646 OA
ENDBRANCH   7  13
TORSDOF 3
ENDMDL
MODEL 2
REMARK VINA RESULT:      -5.5      2.079      2.595
REMARK  3 active torsions:
REMARK  status: ('A' for Active; 'I' for Inactive)
REMARK    1  A    between atoms: N_1  and  C_7 
REMARK    2  A    between atoms: C_7  and  C_11 
REMARK       I    between atoms: C_11  and  N_12 
REMARK    3  A    between atoms: C_13  and  C_15 
ROOT
HETATM    1  O           1     -25.004  -5.900 -16.183  0.00  0.00    -0.272 OA
HETATM    2  C           1     -27.910  -6.240 -18.301  0.00  0.00     0.127 C 
HETATM    3  C           1     -28.747  -4.980 -18.445  0.00  0.00     0.022 C 
HETATM    4  C           1     -28.655  -4.284 -17.092  0.00  0.00     0.038 C 
HETATM    5  C           1     -25.650  -6.237 -17.146  0.00  0.00     0.246 C 
HETATM    6  N           1     -26.980  -5.919 -17.222  0.00  0.00    -0.336 N 
HETATM    7  C           1     -27.776  -5.186 -16.243  0.00  0.00     0.188 C 
ENDROOT
BRANCH   5   8
HETATM    8  C           1     -24.993  -7.006 -18.266  0.00  0.00     0.332 C 
BRANCH   8   9
HETATM    9  N           1     -23.577  -7.328 -17.888  0.00  0.00    -0.071 N 
HETATM   10  H           1     -23.369  -6.932 -16.944  0.00  0.00     0.274 HD
HETATM   11  H           1     -23.452  -8.365 -17.865  0.00  0.00     0.274 HD
HETATM   12  H           1     -22.926  -6.912 -18.592  0.00  0.00     0.274 HD
ENDBRANCH   8   9
ENDBRANCH   5   8
BRANCH   7  13
HETATM   13  C           1     -28.615  -6.130 -15.418  0.00  0.00     0.196 C 
HETATM   14  O           1     -29.794  -5.831 -15.131  0.00  0.00    -0.646 OA
HETATM   15  O           1     -28.131  -7.213 -15.021  0.00  0.00    -0.646 OA
ENDBRANCH   7  13
TORSDOF 3
ENDMDL
MODEL 3
REMARK VINA RESULT:      -5.3      2.590      4.293
REMARK  3 active torsions:
REMARK  status: ('A' for Active; 'I' for Inactive)
REMARK    1  A    between atoms: N_1  and  C_7 
REMARK    2  A    between atoms: C_7  and  C_11 
REMARK       I    between atoms: C_11  and  N_12 
REMARK    3  A    between atoms: C_13  and  C_15 
ROOT
HETATM    1  O           1     -27.993  -3.462 -16.464  0.00  0.00    -0.272 OA
HETATM    2  C           1     -28.842  -6.787 -17.591  0.00  0.00     0.127 C 
HETATM    3  C           1     -29.072  -7.800 -16.481  0.00  0.00     0.022 C 
HETATM    4  C           1     -28.095  -7.409 -15.378  0.00  0.00     0.038 C 
HETATM    5  C           1     -28.545  -4.311 -17.122  0.00  0.00     0.246 C 
HETATM    6  N           1     -28.274  -5.634 -16.898  0.00  0.00    -0.336 N 
HETATM    7  C           1     -27.352  -6.199 -15.917  0.00  0.00     0.188 C 
ENDROOT
BRANCH   5   8
HETATM    8  C           1     -29.536  -3.914 -18.188  0.00  0.00     0.332 C 
BRANCH   8   9
HETATM    9  N           1     -30.543  -2.965 -17.608  0.00  0.00    -0.071 N 
HETATM   10  H           1     -30.568  -2.091 -18.180  0.00  0.00     0.274 HD
HETATM   11  H           1     -31.487  -3.413 -17.616  0.00  0.00     0.274 HD
HETATM   12  H           1     -30.275  -2.731 -16.626  0.00  0.00     0.274 HD
ENDBRANCH   8   9
ENDBRANCH   5   8
BRANCH   7  13
HETATM   13  C           1     -26.057  -6.612 -16.572  0.00  0.00     0.196 C 
HETATM   14  O           1     -25.756  -6.162 -17.698  0.00  0.00    -0.646 OA
HETATM   15  O           1     -25.285  -7.403 -15.987  0.00  0.00    -0.646 OA
ENDBRANCH   7  13
TORSDOF 3
ENDMDL
MODEL 4
REMARK VINA RESULT:      -5.0      2.872      4.823
REMARK  3 active torsions:
REMARK  status: ('A' for Active; 'I' for Inactive)
REMARK    1  A    between atoms: N_1  and  C_7 
REMARK    2  A    between atoms: C_7  and  C_11 
REMARK       I    between atoms: C_11  and  N_12 
REMARK    3  A    between atoms: C_13  and  C_15 
ROOT
HETATM    1  O           1     -31.036  -2.877 -17.715  0.00  0.00    -0.272 OA
HETATM    2  C           1     -30.215  -6.045 -16.186  0.00  0.00     0.127 C 
HETATM    3  C           1     -29.049  -6.003 -15.213  0.00  0.00     0.022 C 
HETATM    4  C           1     -28.088  -4.968 -15.788  0.00  0.00     0.038 C 
HETATM    5  C           1     -31.230  -3.938 -17.173  0.00  0.00     0.246 C 
HETATM    6  N           1     -30.171  -4.740 -16.840  0.00  0.00    -0.336 N 
HETATM    7  C           1     -28.752  -4.478 -17.063  0.00  0.00     0.188 C 
ENDROOT
BRANCH   5   8
HETATM    8  C           1     -32.639  -4.381 -16.860  0.00  0.00     0.332 C 
BRANCH   8   9
HETATM    9  N           1     -33.597  -3.278 -17.202  0.00  0.00    -0.071 N 
HETATM   10  H           1     -33.136  -2.605 -17.855  0.00  0.00     0.274 HD
HETATM   11  H           1     -34.443  -3.684 -17.661  0.00  0.00     0.274 HD
HETATM   12  H           1     -33.879  -2.779 -16.328  0.00  0.00     0.274 HD
ENDBRANCH   8   9
ENDBRANCH   5   8
BRANCH   7  13
HETATM   13  C           1     -28.246  -5.243 -18.261  0.00  0.00     0.196 C 
HETATM   14  O           1     -28.810  -5.114 -19.369  0.00  0.00    -0.646 OA
HETATM   15  O           1     -27.263  -6.007 -18.145  0.00  0.00    -0.646 OA
ENDBRANCH   7  13
TORSDOF 3
ENDMDL
MODEL 5
REMARK VINA RESULT:      -5.0      9.136     10.769
REMARK  3 active torsions:
REMARK  status: ('A' for Active; 'I' for Inactive)
REMARK    1  A    between atoms: N_1  and  C_7 
REMARK    2  A    between atoms: C_7  and  C_11 
REMARK       I    between atoms: C_11  and  N_12 
REMARK    3  A    between atoms: C_13  and  C_15 
ROOT
HETATM    1  O           1     -20.360  -5.839  -8.301  0.00  0.00    -0.272 OA
HETATM    2  C           1     -23.215  -3.666  -8.712  0.00  0.00     0.127 C 
HETATM    3  C           1     -24.227  -4.127  -9.747  0.00  0.00     0.022 C 
HETATM    4  C           1     -23.401  -4.799 -10.838  0.00  0.00     0.038 C 
HETATM    5  C           1     -21.276  -5.126  -7.971  0.00  0.00     0.246 C 
HETATM    6  N           1     -22.071  -4.548  -8.924  0.00  0.00    -0.336 N 
HETATM    7  C           1     -21.961  -4.680 -10.374  0.00  0.00     0.188 C 
ENDROOT
BRANCH   5   8
HETATM    8  C           1     -21.547  -4.873  -6.508  0.00  0.00     0.332 C 
BRANCH   8   9
HETATM    9  N           1     -20.245  -4.722  -5.777  0.00  0.00    -0.071 N 
HETATM   10  H           1     -20.032  -5.605  -5.260  0.00  0.00     0.274 HD
HETATM   11  H           1     -19.482  -4.529  -6.464  0.00  0.00     0.274 HD
HETATM   12  H           1     -20.317  -3.930  -5.100  0.00  0.00     0.274 HD
ENDBRANCH   8   9
ENDBRANCH   5   8
BRANCH   7  13
HETATM   13  C           1     -21.302  -3.463 -10.975  0.00  0.00     0.196 C 
HETATM   14  O           1     -20.095  -3.230 -10.748  0.00  0.00    -0.646 OA
HETATM   15  O           1     -21.962  -2.687 -11.700  0.00  0.00    -0.646 OA
ENDBRANCH   7  13
TORSDOF 3
ENDMDL
MODEL 6
REMARK VINA RESULT:      -4.9      2.437      3.842
REMARK  3 active torsions:
REMARK  status: ('A' for Active; 'I' for Inactive)
REMARK    1  A    between atoms: N_1  and  C_7 
REMARK    2  A    between atoms: C_7  and  C_11 
REMARK       I    between atoms: C_11  and  N_12 
REMARK    3  A    between atoms: C_13  and  C_15 
ROOT
HETATM    1  O           1     -31.646  -6.690 -17.112  0.00  0.00    -0.272 OA
HETATM    2  C           1     -28.430  -5.734 -18.451  0.00  0.00     0.127 C 
HETATM    3  C           1     -27.370  -5.420 -17.407  0.00  0.00     0.022 C 
HETATM    4  C           1     -28.129  -4.777 -16.251  0.00  0.00     0.038 C 
HETATM    5  C           1     -30.679  -6.735 -17.834  0.00  0.00     0.246 C 
HETATM    6  N           1     -29.664  -5.830 -17.676  0.00  0.00    -0.336 N 
HETATM    7  C           1     -29.580  -4.750 -16.697  0.00  0.00     0.188 C 
ENDROOT
BRANCH   5   8
HETATM    8  C           1     -30.589  -7.789 -18.911  0.00  0.00     0.332 C 
BRANCH   8   9
HETATM    9  N           1     -29.428  -8.696 -18.626  0.00  0.00    -0.071 N 
HETATM   10  H           1     -29.691  -9.681 -18.858  0.00  0.00     0.274 HD
HETATM   11  H           1     -28.611  -8.408 -19.210  0.00  0.00     0.274 HD
HETATM   12  H           1     -29.176  -8.632 -17.614  0.00  0.00     0.274 HD
ENDBRANCH   8   9
ENDBRANCH   5   8
BRANCH   7  13
HETATM   13  C           1     -29.924  -3.424 -17.329  0.00  0.00     0.196 C 
HETATM   14  O           1     -29.099  -2.485 -17.298  0.00  0.00    -0.646 OA
HETATM   15  O           1     -31.032  -3.264 -17.885  0.00  0.00    -0.646 OA
ENDBRANCH   7  13
TORSDOF 3
ENDMDL
MODEL 7
REMARK VINA RESULT:      -4.8     19.223     20.774
REMARK  3 active torsions:
REMARK  status: ('A' for Active; 'I' for Inactive)
REMARK    1  A    between atoms: N_1  and  C_7 
REMARK    2  A    between atoms: C_7  and  C_11 
REMARK       I    between atoms: C_11  and  N_12 
REMARK    3  A    between atoms: C_13  and  C_15 
ROOT
HETATM    1  O           1     -14.352   5.580 -19.873  0.00  0.00    -0.272 OA
HETATM    2  C           1     -11.588   4.584 -21.974  0.00  0.00     0.127 C 
HETATM    3  C           1     -10.897   3.297 -21.555  0.00  0.00     0.022 C 
HETATM    4  C           1     -10.961   3.289 -20.032  0.00  0.00     0.038 C 
HETATM    5  C           1     -13.746   5.373 -20.896  0.00  0.00     0.246 C 
HETATM    6  N           1     -12.465   4.891 -20.848  0.00  0.00    -0.336 N 
HETATM    7  C           1     -11.679   4.574 -19.660  0.00  0.00     0.188 C 
ENDROOT
BRANCH   5   8
HETATM    8  C           1     -14.401   5.642 -22.229  0.00  0.00     0.332 C 
BRANCH   8   9
HETATM    9  N           1     -15.120   4.409 -22.692  0.00  0.00    -0.071 N 
HETATM   10  H           1     -14.647   4.028 -23.542  0.00  0.00     0.274 HD
HETATM   11  H           1     -15.102   3.692 -21.932  0.00  0.00     0.274 HD
HETATM   12  H           1     -16.111   4.650 -22.922  0.00  0.00     0.274 HD
ENDBRANCH   8   9
ENDBRANCH   5   8
BRANCH   7  13
HETATM   13  C           1     -10.690   5.674 -19.361  0.00  0.00     0.196 C 
HETATM   14  O           1      -9.489   5.395 -19.153  0.00  0.00    -0.646 OA
HETATM   15  O           1     -11.070   6.865 -19.323  0.00  0.00    -0.646 OA
ENDBRANCH   7  13
TORSDOF 3
ENDMDL
MODEL 8
REMARK VINA RESULT:      -4.8     18.998     20.382
REMARK  3 active torsions:
REMARK  status: ('A' for Active; 'I' for Inactive)
REMARK    1  A    between atoms: N_1  and  C_7 
REMARK    2  A    between atoms: C_7  and  C_11 
REMARK       I    between atoms: C_11  and  N_12 
REMARK    3  A    between atoms: C_13  and  C_15 
ROOT
HETATM    1  O           1     -11.354   5.558 -18.804  0.00  0.00    -0.272 OA
HETATM    2  C           1     -12.566   5.831 -22.196  0.00  0.00     0.127 C 
HETATM    3  C           1     -14.079   5.860 -22.334  0.00  0.00     0.022 C 
HETATM    4  C           1     -14.597   4.946 -21.229  0.00  0.00     0.038 C 
HETATM    5  C           1     -11.412   5.965 -19.939  0.00  0.00     0.246 C 
HETATM    6  N           1     -12.350   5.462 -20.800  0.00  0.00    -0.336 N 
HETATM    7  C           1     -13.353   4.437 -20.521  0.00  0.00     0.188 C 
ENDROOT
BRANCH   5   8
HETATM    8  C           1     -10.452   7.030 -20.410  0.00  0.00     0.332 C 
BRANCH   8   9
HETATM    9  N           1      -9.066   6.460 -20.479  0.00  0.00    -0.071 N 
HETATM   10  H           1      -8.933   5.975 -21.395  0.00  0.00     0.274 HD
HETATM   11  H           1      -8.368   7.232 -20.389  0.00  0.00     0.274 HD
HETATM   12  H           1      -8.932   5.775 -19.700  0.00  0.00     0.274 HD
ENDBRANCH   8   9
ENDBRANCH   5   8
BRANCH   7  13
HETATM   13  C           1     -12.926   3.102 -21.079  0.00  0.00     0.196 C 
HETATM   14  O           1     -13.715   2.439 -21.786  0.00  0.00    -0.646 OA
HETATM   15  O           1     -11.782   2.659 -20.836  0.00  0.00    -0.646 OA
ENDBRANCH   7  13
TORSDOF 3
ENDMDL
MODEL 9
REMARK VINA RESULT:      -4.6     16.841     17.923
REMARK  3 active torsions:
REMARK  status: ('A' for Active; 'I' for Inactive)
REMARK    1  A    between atoms: N_1  and  C_7 
REMARK    2  A    between atoms: C_7  and  C_11 
REMARK       I    between atoms: C_11  and  N_12 
REMARK    3  A    between atoms: C_13  and  C_15 
ROOT
HETATM    1  O           1     -22.322  -7.434   0.123  0.00  0.00    -0.272 OA
HETATM    2  C           1     -21.978 -10.135  -2.251  0.00  0.00     0.127 C 
HETATM    3  C           1     -23.135 -11.119  -2.273  0.00  0.00     0.022 C 
HETATM    4  C           1     -23.613 -11.203  -0.827  0.00  0.00     0.038 C 
HETATM    5  C           1     -22.068  -7.971  -0.929  0.00  0.00     0.246 C 
HETATM    6  N           1     -22.232  -9.323  -1.065  0.00  0.00    -0.336 N 
HETATM    7  C           1     -22.700 -10.268  -0.054  0.00  0.00     0.188 C 
ENDROOT
BRANCH   5   8
HETATM    8  C           1     -21.571  -7.150  -2.095  0.00  0.00     0.332 C 
BRANCH   8   9
HETATM    9  N           1     -22.353  -5.873  -2.177  0.00  0.00    -0.071 N 
HETATM   10  H           1     -23.360  -6.067  -1.973  0.00  0.00     0.274 HD
HETATM   11  H           1     -21.981  -5.192  -1.477  0.00  0.00     0.274 HD
HETATM   12  H           1     -22.263  -5.471  -3.138  0.00  0.00     0.274 HD
ENDBRANCH   8   9
ENDBRANCH   5   8
BRANCH   7  13
HETATM   13  C           1     -21.542 -11.025   0.549  0.00  0.00     0.196 C 
HETATM   14  O           1     -20.550 -10.404   0.988  0.00  0.00    -0.646 OA
HETATM   15  O           1     -21.575 -12.274   0.610  0.00  0.00    -0.646 OA
ENDBRANCH   7  13
TORSDOF 3
ENDMDL
