MODEL 1
REMARK VINA RESULT:      -6.7      0.000      0.000
REMARK  9 active torsions:
REMARK  status: ('A' for Active; 'I' for Inactive)
REMARK    1  A    between atoms: C_1  and  Se_10 
REMARK    2  A    between atoms: C_1  and  C_21 
REMARK    3  A    between atoms: C_4  and  O_20 
REMARK    4  A    between atoms: C_7  and  C_24 
REMARK    5  A    between atoms: N_9  and  C_21 
REMARK       I    between atoms: N_9  and  C_25 
REMARK    6  A    between atoms: N_12  and  C_23 
REMARK    7  A    between atoms: C_14  and  C_21 
REMARK    8  A    between atoms: C_23  and  C_25 
REMARK    9  A    between atoms: C_23  and  C_24 
ROOT
HETATM    1  C           1     -22.154  -5.216  -6.745  0.00  0.00     0.278 C 
ENDROOT
BRANCH   1   2
HETATM    2  N           1     -23.548  -4.989  -6.239  0.00  0.00    -0.066 N 
HETATM    3  H           1     -23.568  -5.124  -5.203  0.00  0.00     0.275 HD
HETATM    4  H           1     -23.846  -4.013  -6.468  0.00  0.00     0.275 HD
HETATM    5  H           1     -24.198  -5.669  -6.693  0.00  0.00     0.275 HD
ENDBRANCH   1   2
BRANCH   1   6
HETATM    6  C           1     -21.290  -5.737  -5.622  0.00  0.00     0.249 C 
HETATM    7  O           1     -20.487  -5.010  -5.090  0.00  0.00    -0.271 OA
HETATM    8  N           1     -21.420  -7.035  -5.206  0.00  0.00    -0.345 N 
HETATM    9  H           1     -22.094  -7.645  -5.653  0.00  0.00     0.163 HD
BRANCH   8  10
HETATM   10  C           1     -20.590  -7.537  -4.128  0.00  0.00     0.185 C 
BRANCH  10  11
HETATM   11  C           1     -21.476  -7.986  -2.973  0.00  0.00     0.039 C 
BRANCH  11  12
HETATM   12 Se           1     -22.069  -6.427  -1.964  0.00  0.00     0.000 Se
HETATM   13  H           1     -22.899  -7.203  -1.029  0.00  0.00     0.000 HD
ENDBRANCH  11  12
ENDBRANCH  10  11
BRANCH  10  14
HETATM   14  C           1     -19.777  -8.708  -4.623  0.00  0.00     0.196 C 
HETATM   15  O           1     -18.705  -9.009  -4.055  0.00  0.00    -0.646 OA
HETATM   16  O           1     -20.175  -9.375  -5.601  0.00  0.00    -0.646 OA
ENDBRANCH  10  14
ENDBRANCH   8  10
ENDBRANCH   1   6
BRANCH   1  17
HETATM   17  C           1     -21.581  -3.901  -7.258  0.00  0.00     0.081 C 
BRANCH  17  18
HETATM   18  C           1     -21.612  -3.893  -8.754  0.00  0.00    -0.056 A 
HETATM   19  C           1     -20.442  -4.124  -9.478  0.00  0.00     0.010 A 
HETATM   20  C           1     -20.472  -4.115 -10.873  0.00  0.00     0.037 A 
HETATM   21  C           1     -21.671  -3.876 -11.543  0.00  0.00     0.065 A 
HETATM   22  C           1     -22.841  -3.644 -10.820  0.00  0.00     0.037 A 
HETATM   23  C           1     -22.811  -3.652  -9.425  0.00  0.00     0.010 A 
BRANCH  21  24
HETATM   24  O           1     -21.699  -3.867 -12.898  0.00  0.00    -0.361 OA
HETATM   25  H           1     -22.629  -3.891 -13.180  0.00  0.00     0.217 HD
ENDBRANCH  21  24
ENDBRANCH  17  18
ENDBRANCH   1  17
TORSDOF 9
ENDMDL
MODEL 2
REMARK VINA RESULT:      -6.6      3.071      7.381
REMARK  9 active torsions:
REMARK  status: ('A' for Active; 'I' for Inactive)
REMARK    1  A    between atoms: C_1  and  Se_10 
REMARK    2  A    between atoms: C_1  and  C_21 
REMARK    3  A    between atoms: C_4  and  O_20 
REMARK    4  A    between atoms: C_7  and  C_24 
REMARK    5  A    between atoms: N_9  and  C_21 
REMARK       I    between atoms: N_9  and  C_25 
REMARK    6  A    between atoms: N_12  and  C_23 
REMARK    7  A    between atoms: C_14  and  C_21 
REMARK    8  A    between atoms: C_23  and  C_25 
REMARK    9  A    between atoms: C_23  and  C_24 
ROOT
HETATM    1  C           1     -21.189  -5.646  -6.966  0.00  0.00     0.278 C 
ENDROOT
BRANCH   1   2
HETATM    2  N           1     -19.913  -6.084  -7.622  0.00  0.00    -0.066 N 
HETATM    3  H           1     -20.101  -6.326  -8.622  0.00  0.00     0.275 HD
HETATM    4  H           1     -19.215  -5.307  -7.579  0.00  0.00     0.275 HD
HETATM    5  H           1     -19.535  -6.922  -7.125  0.00  0.00     0.275 HD
ENDBRANCH   1   2
BRANCH   1   6
HETATM    6  C           1     -21.776  -4.486  -7.732  0.00  0.00     0.249 C 
HETATM    7  O           1     -21.761  -3.378  -7.254  0.00  0.00    -0.271 OA
HETATM    8  N           1     -22.323  -4.691  -8.970  0.00  0.00    -0.345 N 
HETATM    9  H           1     -22.335  -5.620  -9.371  0.00  0.00     0.163 HD
BRANCH   8  10
HETATM   10  C           1     -22.888  -3.576  -9.707  0.00  0.00     0.185 C 
BRANCH  10  11
HETATM   11  C           1     -22.034  -3.296 -10.936  0.00  0.00     0.039 C 
BRANCH  11  12
HETATM   12 Se           1     -20.419  -4.386 -10.869  0.00  0.00     0.000 Se
HETATM   13  H           1     -20.525  -4.661  -9.427  0.00  0.00     0.000 HD
ENDBRANCH  11  12
ENDBRANCH  10  11
BRANCH  10  14
HETATM   14  C           1     -24.293  -3.919 -10.137  0.00  0.00     0.196 C 
HETATM   15  O           1     -24.939  -3.123 -10.852  0.00  0.00    -0.646 OA
HETATM   16  O           1     -24.811  -4.998  -9.778  0.00  0.00    -0.646 OA
ENDBRANCH  10  14
ENDBRANCH   8  10
ENDBRANCH   1   6
BRANCH   1  17
HETATM   17  C           1     -20.900  -5.216  -5.534  0.00  0.00     0.081 C 
BRANCH  17  18
HETATM   18  C           1     -21.171  -6.357  -4.605  0.00  0.00    -0.056 A 
HETATM   19  C           1     -21.330  -7.647  -5.111  0.00  0.00     0.010 A 
HETATM   20  C           1     -21.582  -8.710  -4.245  0.00  0.00     0.037 A 
HETATM   21  C           1     -21.677  -8.484  -2.872  0.00  0.00     0.065 A 
HETATM   22  C           1     -21.520  -7.195  -2.365  0.00  0.00     0.037 A 
HETATM   23  C           1     -21.267  -6.131  -3.232  0.00  0.00     0.010 A 
BRANCH  21  24
HETATM   24  O           1     -21.924  -9.517  -2.031  0.00  0.00    -0.361 OA
HETATM   25  H           1     -21.101 -10.025  -1.928  0.00  0.00     0.217 HD
ENDBRANCH  21  24
ENDBRANCH  17  18
ENDBRANCH   1  17
TORSDOF 9
ENDMDL
MODEL 3
REMARK VINA RESULT:      -6.5     13.640     14.715
REMARK  9 active torsions:
REMARK  status: ('A' for Active; 'I' for Inactive)
REMARK    1  A    between atoms: C_1  and  Se_10 
REMARK    2  A    between atoms: C_1  and  C_21 
REMARK    3  A    between atoms: C_4  and  O_20 
REMARK    4  A    between atoms: C_7  and  C_24 
REMARK    5  A    between atoms: N_9  and  C_21 
REMARK       I    between atoms: N_9  and  C_25 
REMARK    6  A    between atoms: N_12  and  C_23 
REMARK    7  A    between atoms: C_14  and  C_21 
REMARK    8  A    between atoms: C_23  and  C_25 
REMARK    9  A    between atoms: C_23  and  C_24 
ROOT
HETATM    1  C           1     -32.909  -4.486 -16.657  0.00  0.00     0.278 C 
ENDROOT
BRANCH   1   2
HETATM    2  N           1     -33.181  -3.269 -17.491  0.00  0.00    -0.066 N 
HETATM    3  H           1     -34.212  -3.109 -17.549  0.00  0.00     0.275 HD
HETATM    4  H           1     -32.725  -2.437 -17.052  0.00  0.00     0.275 HD
HETATM    5  H           1     -32.795  -3.412 -18.451  0.00  0.00     0.275 HD
ENDBRANCH   1   2
BRANCH   1   6
HETATM    6  C           1     -33.802  -4.470 -15.440  0.00  0.00     0.249 C 
HETATM    7  O           1     -34.951  -4.827 -15.529  0.00  0.00    -0.271 OA
HETATM    8  N           1     -33.306  -4.051 -14.234  0.00  0.00    -0.345 N 
HETATM    9  H           1     -32.342  -3.751 -14.160  0.00  0.00     0.163 HD
BRANCH   8  10
HETATM   10  C           1     -34.163  -4.035 -13.064  0.00  0.00     0.185 C 
BRANCH  10  11
HETATM   11  C           1     -33.379  -4.523 -11.854  0.00  0.00     0.039 C 
BRANCH  11  12
HETATM   12 Se           1     -34.385  -5.926 -10.949  0.00  0.00     0.000 Se
HETATM   13  H           1     -34.257  -6.890 -12.053  0.00  0.00     0.000 HD
ENDBRANCH  11  12
ENDBRANCH  10  11
BRANCH  10  14
HETATM   14  C           1     -34.648  -2.627 -12.816  0.00  0.00     0.196 C 
HETATM   15  O           1     -34.686  -2.176 -11.651  0.00  0.00    -0.646 OA
HETATM   16  O           1     -35.012  -1.913 -13.775  0.00  0.00    -0.646 OA
ENDBRANCH  10  14
ENDBRANCH   8  10
ENDBRANCH   1   6
BRANCH   1  17
HETATM   17  C           1     -31.451  -4.484 -16.218  0.00  0.00     0.081 C 
BRANCH  17  18
HETATM   18  C           1     -30.660  -5.392 -17.106  0.00  0.00    -0.056 A 
HETATM   19  C           1     -29.479  -4.939 -17.694  0.00  0.00     0.010 A 
HETATM   20  C           1     -28.742  -5.786 -18.522  0.00  0.00     0.037 A 
HETATM   21  C           1     -29.187  -7.086 -18.763  0.00  0.00     0.065 A 
HETATM   22  C           1     -30.369  -7.539 -18.177  0.00  0.00     0.037 A 
HETATM   23  C           1     -31.105  -6.691 -17.349  0.00  0.00     0.010 A 
BRANCH  21  24
HETATM   24  O           1     -28.472  -7.907 -19.569  0.00  0.00    -0.361 OA
HETATM   25  H           1     -27.528  -7.745 -19.403  0.00  0.00     0.217 HD
ENDBRANCH  21  24
ENDBRANCH  17  18
ENDBRANCH   1  17
TORSDOF 9
ENDMDL
MODEL 4
REMARK VINA RESULT:      -6.5      2.094      2.338
REMARK  9 active torsions:
REMARK  status: ('A' for Active; 'I' for Inactive)
REMARK    1  A    between atoms: C_1  and  Se_10 
REMARK    2  A    between atoms: C_1  and  C_21 
REMARK    3  A    between atoms: C_4  and  O_20 
REMARK    4  A    between atoms: C_7  and  C_24 
REMARK    5  A    between atoms: N_9  and  C_21 
REMARK       I    between atoms: N_9  and  C_25 
REMARK    6  A    between atoms: N_12  and  C_23 
REMARK    7  A    between atoms: C_14  and  C_21 
REMARK    8  A    between atoms: C_23  and  C_25 
REMARK    9  A    between atoms: C_23  and  C_24 
ROOT
HETATM    1  C           1     -20.411  -5.084  -6.592  0.00  0.00     0.278 C 
ENDROOT
BRANCH   1   2
HETATM    2  N           1     -20.048  -5.964  -7.752  0.00  0.00    -0.066 N 
HETATM    3  H           1     -20.377  -5.523  -8.640  0.00  0.00     0.275 HD
HETATM    4  H           1     -19.010  -6.081  -7.787  0.00  0.00     0.275 HD
HETATM    5  H           1     -20.501  -6.898  -7.636  0.00  0.00     0.275 HD
ENDBRANCH   1   2
BRANCH   1   6
HETATM    6  C           1     -21.330  -5.836  -5.660  0.00  0.00     0.249 C 
HETATM    7  O           1     -22.514  -5.603  -5.662  0.00  0.00    -0.271 OA
HETATM    8  N           1     -20.820  -6.784  -4.814  0.00  0.00    -0.345 N 
HETATM    9  H           1     -19.827  -6.979  -4.813  0.00  0.00     0.163 HD
BRANCH   8  10
HETATM   10  C           1     -21.702  -7.507  -3.918  0.00  0.00     0.185 C 
BRANCH  10  11
HETATM   11  C           1     -21.281  -8.969  -3.861  0.00  0.00     0.039 C 
BRANCH  11  12
HETATM   12 Se           1     -19.500  -9.163  -4.629  0.00  0.00     0.000 Se
HETATM   13  H           1     -18.912  -9.745  -3.412  0.00  0.00     0.000 HD
ENDBRANCH  11  12
ENDBRANCH  10  11
BRANCH  10  14
HETATM   14  C           1     -21.619  -6.904  -2.537  0.00  0.00     0.196 C 
HETATM   15  O           1     -20.837  -7.389  -1.691  0.00  0.00    -0.646 OA
HETATM   16  O           1     -22.332  -5.922  -2.240  0.00  0.00    -0.646 OA
ENDBRANCH  10  14
ENDBRANCH   8  10
ENDBRANCH   1   6
BRANCH   1  17
HETATM   17  C           1     -21.117  -3.836  -7.105  0.00  0.00     0.081 C 
BRANCH  17  18
HETATM   18  C           1     -21.469  -4.018  -8.548  0.00  0.00    -0.056 A 
HETATM   19  C           1     -20.490  -3.867  -9.529  0.00  0.00     0.010 A 
HETATM   20  C           1     -20.817  -4.036 -10.874  0.00  0.00     0.037 A 
HETATM   21  C           1     -22.125  -4.356 -11.238  0.00  0.00     0.065 A 
HETATM   22  C           1     -23.106  -4.506 -10.257  0.00  0.00     0.037 A 
HETATM   23  C           1     -22.777  -4.337  -8.912  0.00  0.00     0.010 A 
BRANCH  21  24
HETATM   24  O           1     -22.444  -4.520 -12.545  0.00  0.00    -0.361 OA
HETATM   25  H           1     -21.871  -5.215 -12.909  0.00  0.00     0.217 HD
ENDBRANCH  21  24
ENDBRANCH  17  18
ENDBRANCH   1  17
TORSDOF 9
ENDMDL
MODEL 5
REMARK VINA RESULT:      -6.1      2.330      3.014
REMARK  9 active torsions:
REMARK  status: ('A' for Active; 'I' for Inactive)
REMARK    1  A    between atoms: C_1  and  Se_10 
REMARK    2  A    between atoms: C_1  and  C_21 
REMARK    3  A    between atoms: C_4  and  O_20 
REMARK    4  A    between atoms: C_7  and  C_24 
REMARK    5  A    between atoms: N_9  and  C_21 
REMARK       I    between atoms: N_9  and  C_25 
REMARK    6  A    between atoms: N_12  and  C_23 
REMARK    7  A    between atoms: C_14  and  C_21 
REMARK    8  A    between atoms: C_23  and  C_25 
REMARK    9  A    between atoms: C_23  and  C_24 
ROOT
HETATM    1  C           1     -20.987  -5.166  -5.967  0.00  0.00     0.278 C 
ENDROOT
BRANCH   1   2
HETATM    2  N           1     -19.823  -4.445  -5.355  0.00  0.00    -0.066 N 
HETATM    3  H           1     -19.280  -3.959  -6.105  0.00  0.00     0.275 HD
HETATM    4  H           1     -20.172  -3.739  -4.668  0.00  0.00     0.275 HD
HETATM    5  H           1     -19.205  -5.132  -4.867  0.00  0.00     0.275 HD
ENDBRANCH   1   2
BRANCH   1   6
HETATM    6  C           1     -21.257  -6.433  -5.193  0.00  0.00     0.249 C 
HETATM    7  O           1     -21.556  -7.446  -5.778  0.00  0.00    -0.271 OA
HETATM    8  N           1     -21.161  -6.433  -3.828  0.00  0.00    -0.345 N 
HETATM    9  H           1     -20.910  -5.584  -3.338  0.00  0.00     0.163 HD
BRANCH   8  10
HETATM   10  C           1     -21.420  -7.651  -3.083  0.00  0.00     0.185 C 
BRANCH  10  11
HETATM   11  C           1     -20.176  -8.529  -3.097  0.00  0.00     0.039 C 
BRANCH  11  12
HETATM   12 Se           1     -20.698 -10.394  -3.319  0.00  0.00     0.000 Se
HETATM   13  H           1     -21.741 -10.346  -2.282  0.00  0.00     0.000 HD
ENDBRANCH  11  12
ENDBRANCH  10  11
BRANCH  10  14
HETATM   14  C           1     -21.774  -7.302  -1.658  0.00  0.00     0.196 C 
HETATM   15  O           1     -22.589  -6.384  -1.424  0.00  0.00    -0.646 OA
HETATM   16  O           1     -21.251  -7.930  -0.713  0.00  0.00    -0.646 OA
ENDBRANCH  10  14
ENDBRANCH   8  10
ENDBRANCH   1   6
BRANCH   1  17
HETATM   17  C           1     -20.664  -5.513  -7.415  0.00  0.00     0.081 C 
BRANCH  17  18
HETATM   18  C           1     -21.646  -4.839  -8.321  0.00  0.00    -0.056 A 
HETATM   19  C           1     -22.915  -4.504  -7.850  0.00  0.00     0.010 A 
HETATM   20  C           1     -23.830  -3.876  -8.695  0.00  0.00     0.037 A 
HETATM   21  C           1     -23.475  -3.583 -10.012  0.00  0.00     0.065 A 
HETATM   22  C           1     -22.207  -3.919 -10.484  0.00  0.00     0.037 A 
HETATM   23  C           1     -21.292  -4.548  -9.638  0.00  0.00     0.010 A 
BRANCH  21  24
HETATM   24  O           1     -24.364  -2.974 -10.833  0.00  0.00    -0.361 OA
HETATM   25  H           1     -23.997  -2.110 -11.086  0.00  0.00     0.217 HD
ENDBRANCH  21  24
ENDBRANCH  17  18
ENDBRANCH   1  17
TORSDOF 9
ENDMDL
MODEL 6
REMARK VINA RESULT:      -6.1      1.668      2.182
REMARK  9 active torsions:
REMARK  status: ('A' for Active; 'I' for Inactive)
REMARK    1  A    between atoms: C_1  and  Se_10 
REMARK    2  A    between atoms: C_1  and  C_21 
REMARK    3  A    between atoms: C_4  and  O_20 
REMARK    4  A    between atoms: C_7  and  C_24 
REMARK    5  A    between atoms: N_9  and  C_21 
REMARK       I    between atoms: N_9  and  C_25 
REMARK    6  A    between atoms: N_12  and  C_23 
REMARK    7  A    between atoms: C_14  and  C_21 
REMARK    8  A    between atoms: C_23  and  C_25 
REMARK    9  A    between atoms: C_23  and  C_24 
ROOT
HETATM    1  C           1     -21.472  -6.147  -5.906  0.00  0.00     0.278 C 
ENDROOT
BRANCH   1   2
HETATM    2  N           1     -22.250  -6.020  -4.629  0.00  0.00    -0.066 N 
HETATM    3  H           1     -21.688  -6.409  -3.839  0.00  0.00     0.275 HD
HETATM    4  H           1     -22.455  -5.011  -4.446  0.00  0.00     0.275 HD
HETATM    5  H           1     -23.147  -6.549  -4.714  0.00  0.00     0.275 HD
ENDBRANCH   1   2
BRANCH   1   6
HETATM    6  C           1     -20.383  -7.177  -5.730  0.00  0.00     0.249 C 
HETATM    7  O           1     -19.464  -7.224  -6.511  0.00  0.00    -0.271 OA
HETATM    8  N           1     -20.438  -8.058  -4.684  0.00  0.00    -0.345 N 
HETATM    9  H           1     -21.210  -8.019  -4.029  0.00  0.00     0.163 HD
BRANCH   8  10
HETATM   10  C           1     -19.393  -9.049  -4.514  0.00  0.00     0.185 C 
BRANCH  10  11
HETATM   11  C           1     -19.075  -9.203  -3.033  0.00  0.00     0.039 C 
BRANCH  11  12
HETATM   12 Se           1     -20.420  -8.266  -1.978  0.00  0.00     0.000 Se
HETATM   13  H           1     -20.700  -7.260  -3.015  0.00  0.00     0.000 HD
ENDBRANCH  11  12
ENDBRANCH  10  11
BRANCH  10  14
HETATM   14  C           1     -19.861 -10.372  -5.068  0.00  0.00     0.196 C 
HETATM   15  O           1     -19.550 -10.708  -6.231  0.00  0.00    -0.646 OA
HETATM   16  O           1     -20.561 -11.132  -4.365  0.00  0.00    -0.646 OA
ENDBRANCH  10  14
ENDBRANCH   8  10
ENDBRANCH   1   6
BRANCH   1  17
HETATM   17  C           1     -20.847  -4.802  -6.254  0.00  0.00     0.081 C 
BRANCH  17  18
HETATM   18  C           1     -21.193  -4.440  -7.664  0.00  0.00    -0.056 A 
HETATM   19  C           1     -22.511  -4.133  -8.002  0.00  0.00     0.010 A 
HETATM   20  C           1     -22.834  -3.796  -9.317  0.00  0.00     0.037 A 
HETATM   21  C           1     -21.839  -3.767 -10.293  0.00  0.00     0.065 A 
HETATM   22  C           1     -20.521  -4.075  -9.956  0.00  0.00     0.037 A 
HETATM   23  C           1     -20.199  -4.412  -8.641  0.00  0.00     0.010 A 
BRANCH  21  24
HETATM   24  O           1     -22.153  -3.441 -11.570  0.00  0.00    -0.361 OA
HETATM   25  H           1     -21.342  -3.500 -12.104  0.00  0.00     0.217 HD
ENDBRANCH  21  24
ENDBRANCH  17  18
ENDBRANCH   1  17
TORSDOF 9
ENDMDL
MODEL 7
REMARK VINA RESULT:      -6.0     13.388     14.389
REMARK  9 active torsions:
REMARK  status: ('A' for Active; 'I' for Inactive)
REMARK    1  A    between atoms: C_1  and  Se_10 
REMARK    2  A    between atoms: C_1  and  C_21 
REMARK    3  A    between atoms: C_4  and  O_20 
REMARK    4  A    between atoms: C_7  and  C_24 
REMARK    5  A    between atoms: N_9  and  C_21 
REMARK       I    between atoms: N_9  and  C_25 
REMARK    6  A    between atoms: N_12  and  C_23 
REMARK    7  A    between atoms: C_14  and  C_21 
REMARK    8  A    between atoms: C_23  and  C_25 
REMARK    9  A    between atoms: C_23  and  C_24 
ROOT
HETATM    1  C           1     -33.656  -4.812 -15.449  0.00  0.00     0.278 C 
ENDROOT
BRANCH   1   2
HETATM    2  N           1     -34.750  -5.712 -15.943  0.00  0.00    -0.066 N 
HETATM    3  H           1     -35.148  -6.251 -15.141  0.00  0.00     0.275 HD
HETATM    4  H           1     -35.504  -5.135 -16.381  0.00  0.00     0.275 HD
HETATM    5  H           1     -34.363  -6.375 -16.651  0.00  0.00     0.275 HD
ENDBRANCH   1   2
BRANCH   1   6
HETATM    6  C           1     -34.194  -3.920 -14.357  0.00  0.00     0.249 C 
HETATM    7  O           1     -34.622  -2.824 -14.628  0.00  0.00    -0.271 OA
HETATM    8  N           1     -34.198  -4.354 -13.059  0.00  0.00    -0.345 N 
HETATM    9  H           1     -33.839  -5.273 -12.831  0.00  0.00     0.163 HD
BRANCH   8  10
HETATM   10  C           1     -34.714  -3.497 -12.009  0.00  0.00     0.185 C 
BRANCH  10  11
HETATM   11  C           1     -35.380  -4.351 -10.938  0.00  0.00     0.039 C 
BRANCH  11  12
HETATM   12 Se           1     -34.433  -6.047 -10.777  0.00  0.00     0.000 Se
HETATM   13  H           1     -33.406  -5.520  -9.864  0.00  0.00     0.000 HD
ENDBRANCH  11  12
ENDBRANCH  10  11
BRANCH  10  14
HETATM   14  C           1     -33.579  -2.715 -11.395  0.00  0.00     0.196 C 
HETATM   15  O           1     -33.792  -1.586 -10.904  0.00  0.00    -0.646 OA
HETATM   16  O           1     -32.426  -3.196 -11.379  0.00  0.00    -0.646 OA
ENDBRANCH  10  14
ENDBRANCH   8  10
ENDBRANCH   1   6
BRANCH   1  17
HETATM   17  C           1     -33.146  -3.955 -16.600  0.00  0.00     0.081 C 
BRANCH  17  18
HETATM   18  C           1     -31.824  -4.480 -17.065  0.00  0.00    -0.056 A 
HETATM   19  C           1     -31.563  -5.849 -17.027  0.00  0.00     0.010 A 
HETATM   20  C           1     -30.331  -6.338 -17.460  0.00  0.00     0.037 A 
HETATM   21  C           1     -29.359  -5.456 -17.932  0.00  0.00     0.065 A 
HETATM   22  C           1     -29.617  -4.087 -17.970  0.00  0.00     0.037 A 
HETATM   23  C           1     -30.850  -3.598 -17.536  0.00  0.00     0.010 A 
BRANCH  21  24
HETATM   24  O           1     -28.161  -5.931 -18.352  0.00  0.00    -0.361 OA
HETATM   25  H           1     -28.320  -6.531 -19.101  0.00  0.00     0.217 HD
ENDBRANCH  21  24
ENDBRANCH  17  18
ENDBRANCH   1  17
TORSDOF 9
ENDMDL
MODEL 8
REMARK VINA RESULT:      -5.9     12.480     14.599
REMARK  9 active torsions:
REMARK  status: ('A' for Active; 'I' for Inactive)
REMARK    1  A    between atoms: C_1  and  Se_10 
REMARK    2  A    between atoms: C_1  and  C_21 
REMARK    3  A    between atoms: C_4  and  O_20 
REMARK    4  A    between atoms: C_7  and  C_24 
REMARK    5  A    between atoms: N_9  and  C_21 
REMARK       I    between atoms: N_9  and  C_25 
REMARK    6  A    between atoms: N_12  and  C_23 
REMARK    7  A    between atoms: C_14  and  C_21 
REMARK    8  A    between atoms: C_23  and  C_25 
REMARK    9  A    between atoms: C_23  and  C_24 
ROOT
HETATM    1  C           1     -26.438  -7.754 -20.593  0.00  0.00     0.278 C 
ENDROOT
BRANCH   1   2
HETATM    2  N           1     -27.458  -8.768 -21.019  0.00  0.00    -0.066 N 
HETATM    3  H           1     -27.048  -9.727 -20.944  0.00  0.00     0.275 HD
HETATM    4  H           1     -28.297  -8.699 -20.400  0.00  0.00     0.275 HD
HETATM    5  H           1     -27.738  -8.585 -22.009  0.00  0.00     0.275 HD
ENDBRANCH   1   2
BRANCH   1   6
HETATM    6  C           1     -27.137  -6.569 -19.972  0.00  0.00     0.249 C 
HETATM    7  O           1     -27.250  -5.540 -20.593  0.00  0.00    -0.271 OA
HETATM    8  N           1     -27.645  -6.662 -18.704  0.00  0.00    -0.345 N 
HETATM    9  H           1     -27.550  -7.525 -18.183  0.00  0.00     0.163 HD
BRANCH   8  10
HETATM   10  C           1     -28.317  -5.524 -18.106  0.00  0.00     0.185 C 
BRANCH  10  11
HETATM   11  C           1     -29.697  -5.946 -17.623  0.00  0.00     0.039 C 
BRANCH  11  12
HETATM   12 Se           1     -30.124  -7.711 -18.332  0.00  0.00     0.000 Se
HETATM   13  H           1     -29.146  -8.415 -17.488  0.00  0.00     0.000 HD
ENDBRANCH  11  12
ENDBRANCH  10  11
BRANCH  10  14
HETATM   14  C           1     -27.507  -5.020 -16.937  0.00  0.00     0.196 C 
HETATM   15  O           1     -27.916  -4.048 -16.266  0.00  0.00    -0.646 OA
HETATM   16  O           1     -26.426  -5.573 -16.640  0.00  0.00    -0.646 OA
ENDBRANCH  10  14
ENDBRANCH   8  10
ENDBRANCH   1   6
BRANCH   1  17
HETATM   17  C           1     -25.641  -7.294 -21.807  0.00  0.00     0.081 C 
BRANCH  17  18
HETATM   18  C           1     -24.254  -7.850 -21.733  0.00  0.00    -0.056 A 
HETATM   19  C           1     -23.614  -7.969 -20.500  0.00  0.00     0.010 A 
HETATM   20  C           1     -22.321  -8.487 -20.431  0.00  0.00     0.037 A 
HETATM   21  C           1     -21.667  -8.885 -21.597  0.00  0.00     0.065 A 
HETATM   22  C           1     -22.305  -8.764 -22.831  0.00  0.00     0.037 A 
HETATM   23  C           1     -23.599  -8.246 -22.899  0.00  0.00     0.010 A 
BRANCH  21  24
HETATM   24  O           1     -20.410  -9.386 -21.530  0.00  0.00    -0.361 OA
HETATM   25  H           1     -20.289  -9.996 -22.278  0.00  0.00     0.217 HD
ENDBRANCH  21  24
ENDBRANCH  17  18
ENDBRANCH   1  17
TORSDOF 9
ENDMDL
MODEL 9
REMARK VINA RESULT:      -5.8      1.997      2.442
REMARK  9 active torsions:
REMARK  status: ('A' for Active; 'I' for Inactive)
REMARK    1  A    between atoms: C_1  and  Se_10 
REMARK    2  A    between atoms: C_1  and  C_21 
REMARK    3  A    between atoms: C_4  and  O_20 
REMARK    4  A    between atoms: C_7  and  C_24 
REMARK    5  A    between atoms: N_9  and  C_21 
REMARK       I    between atoms: N_9  and  C_25 
REMARK    6  A    between atoms: N_12  and  C_23 
REMARK    7  A    between atoms: C_14  and  C_21 
REMARK    8  A    between atoms: C_23  and  C_25 
REMARK    9  A    between atoms: C_23  and  C_24 
ROOT
HETATM    1  C           1     -21.674  -6.555  -5.729  0.00  0.00     0.278 C 
ENDROOT
BRANCH   1   2
HETATM    2  N           1     -22.823  -6.112  -4.871  0.00  0.00    -0.066 N 
HETATM    3  H           1     -22.956  -6.793  -4.089  0.00  0.00     0.275 HD
HETATM    4  H           1     -22.619  -5.166  -4.477  0.00  0.00     0.275 HD
HETATM    5  H           1     -23.693  -6.069  -5.449  0.00  0.00     0.275 HD
ENDBRANCH   1   2
BRANCH   1   6
HETATM    6  C           1     -20.871  -7.599  -4.992  0.00  0.00     0.249 C 
HETATM    7  O           1     -20.658  -7.475  -3.811  0.00  0.00    -0.271 OA
HETATM    8  N           1     -20.384  -8.687  -5.665  0.00  0.00    -0.345 N 
HETATM    9  H           1     -20.563  -8.791  -6.657  0.00  0.00     0.163 HD
BRANCH   8  10
HETATM   10  C           1     -19.611  -9.691  -4.958  0.00  0.00     0.185 C 
BRANCH  10  11
HETATM   11  C           1     -20.122 -11.077  -5.328  0.00  0.00     0.039 C 
BRANCH  11  12
HETATM   12 Se           1     -21.790 -11.429  -4.383  0.00  0.00     0.000 Se
HETATM   13  H           1     -22.397 -10.136  -4.734  0.00  0.00     0.000 HD
ENDBRANCH  11  12
ENDBRANCH  10  11
BRANCH  10  14
HETATM   14  C           1     -18.158  -9.570  -5.346  0.00  0.00     0.196 C 
HETATM   15  O           1     -17.265  -9.817  -4.507  0.00  0.00    -0.646 OA
HETATM   16  O           1     -17.847  -9.221  -6.505  0.00  0.00    -0.646 OA
ENDBRANCH  10  14
ENDBRANCH   8  10
ENDBRANCH   1   6
BRANCH   1  17
HETATM   17  C           1     -20.786  -5.358  -6.043  0.00  0.00     0.081 C 
BRANCH  17  18
HETATM   18  C           1     -21.113  -4.838  -7.407  0.00  0.00    -0.056 A 
HETATM   19  C           1     -20.164  -4.908  -8.427  0.00  0.00     0.010 A 
HETATM   20  C           1     -20.468  -4.423  -9.698  0.00  0.00     0.037 A 
HETATM   21  C           1     -21.723  -3.867  -9.950  0.00  0.00     0.065 A 
HETATM   22  C           1     -22.672  -3.795  -8.931  0.00  0.00     0.037 A 
HETATM   23  C           1     -22.366  -4.280  -7.659  0.00  0.00     0.010 A 
BRANCH  21  24
HETATM   24  O           1     -22.018  -3.395 -11.186  0.00  0.00    -0.361 OA
HETATM   25  H           1     -22.848  -2.893 -11.125  0.00  0.00     0.217 HD
ENDBRANCH  21  24
ENDBRANCH  17  18
ENDBRANCH   1  17
TORSDOF 9
ENDMDL
