MODEL 1
REMARK VINA RESULT:      -6.5      0.000      0.000
REMARK  18 active torsions:
REMARK  status: ('A' for Active; 'I' for Inactive)
REMARK    1  A    between atoms: C_1  and  C_37 
REMARK    2  A    between atoms: C_1  and  C_2 
REMARK    3  A    between atoms: C_1  and  N_39 
REMARK    4  A    between atoms: C_2  and  C_3 
REMARK    5  A    between atoms: C_3  and  C_41 
REMARK    6  A    between atoms: N_4  and  C_5 
REMARK    7  A    between atoms: C_5  and  C_6 
REMARK    8  A    between atoms: C_6  and  C_7 
REMARK    9  A    between atoms: C_7  and  C_8 
REMARK   10  A    between atoms: C_8  and  C_9 
REMARK   11  A    between atoms: C_9  and  C_10 
REMARK   12  A    between atoms: C_9  and  N_13 
REMARK   13  A    between atoms: N_13  and  C_14 
REMARK   14  A    between atoms: C_14  and  C_15 
REMARK   15  A    between atoms: C_15  and  C_24 
REMARK   16  A    between atoms: C_17  and  C_24 
REMARK       I    between atoms: C_21  and  N_22 
REMARK       I    between atoms: C_21  and  N_23 
REMARK   17  A    between atoms: C_24  and  N_36 
REMARK       I    between atoms: N_36  and  C_37 
REMARK   18  A    between atoms: N_40  and  C_41 
ROOT
HETATM    1  H           1     -27.454  -7.001 -18.673  0.00  0.00     0.163 HD
HETATM    2  O           1     -24.378  -6.426 -18.448  0.00  0.00    -0.271 OA
HETATM    3  N           1     -26.591  -6.664 -18.265  0.00  0.00    -0.345 N 
HETATM    4  C           1     -25.408  -6.828 -18.935  0.00  0.00     0.249 C 
ENDROOT
BRANCH   3   5
HETATM    5  C           1     -26.607  -6.010 -16.972  0.00  0.00     0.187 C 
BRANCH   5   6
HETATM    6  C           1     -27.901  -5.222 -16.818  0.00  0.00     0.066 C 
BRANCH   6   7
HETATM    7  C           1     -28.383  -4.764 -18.189  0.00  0.00     0.273 C 
BRANCH   7   8
HETATM    8  N           1     -29.790  -5.031 -18.317  0.00  0.00     0.098 N 
HETATM    9  H           1     -30.018  -5.192 -19.298  0.00  0.00     0.317 HD
BRANCH   8  10
HETATM   10  C           1     -30.081  -6.216 -17.556  0.00  0.00     0.320 C 
BRANCH  10  11
HETATM   11  C           1     -31.427  -6.056 -16.862  0.00  0.00     0.047 C 
BRANCH  11  12
HETATM   12  C           1     -31.629  -4.597 -16.475  0.00  0.00     0.004 C 
BRANCH  12  13
HETATM   13  C           1     -33.009  -4.137 -16.928  0.00  0.00     0.027 C 
BRANCH  13  14
HETATM   14  C           1     -33.980  -4.217 -15.758  0.00  0.00     0.229 C 
BRANCH  14  15
HETATM   15  N           1     -34.734  -5.512 -15.819  0.00  0.00    -0.079 N 
HETATM   16  H           1     -35.270  -5.645 -14.932  0.00  0.00     0.274 HD
HETATM   17  H           1     -35.396  -5.491 -16.627  0.00  0.00     0.274 HD
HETATM   18  H           1     -34.060  -6.301 -15.940  0.00  0.00     0.274 HD
ENDBRANCH  14  15
ENDBRANCH  13  14
ENDBRANCH  12  13
ENDBRANCH  11  12
ENDBRANCH  10  11
BRANCH  10  19
HETATM   19  C           1     -30.131  -7.407 -18.482  0.00  0.00     0.207 C 
HETATM   20  O           1     -31.234  -7.859 -18.860  0.00  0.00    -0.646 OA
HETATM   21  O           1     -29.070  -7.940 -18.873  0.00  0.00    -0.646 OA
ENDBRANCH  10  19
ENDBRANCH   8  10
ENDBRANCH   7   8
ENDBRANCH   6   7
ENDBRANCH   5   6
BRANCH   5  22
HETATM   22  C           1     -26.516  -7.049 -15.882  0.00  0.00     0.196 C 
HETATM   23  O           1     -27.558  -7.499 -15.360  0.00  0.00    -0.646 OA
HETATM   24  O           1     -25.398  -7.459 -15.500  0.00  0.00    -0.646 OA
ENDBRANCH   5  22
ENDBRANCH   3   5
BRANCH   4  25
HETATM   25  C           1     -25.392  -7.510 -20.282  0.00  0.00     0.274 C 
BRANCH  25  26
HETATM   26  C           1     -24.888  -6.536 -21.339  0.00  0.00     0.044 C 
BRANCH  26  27
HETATM   27  C           1     -24.184  -7.307 -22.447  0.00  0.00     0.023 C 
BRANCH  27  28
HETATM   28  C           1     -23.818  -8.698 -21.944  0.00  0.00     0.138 C 
BRANCH  28  29
HETATM   29  N           1     -22.596  -9.157 -22.619  0.00  0.00    -0.227 N 
HETATM   30  C           1     -21.490  -9.150 -22.001  0.00  0.00     0.665 C 
HETATM   31  N           1     -20.437  -9.546 -22.583  0.00  0.00    -0.235 N 
HETATM   32  N           1     -21.437  -8.737 -20.770  0.00  0.00    -0.235 N 
HETATM   33  H           1     -19.521  -9.540 -22.070  0.00  0.00     0.174 HD
HETATM   34  H           1     -20.481  -9.880 -23.577  0.00  0.00     0.174 HD
HETATM   35  H           1     -20.525  -8.730 -20.260  0.00  0.00     0.174 HD
HETATM   36  H           1     -22.306  -8.410 -20.291  0.00  0.00     0.174 HD
HETATM   37  H           1     -22.639  -9.492 -23.613  0.00  0.00     0.177 HD
ENDBRANCH  28  29
ENDBRANCH  27  28
ENDBRANCH  26  27
ENDBRANCH  25  26
BRANCH  25  38
HETATM   38  N           1     -26.781  -7.954 -20.634  0.00  0.00    -0.067 N 
HETATM   39  H           1     -26.758  -8.491 -21.529  0.00  0.00     0.275 HD
HETATM   40  H           1     -27.155  -8.563 -19.872  0.00  0.00     0.275 HD
HETATM   41  H           1     -27.396  -7.117 -20.746  0.00  0.00     0.275 HD
ENDBRANCH  25  38
ENDBRANCH   4  25
TORSDOF 18
ENDMDL
MODEL 2
REMARK VINA RESULT:      -6.5     13.489     16.494
REMARK  18 active torsions:
REMARK  status: ('A' for Active; 'I' for Inactive)
REMARK    1  A    between atoms: C_1  and  C_37 
REMARK    2  A    between atoms: C_1  and  C_2 
REMARK    3  A    between atoms: C_1  and  N_39 
REMARK    4  A    between atoms: C_2  and  C_3 
REMARK    5  A    between atoms: C_3  and  C_41 
REMARK    6  A    between atoms: N_4  and  C_5 
REMARK    7  A    between atoms: C_5  and  C_6 
REMARK    8  A    between atoms: C_6  and  C_7 
REMARK    9  A    between atoms: C_7  and  C_8 
REMARK   10  A    between atoms: C_8  and  C_9 
REMARK   11  A    between atoms: C_9  and  C_10 
REMARK   12  A    between atoms: C_9  and  N_13 
REMARK   13  A    between atoms: N_13  and  C_14 
REMARK   14  A    between atoms: C_14  and  C_15 
REMARK   15  A    between atoms: C_15  and  C_24 
REMARK   16  A    between atoms: C_17  and  C_24 
REMARK       I    between atoms: C_21  and  N_22 
REMARK       I    between atoms: C_21  and  N_23 
REMARK   17  A    between atoms: C_24  and  N_36 
REMARK       I    between atoms: N_36  and  C_37 
REMARK   18  A    between atoms: N_40  and  C_41 
ROOT
HETATM    1  H           1     -21.247  -8.000  -4.398  0.00  0.00     0.163 HD
HETATM    2  O           1     -19.379  -6.994  -6.709  0.00  0.00    -0.271 OA
HETATM    3  N           1     -20.446  -7.987  -5.017  0.00  0.00    -0.345 N 
HETATM    4  C           1     -20.335  -7.010  -5.970  0.00  0.00     0.249 C 
ENDROOT
BRANCH   3   5
HETATM    5  C           1     -19.418  -9.001  -4.894  0.00  0.00     0.187 C 
BRANCH   5   6
HETATM    6  C           1     -19.086  -9.210  -3.423  0.00  0.00     0.066 C 
BRANCH   6   7
HETATM    7  C           1     -20.267  -9.872  -2.724  0.00  0.00     0.273 C 
BRANCH   7   8
HETATM    8  N           1     -20.497  -9.230  -1.458  0.00  0.00     0.098 N 
HETATM    9  H           1     -19.898  -8.407  -1.380  0.00  0.00     0.317 HD
BRANCH   8  10
HETATM   10  C           1     -21.876  -8.825  -1.417  0.00  0.00     0.320 C 
BRANCH  10  11
HETATM   11  C           1     -22.511  -9.317  -0.124  0.00  0.00     0.047 C 
BRANCH  11  12
HETATM   12  C           1     -23.543 -10.392  -0.440  0.00  0.00     0.004 C 
BRANCH  12  13
HETATM   13  C           1     -23.112 -11.711   0.188  0.00  0.00     0.027 C 
BRANCH  13  14
HETATM   14  C           1     -22.316 -12.520  -0.827  0.00  0.00     0.229 C 
BRANCH  14  15
HETATM   15  N           1     -22.933 -12.367  -2.185  0.00  0.00    -0.079 N 
HETATM   16  H           1     -23.894 -12.777  -2.180  0.00  0.00     0.274 HD
HETATM   17  H           1     -22.988 -11.352  -2.429  0.00  0.00     0.274 HD
HETATM   18  H           1     -22.346 -12.864  -2.892  0.00  0.00     0.274 HD
ENDBRANCH  14  15
ENDBRANCH  13  14
ENDBRANCH  12  13
ENDBRANCH  11  12
ENDBRANCH  10  11
BRANCH  10  19
HETATM   19  C           1     -21.959  -7.319  -1.478  0.00  0.00     0.207 C 
HETATM   20  O           1     -22.742  -6.706  -0.721  0.00  0.00    -0.646 OA
HETATM   21  O           1     -21.244  -6.685  -2.283  0.00  0.00    -0.646 OA
ENDBRANCH  10  19
ENDBRANCH   8  10
ENDBRANCH   7   8
ENDBRANCH   6   7
ENDBRANCH   5   6
BRANCH   5  22
HETATM   22  C           1     -19.916 -10.295  -5.488  0.00  0.00     0.196 C 
HETATM   23  O           1     -21.059 -10.355  -5.988  0.00  0.00    -0.646 OA
HETATM   24  O           1     -19.184 -11.309  -5.479  0.00  0.00    -0.646 OA
ENDBRANCH   5  22
ENDBRANCH   3   5
BRANCH   4  25
HETATM   25  C           1     -21.406  -5.954  -6.098  0.00  0.00     0.274 C 
BRANCH  25  26
HETATM   26  C           1     -20.755  -4.580  -6.195  0.00  0.00     0.044 C 
BRANCH  26  27
HETATM   27  C           1     -21.573  -3.695  -7.127  0.00  0.00     0.023 C 
BRANCH  27  28
HETATM   28  C           1     -22.345  -4.569  -8.108  0.00  0.00     0.138 C 
BRANCH  28  29
HETATM   29  N           1     -23.688  -4.008  -8.311  0.00  0.00    -0.227 N 
HETATM   30  C           1     -24.218  -4.034  -9.461  0.00  0.00     0.665 C 
HETATM   31  N           1     -25.376  -3.551  -9.636  0.00  0.00    -0.235 N 
HETATM   32  N           1     -23.574  -4.559 -10.461  0.00  0.00    -0.235 N 
HETATM   33  H           1     -25.815  -3.574 -10.589  0.00  0.00     0.174 HD
HETATM   34  H           1     -25.896  -3.128  -8.827  0.00  0.00     0.174 HD
HETATM   35  H           1     -24.011  -4.580 -11.410  0.00  0.00     0.174 HD
HETATM   36  H           1     -22.619  -4.957 -10.316  0.00  0.00     0.174 HD
HETATM   37  H           1     -24.209  -3.585  -7.503  0.00  0.00     0.177 HD
ENDBRANCH  28  29
ENDBRANCH  27  28
ENDBRANCH  26  27
ENDBRANCH  25  26
BRANCH  25  38
HETATM   38  N           1     -22.299  -6.000  -4.893  0.00  0.00    -0.067 N 
HETATM   39  H           1     -21.939  -6.713  -4.220  0.00  0.00     0.275 HD
HETATM   40  H           1     -22.312  -5.062  -4.434  0.00  0.00     0.275 HD
HETATM   41  H           1     -23.267  -6.258  -5.188  0.00  0.00     0.275 HD
ENDBRANCH  25  38
ENDBRANCH   4  25
TORSDOF 18
ENDMDL
MODEL 3
REMARK VINA RESULT:      -6.4     13.778     17.175
REMARK  18 active torsions:
REMARK  status: ('A' for Active; 'I' for Inactive)
REMARK    1  A    between atoms: C_1  and  C_37 
REMARK    2  A    between atoms: C_1  and  C_2 
REMARK    3  A    between atoms: C_1  and  N_39 
REMARK    4  A    between atoms: C_2  and  C_3 
REMARK    5  A    between atoms: C_3  and  C_41 
REMARK    6  A    between atoms: N_4  and  C_5 
REMARK    7  A    between atoms: C_5  and  C_6 
REMARK    8  A    between atoms: C_6  and  C_7 
REMARK    9  A    between atoms: C_7  and  C_8 
REMARK   10  A    between atoms: C_8  and  C_9 
REMARK   11  A    between atoms: C_9  and  C_10 
REMARK   12  A    between atoms: C_9  and  N_13 
REMARK   13  A    between atoms: N_13  and  C_14 
REMARK   14  A    between atoms: C_14  and  C_15 
REMARK   15  A    between atoms: C_15  and  C_24 
REMARK   16  A    between atoms: C_17  and  C_24 
REMARK       I    between atoms: C_21  and  N_22 
REMARK       I    between atoms: C_21  and  N_23 
REMARK   17  A    between atoms: C_24  and  N_36 
REMARK       I    between atoms: N_36  and  C_37 
REMARK   18  A    between atoms: N_40  and  C_41 
ROOT
HETATM    1  H           1     -20.696  -5.576  -3.409  0.00  0.00     0.163 HD
HETATM    2  O           1     -21.603  -7.768  -5.463  0.00  0.00    -0.271 OA
HETATM    3  N           1     -21.056  -6.465  -3.734  0.00  0.00    -0.345 N 
HETATM    4  C           1     -21.172  -6.708  -5.076  0.00  0.00     0.249 C 
ENDROOT
BRANCH   3   5
HETATM    5  C           1     -21.452  -7.480  -2.777  0.00  0.00     0.187 C 
BRANCH   5   6
HETATM    6  C           1     -20.217  -8.228  -2.293  0.00  0.00     0.066 C 
BRANCH   6   7
HETATM    7  C           1     -20.356  -9.708  -2.626  0.00  0.00     0.273 C 
BRANCH   7   8
HETATM    8  N           1     -19.987  -9.927  -3.998  0.00  0.00     0.098 N 
HETATM    9  H           1     -20.557  -9.334  -4.602  0.00  0.00     0.317 HD
BRANCH   8  10
HETATM   10  C           1     -18.603  -9.568  -4.142  0.00  0.00     0.320 C 
BRANCH  10  11
HETATM   11  C           1     -17.743 -10.521  -3.322  0.00  0.00     0.047 C 
BRANCH  11  12
HETATM   12  C           1     -16.541  -9.771  -2.765  0.00  0.00     0.004 C 
BRANCH  12  13
HETATM   13  C           1     -15.627 -10.746  -2.035  0.00  0.00     0.027 C 
BRANCH  13  14
HETATM   14  C           1     -16.443 -11.560  -1.040  0.00  0.00     0.229 C 
BRANCH  14  15
HETATM   15  N           1     -15.519 -12.355  -0.165  0.00  0.00    -0.079 N 
HETATM   16  H           1     -14.722 -11.752   0.138  0.00  0.00     0.274 HD
HETATM   17  H           1     -16.041 -12.692   0.675  0.00  0.00     0.274 HD
HETATM   18  H           1     -15.152 -13.173  -0.701  0.00  0.00     0.274 HD
ENDBRANCH  14  15
ENDBRANCH  13  14
ENDBRANCH  12  13
ENDBRANCH  11  12
ENDBRANCH  10  11
BRANCH  10  19
HETATM   19  C           1     -18.209  -9.659  -5.596  0.00  0.00     0.207 C 
HETATM   20  O           1     -18.494  -8.728  -6.380  0.00  0.00    -0.646 OA
HETATM   21  O           1     -17.597 -10.665  -6.016  0.00  0.00    -0.646 OA
ENDBRANCH  10  19
ENDBRANCH   8  10
ENDBRANCH   7   8
ENDBRANCH   6   7
ENDBRANCH   5   6
BRANCH   5  22
HETATM   22  C           1     -22.136  -6.824  -1.603  0.00  0.00     0.196 C 
HETATM   23  O           1     -22.459  -7.505  -0.607  0.00  0.00    -0.646 OA
HETATM   24  O           1     -22.381  -5.598  -1.628  0.00  0.00    -0.646 OA
ENDBRANCH   5  22
ENDBRANCH   3   5
BRANCH   4  25
HETATM   25  C           1     -20.760  -5.651  -6.073  0.00  0.00     0.274 C 
BRANCH  25  26
HETATM   26  C           1     -22.002  -4.975  -6.639  0.00  0.00     0.044 C 
BRANCH  26  27
HETATM   27  C           1     -21.588  -3.772  -7.477  0.00  0.00     0.023 C 
BRANCH  27  28
HETATM   28  C           1     -22.228  -3.871  -8.856  0.00  0.00     0.138 C 
BRANCH  28  29
HETATM   29  N           1     -23.656  -3.537  -8.760  0.00  0.00    -0.227 N 
HETATM   30  C           1     -24.428  -3.768  -9.736  0.00  0.00     0.665 C 
HETATM   31  N           1     -25.658  -3.480  -9.653  0.00  0.00    -0.235 N 
HETATM   32  N           1     -23.957  -4.303 -10.824  0.00  0.00    -0.235 N 
HETATM   33  H           1     -26.298  -3.673 -10.463  0.00  0.00     0.174 HD
HETATM   34  H           1     -26.038  -3.049  -8.774  0.00  0.00     0.174 HD
HETATM   35  H           1     -24.594  -4.494 -11.630  0.00  0.00     0.174 HD
HETATM   36  H           1     -22.942  -4.541 -10.892  0.00  0.00     0.174 HD
HETATM   37  H           1     -24.036  -3.106  -7.881  0.00  0.00     0.177 HD
ENDBRANCH  28  29
ENDBRANCH  27  28
ENDBRANCH  26  27
ENDBRANCH  25  26
BRANCH  25  38
HETATM   38  N           1     -19.987  -6.291  -7.188  0.00  0.00    -0.067 N 
HETATM   39  H           1     -20.607  -6.404  -8.021  0.00  0.00     0.275 HD
HETATM   40  H           1     -19.174  -5.686  -7.439  0.00  0.00     0.275 HD
HETATM   41  H           1     -19.644  -7.228  -6.880  0.00  0.00     0.275 HD
ENDBRANCH  25  38
ENDBRANCH   4  25
TORSDOF 18
ENDMDL
MODEL 4
REMARK VINA RESULT:      -6.2     13.953     16.529
REMARK  18 active torsions:
REMARK  status: ('A' for Active; 'I' for Inactive)
REMARK    1  A    between atoms: C_1  and  C_37 
REMARK    2  A    between atoms: C_1  and  C_2 
REMARK    3  A    between atoms: C_1  and  N_39 
REMARK    4  A    between atoms: C_2  and  C_3 
REMARK    5  A    between atoms: C_3  and  C_41 
REMARK    6  A    between atoms: N_4  and  C_5 
REMARK    7  A    between atoms: C_5  and  C_6 
REMARK    8  A    between atoms: C_6  and  C_7 
REMARK    9  A    between atoms: C_7  and  C_8 
REMARK   10  A    between atoms: C_8  and  C_9 
REMARK   11  A    between atoms: C_9  and  C_10 
REMARK   12  A    between atoms: C_9  and  N_13 
REMARK   13  A    between atoms: N_13  and  C_14 
REMARK   14  A    between atoms: C_14  and  C_15 
REMARK   15  A    between atoms: C_15  and  C_24 
REMARK   16  A    between atoms: C_17  and  C_24 
REMARK       I    between atoms: C_21  and  N_22 
REMARK       I    between atoms: C_21  and  N_23 
REMARK   17  A    between atoms: C_24  and  N_36 
REMARK       I    between atoms: N_36  and  C_37 
REMARK   18  A    between atoms: N_40  and  C_41 
ROOT
HETATM    1  H           1     -22.814  -9.026  -2.345  0.00  0.00     0.163 HD
HETATM    2  O           1     -19.921  -9.938  -1.543  0.00  0.00    -0.271 OA
HETATM    3  N           1     -21.901  -8.972  -1.912  0.00  0.00    -0.345 N 
HETATM    4  C           1     -21.011 -10.002  -2.060  0.00  0.00     0.249 C 
ENDROOT
BRANCH   3   5
HETATM    5  C           1     -21.535  -7.805  -1.134  0.00  0.00     0.187 C 
BRANCH   5   6
HETATM    6  C           1     -22.163  -6.565  -1.755  0.00  0.00     0.066 C 
BRANCH   6   7
HETATM    7  C           1     -21.408  -6.193  -3.025  0.00  0.00     0.273 C 
BRANCH   7   8
HETATM    8  N           1     -22.321  -6.166  -4.136  0.00  0.00     0.098 N 
HETATM    9  H           1     -22.844  -5.289  -4.124  0.00  0.00     0.317 HD
BRANCH   8  10
HETATM   10  C           1     -21.544  -6.244  -5.343  0.00  0.00     0.320 C 
BRANCH  10  11
HETATM   11  C           1     -20.479  -5.157  -5.332  0.00  0.00     0.047 C 
BRANCH  11  12
HETATM   12  C           1     -20.291  -4.613  -6.742  0.00  0.00     0.004 C 
BRANCH  12  13
HETATM   13  C           1     -21.429  -3.657  -7.075  0.00  0.00     0.027 C 
BRANCH  13  14
HETATM   14  C           1     -22.250  -4.225  -8.224  0.00  0.00     0.229 C 
BRANCH  14  15
HETATM   15  N           1     -23.711  -4.075  -7.919  0.00  0.00    -0.079 N 
HETATM   16  H           1     -23.854  -4.091  -6.884  0.00  0.00     0.274 HD
HETATM   17  H           1     -24.054  -3.165  -8.303  0.00  0.00     0.274 HD
HETATM   18  H           1     -24.241  -4.861  -8.356  0.00  0.00     0.274 HD
ENDBRANCH  14  15
ENDBRANCH  13  14
ENDBRANCH  12  13
ENDBRANCH  11  12
ENDBRANCH  10  11
BRANCH  10  19
HETATM   19  C           1     -20.881  -7.598  -5.425  0.00  0.00     0.207 C 
HETATM   20  O           1     -19.673  -7.683  -5.733  0.00  0.00    -0.646 OA
HETATM   21  O           1     -21.539  -8.632  -5.185  0.00  0.00    -0.646 OA
ENDBRANCH  10  19
ENDBRANCH   8  10
ENDBRANCH   7   8
ENDBRANCH   6   7
ENDBRANCH   5   6
BRANCH   5  22
HETATM   22  C           1     -22.033  -7.968   0.281  0.00  0.00     0.196 C 
HETATM   23  O           1     -21.234  -8.262   1.195  0.00  0.00    -0.646 OA
HETATM   24  O           1     -23.246  -7.809   0.538  0.00  0.00    -0.646 OA
ENDBRANCH   5  22
ENDBRANCH   3   5
BRANCH   4  25
HETATM   25  C           1     -21.392 -11.218  -2.871  0.00  0.00     0.274 C 
BRANCH  25  26
HETATM   26  C           1     -20.251 -11.578  -3.813  0.00  0.00     0.044 C 
BRANCH  26  27
HETATM   27  C           1     -20.796 -12.382  -4.986  0.00  0.00     0.023 C 
BRANCH  27  28
HETATM   28  C           1     -20.191 -11.861  -6.284  0.00  0.00     0.138 C 
BRANCH  28  29
HETATM   29  N           1     -19.329 -10.707  -5.994  0.00  0.00    -0.227 N 
HETATM   30  C           1     -18.092 -10.758  -6.259  0.00  0.00     0.665 C 
HETATM   31  N           1     -17.349  -9.762  -6.009  0.00  0.00    -0.235 N 
HETATM   32  N           1     -17.585 -11.831  -6.789  0.00  0.00    -0.235 N 
HETATM   33  H           1     -16.324  -9.805  -6.230  0.00  0.00     0.174 HD
HETATM   34  H           1     -17.760  -8.896  -5.582  0.00  0.00     0.174 HD
HETATM   35  H           1     -16.564 -11.874  -7.008  0.00  0.00     0.174 HD
HETATM   36  H           1     -18.198 -12.651  -6.995  0.00  0.00     0.174 HD
HETATM   37  H           1     -19.739  -9.839  -5.567  0.00  0.00     0.177 HD
ENDBRANCH  28  29
ENDBRANCH  27  28
ENDBRANCH  26  27
ENDBRANCH  25  26
BRANCH  25  38
HETATM   38  N           1     -22.625 -10.918  -3.671  0.00  0.00    -0.067 N 
HETATM   39  H           1     -22.528  -9.982  -4.124  0.00  0.00     0.275 HD
HETATM   40  H           1     -22.750 -11.650  -4.405  0.00  0.00     0.275 HD
HETATM   41  H           1     -23.457 -10.914  -3.038  0.00  0.00     0.275 HD
ENDBRANCH  25  38
ENDBRANCH   4  25
TORSDOF 18
ENDMDL
MODEL 5
REMARK VINA RESULT:      -6.2     14.473     17.595
REMARK  18 active torsions:
REMARK  status: ('A' for Active; 'I' for Inactive)
REMARK    1  A    between atoms: C_1  and  C_37 
REMARK    2  A    between atoms: C_1  and  C_2 
REMARK    3  A    between atoms: C_1  and  N_39 
REMARK    4  A    between atoms: C_2  and  C_3 
REMARK    5  A    between atoms: C_3  and  C_41 
REMARK    6  A    between atoms: N_4  and  C_5 
REMARK    7  A    between atoms: C_5  and  C_6 
REMARK    8  A    between atoms: C_6  and  C_7 
REMARK    9  A    between atoms: C_7  and  C_8 
REMARK   10  A    between atoms: C_8  and  C_9 
REMARK   11  A    between atoms: C_9  and  C_10 
REMARK   12  A    between atoms: C_9  and  N_13 
REMARK   13  A    between atoms: N_13  and  C_14 
REMARK   14  A    between atoms: C_14  and  C_15 
REMARK   15  A    between atoms: C_15  and  C_24 
REMARK   16  A    between atoms: C_17  and  C_24 
REMARK       I    between atoms: C_21  and  N_22 
REMARK       I    between atoms: C_21  and  N_23 
REMARK   17  A    between atoms: C_24  and  N_36 
REMARK       I    between atoms: N_36  and  C_37 
REMARK   18  A    between atoms: N_40  and  C_41 
ROOT
HETATM    1  H           1     -20.724  -8.133  -2.878  0.00  0.00     0.163 HD
HETATM    2  O           1     -20.055 -10.366  -0.778  0.00  0.00    -0.271 OA
HETATM    3  N           1     -20.372  -9.016  -2.528  0.00  0.00    -0.345 N 
HETATM    4  C           1     -20.476  -9.313  -1.196  0.00  0.00     0.249 C 
ENDROOT
BRANCH   3   5
HETATM    5  C           1     -19.757  -9.963  -3.437  0.00  0.00     0.187 C 
BRANCH   5   6
HETATM    6  C           1     -20.634 -10.124  -4.671  0.00  0.00     0.066 C 
BRANCH   6   7
HETATM    7  C           1     -21.535  -8.904  -4.818  0.00  0.00     0.273 C 
BRANCH   7   8
HETATM    8  N           1     -21.192  -8.197  -6.022  0.00  0.00     0.098 N 
HETATM    9  H           1     -21.999  -8.177  -6.646  0.00  0.00     0.317 HD
BRANCH   8  10
HETATM   10  C           1     -20.838  -6.853  -5.653  0.00  0.00     0.320 C 
BRANCH  10  11
HETATM   11  C           1     -20.674  -6.009  -6.910  0.00  0.00     0.047 C 
BRANCH  11  12
HETATM   12  C           1     -20.260  -4.595  -6.523  0.00  0.00     0.004 C 
BRANCH  12  13
HETATM   13  C           1     -21.266  -3.599  -7.084  0.00  0.00     0.027 C 
BRANCH  13  14
HETATM   14  C           1     -22.161  -4.298  -8.099  0.00  0.00     0.229 C 
BRANCH  14  15
HETATM   15  N           1     -23.596  -4.151  -7.686  0.00  0.00    -0.079 N 
HETATM   16  H           1     -24.136  -4.987  -8.002  0.00  0.00     0.274 HD
HETATM   17  H           1     -23.651  -4.073  -6.646  0.00  0.00     0.274 HD
HETATM   18  H           1     -23.997  -3.292  -8.124  0.00  0.00     0.274 HD
ENDBRANCH  14  15
ENDBRANCH  13  14
ENDBRANCH  12  13
ENDBRANCH  11  12
ENDBRANCH  10  11
BRANCH  10  19
HETATM   19  C           1     -21.929  -6.265  -4.791  0.00  0.00     0.207 C 
HETATM   20  O           1     -23.075  -6.099  -5.262  0.00  0.00    -0.646 OA
HETATM   21  O           1     -21.688  -5.946  -3.607  0.00  0.00    -0.646 OA
ENDBRANCH  10  19
ENDBRANCH   8  10
ENDBRANCH   7   8
ENDBRANCH   6   7
ENDBRANCH   5   6
BRANCH   5  22
HETATM   22  C           1     -18.397  -9.454  -3.848  0.00  0.00     0.196 C 
HETATM   23  O           1     -17.513  -9.265  -2.986  0.00  0.00    -0.646 OA
HETATM   24  O           1     -18.156  -9.220  -5.053  0.00  0.00    -0.646 OA
ENDBRANCH   5  22
ENDBRANCH   3   5
BRANCH   4  25
HETATM   25  C           1     -21.116  -8.327  -0.249  0.00  0.00     0.274 C 
BRANCH  25  26
HETATM   26  C           1     -22.045  -9.068   0.704  0.00  0.00     0.044 C 
BRANCH  26  27
HETATM   27  C           1     -23.418  -9.218   0.063  0.00  0.00     0.023 C 
BRANCH  27  28
HETATM   28  C           1     -23.758 -10.698  -0.066  0.00  0.00     0.138 C 
BRANCH  28  29
HETATM   29  N           1     -23.644 -11.107  -1.473  0.00  0.00    -0.227 N 
HETATM   30  C           1     -22.846 -12.034  -1.800  0.00  0.00     0.665 C 
HETATM   31  N           1     -22.748 -12.386  -3.013  0.00  0.00    -0.235 N 
HETATM   32  N           1     -22.130 -12.625  -0.891  0.00  0.00    -0.235 N 
HETATM   33  H           1     -22.087 -13.155  -3.283  0.00  0.00     0.174 HD
HETATM   34  H           1     -23.328 -11.909  -3.747  0.00  0.00     0.174 HD
HETATM   35  H           1     -21.471 -13.390  -1.161  0.00  0.00     0.174 HD
HETATM   36  H           1     -22.211 -12.334   0.109  0.00  0.00     0.174 HD
HETATM   37  H           1     -24.224 -10.630  -2.207  0.00  0.00     0.177 HD
ENDBRANCH  28  29
ENDBRANCH  27  28
ENDBRANCH  26  27
ENDBRANCH  25  26
BRANCH  25  38
HETATM   38  N           1     -21.906  -7.322  -1.035  0.00  0.00    -0.067 N 
HETATM   39  H           1     -21.812  -7.526  -2.055  0.00  0.00     0.275 HD
HETATM   40  H           1     -22.912  -7.378  -0.760  0.00  0.00     0.275 HD
HETATM   41  H           1     -21.543  -6.363  -0.836  0.00  0.00     0.275 HD
ENDBRANCH  25  38
ENDBRANCH   4  25
TORSDOF 18
ENDMDL
MODEL 6
REMARK VINA RESULT:      -6.2     13.807     16.778
REMARK  18 active torsions:
REMARK  status: ('A' for Active; 'I' for Inactive)
REMARK    1  A    between atoms: C_1  and  C_37 
REMARK    2  A    between atoms: C_1  and  C_2 
REMARK    3  A    between atoms: C_1  and  N_39 
REMARK    4  A    between atoms: C_2  and  C_3 
REMARK    5  A    between atoms: C_3  and  C_41 
REMARK    6  A    between atoms: N_4  and  C_5 
REMARK    7  A    between atoms: C_5  and  C_6 
REMARK    8  A    between atoms: C_6  and  C_7 
REMARK    9  A    between atoms: C_7  and  C_8 
REMARK   10  A    between atoms: C_8  and  C_9 
REMARK   11  A    between atoms: C_9  and  C_10 
REMARK   12  A    between atoms: C_9  and  N_13 
REMARK   13  A    between atoms: N_13  and  C_14 
REMARK   14  A    between atoms: C_14  and  C_15 
REMARK   15  A    between atoms: C_15  and  C_24 
REMARK   16  A    between atoms: C_17  and  C_24 
REMARK       I    between atoms: C_21  and  N_22 
REMARK       I    between atoms: C_21  and  N_23 
REMARK   17  A    between atoms: C_24  and  N_36 
REMARK       I    between atoms: N_36  and  C_37 
REMARK   18  A    between atoms: N_40  and  C_41 
ROOT
HETATM    1  H           1     -19.267  -7.987  -5.963  0.00  0.00     0.163 HD
HETATM    2  O           1     -21.167  -6.364  -4.066  0.00  0.00    -0.271 OA
HETATM    3  N           1     -19.814  -7.782  -5.136  0.00  0.00    -0.345 N 
HETATM    4  C           1     -20.514  -6.608  -5.053  0.00  0.00     0.249 C 
ENDROOT
BRANCH   3   5
HETATM    5  C           1     -19.855  -8.730  -4.041  0.00  0.00     0.187 C 
BRANCH   5   6
HETATM    6  C           1     -20.917  -9.785  -4.323  0.00  0.00     0.066 C 
BRANCH   6   7
HETATM    7  C           1     -21.801  -9.959  -3.095  0.00  0.00     0.273 C 
BRANCH   7   8
HETATM    8  N           1     -21.722  -8.779  -2.276  0.00  0.00     0.098 N 
HETATM    9  H           1     -22.277  -8.034  -2.698  0.00  0.00     0.317 HD
BRANCH   8  10
HETATM   10  C           1     -22.263  -9.106  -0.984  0.00  0.00     0.320 C 
BRANCH  10  11
HETATM   11  C           1     -21.264  -9.963  -0.218  0.00  0.00     0.047 C 
BRANCH  11  12
HETATM   12  C           1     -21.972 -11.188   0.345  0.00  0.00     0.004 C 
BRANCH  12  13
HETATM   13  C           1     -23.407 -11.226  -0.163  0.00  0.00     0.027 C 
BRANCH  13  14
HETATM   14  C           1     -23.779 -12.656  -0.527  0.00  0.00     0.229 C 
BRANCH  14  15
HETATM   15  N           1     -23.181 -13.008  -1.857  0.00  0.00    -0.079 N 
HETATM   16  H           1     -23.946 -13.198  -2.543  0.00  0.00     0.274 HD
HETATM   17  H           1     -22.599 -12.209  -2.197  0.00  0.00     0.274 HD
HETATM   18  H           1     -22.584 -13.858  -1.756  0.00  0.00     0.274 HD
ENDBRANCH  14  15
ENDBRANCH  13  14
ENDBRANCH  12  13
ENDBRANCH  11  12
ENDBRANCH  10  11
BRANCH  10  19
HETATM   19  C           1     -22.529  -7.835  -0.215  0.00  0.00     0.207 C 
HETATM   20  O           1     -22.606  -7.865   1.032  0.00  0.00    -0.646 OA
HETATM   21  O           1     -22.672  -6.754  -0.825  0.00  0.00    -0.646 OA
ENDBRANCH  10  19
ENDBRANCH   8  10
ENDBRANCH   7   8
ENDBRANCH   6   7
ENDBRANCH   5   6
BRANCH   5  22
HETATM   22  C           1     -18.508  -9.395  -3.901  0.00  0.00     0.196 C 
HETATM   23  O           1     -18.072 -10.123  -4.818  0.00  0.00    -0.646 OA
HETATM   24  O           1     -17.828  -9.217  -2.867  0.00  0.00    -0.646 OA
ENDBRANCH   5  22
ENDBRANCH   3   5
BRANCH   4  25
HETATM   25  C           1     -20.472  -5.621  -6.194  0.00  0.00     0.274 C 
BRANCH  25  26
HETATM   26  C           1     -21.887  -5.168  -6.527  0.00  0.00     0.044 C 
BRANCH  26  27
HETATM   27  C           1     -21.833  -3.853  -7.294  0.00  0.00     0.023 C 
BRANCH  27  28
HETATM   28  C           1     -22.434  -4.049  -8.681  0.00  0.00     0.138 C 
BRANCH  28  29
HETATM   29  N           1     -23.862  -3.704  -8.649  0.00  0.00    -0.227 N 
HETATM   30  C           1     -24.571  -3.849  -9.688  0.00  0.00     0.665 C 
HETATM   31  N           1     -25.802  -3.552  -9.661  0.00  0.00    -0.235 N 
HETATM   32  N           1     -24.036  -4.304 -10.782  0.00  0.00    -0.235 N 
HETATM   33  H           1     -26.390  -3.672 -10.522  0.00  0.00     0.174 HD
HETATM   34  H           1     -26.234  -3.185  -8.777  0.00  0.00     0.174 HD
HETATM   35  H           1     -24.621  -4.423 -11.640  0.00  0.00     0.174 HD
HETATM   36  H           1     -23.021  -4.549 -10.804  0.00  0.00     0.174 HD
HETATM   37  H           1     -24.295  -3.337  -7.766  0.00  0.00     0.177 HD
ENDBRANCH  28  29
ENDBRANCH  27  28
ENDBRANCH  26  27
ENDBRANCH  25  26
BRANCH  25  38
HETATM   38  N           1     -19.860  -6.275  -7.398  0.00  0.00    -0.067 N 
HETATM   39  H           1     -18.991  -6.780  -7.116  0.00  0.00     0.275 HD
HETATM   40  H           1     -20.540  -6.953  -7.808  0.00  0.00     0.275 HD
HETATM   41  H           1     -19.624  -5.545  -8.108  0.00  0.00     0.275 HD
ENDBRANCH  25  38
ENDBRANCH   4  25
TORSDOF 18
ENDMDL
MODEL 7
REMARK VINA RESULT:      -6.1     13.601     16.496
REMARK  18 active torsions:
REMARK  status: ('A' for Active; 'I' for Inactive)
REMARK    1  A    between atoms: C_1  and  C_37 
REMARK    2  A    between atoms: C_1  and  C_2 
REMARK    3  A    between atoms: C_1  and  N_39 
REMARK    4  A    between atoms: C_2  and  C_3 
REMARK    5  A    between atoms: C_3  and  C_41 
REMARK    6  A    between atoms: N_4  and  C_5 
REMARK    7  A    between atoms: C_5  and  C_6 
REMARK    8  A    between atoms: C_6  and  C_7 
REMARK    9  A    between atoms: C_7  and  C_8 
REMARK   10  A    between atoms: C_8  and  C_9 
REMARK   11  A    between atoms: C_9  and  C_10 
REMARK   12  A    between atoms: C_9  and  N_13 
REMARK   13  A    between atoms: N_13  and  C_14 
REMARK   14  A    between atoms: C_14  and  C_15 
REMARK   15  A    between atoms: C_15  and  C_24 
REMARK   16  A    between atoms: C_17  and  C_24 
REMARK       I    between atoms: C_21  and  N_22 
REMARK       I    between atoms: C_21  and  N_23 
REMARK   17  A    between atoms: C_24  and  N_36 
REMARK       I    between atoms: N_36  and  C_37 
REMARK   18  A    between atoms: N_40  and  C_41 
ROOT
HETATM    1  H           1     -19.742  -8.110  -6.172  0.00  0.00     0.163 HD
HETATM    2  O           1     -21.132  -6.038  -4.268  0.00  0.00    -0.271 OA
HETATM    3  N           1     -20.182  -7.758  -5.330  0.00  0.00    -0.345 N 
HETATM    4  C           1     -20.608  -6.459  -5.273  0.00  0.00     0.249 C 
ENDROOT
BRANCH   3   5
HETATM    5  C           1     -20.358  -8.630  -4.185  0.00  0.00     0.187 C 
BRANCH   5   6
HETATM    6  C           1     -21.299  -9.768  -4.555  0.00  0.00     0.066 C 
BRANCH   6   7
HETATM    7  C           1     -21.309 -10.804  -3.438  0.00  0.00     0.273 C 
BRANCH   7   8
HETATM    8  N           1     -22.363 -10.498  -2.509  0.00  0.00     0.098 N 
HETATM    9  H           1     -23.214 -10.988  -2.788  0.00  0.00     0.317 HD
BRANCH   8  10
HETATM   10  C           1     -21.949 -10.958  -1.211  0.00  0.00     0.320 C 
BRANCH  10  11
HETATM   11  C           1     -21.654  -9.760  -0.319  0.00  0.00     0.047 C 
BRANCH  11  12
HETATM   12  C           1     -22.959  -9.068   0.051  0.00  0.00     0.004 C 
BRANCH  12  13
HETATM   13  C           1     -22.754  -7.559   0.044  0.00  0.00     0.027 C 
BRANCH  13  14
HETATM   14  C           1     -21.871  -7.172  -1.134  0.00  0.00     0.229 C 
BRANCH  14  15
HETATM   15  N           1     -22.408  -5.927  -1.776  0.00  0.00    -0.079 N 
HETATM   16  H           1     -23.445  -6.005  -1.873  0.00  0.00     0.274 HD
HETATM   17  H           1     -22.175  -5.101  -1.180  0.00  0.00     0.274 HD
HETATM   18  H           1     -21.978  -5.809  -2.721  0.00  0.00     0.274 HD
ENDBRANCH  14  15
ENDBRANCH  13  14
ENDBRANCH  12  13
ENDBRANCH  11  12
ENDBRANCH  10  11
BRANCH  10  19
HETATM   19  C           1     -23.052 -11.784  -0.596  0.00  0.00     0.207 C 
HETATM   20  O           1     -24.155 -11.886  -1.177  0.00  0.00    -0.646 OA
HETATM   21  O           1     -22.863 -12.368   0.493  0.00  0.00    -0.646 OA
ENDBRANCH  10  19
ENDBRANCH   8  10
ENDBRANCH   7   8
ENDBRANCH   6   7
ENDBRANCH   5   6
BRANCH   5  22
HETATM   22  C           1     -19.021  -9.195  -3.773  0.00  0.00     0.196 C 
HETATM   23  O           1     -18.282  -9.734  -4.624  0.00  0.00    -0.646 OA
HETATM   24  O           1     -18.653  -9.123  -2.581  0.00  0.00    -0.646 OA
ENDBRANCH   5  22
ENDBRANCH   3   5
BRANCH   4  25
HETATM   25  C           1     -20.424  -5.551  -6.465  0.00  0.00     0.274 C 
BRANCH  25  26
HETATM   26  C           1     -21.788  -5.126  -6.995  0.00  0.00     0.044 C 
BRANCH  26  27
HETATM   27  C           1     -21.705  -3.701  -7.526  0.00  0.00     0.023 C 
BRANCH  27  28
HETATM   28  C           1     -22.240  -3.659  -8.952  0.00  0.00     0.138 C 
BRANCH  28  29
HETATM   29  N           1     -23.672  -3.329  -8.929  0.00  0.00    -0.227 N 
HETATM   30  C           1     -24.468  -3.906  -9.728  0.00  0.00     0.665 C 
HETATM   31  N           1     -25.701  -3.622  -9.708  0.00  0.00    -0.235 N 
HETATM   32  N           1     -24.017  -4.792 -10.566  0.00  0.00    -0.235 N 
HETATM   33  H           1     -26.360  -4.101 -10.370  0.00  0.00     0.174 HD
HETATM   34  H           1     -26.065  -2.907  -9.030  0.00  0.00     0.174 HD
HETATM   35  H           1     -24.673  -5.268 -11.226  0.00  0.00     0.174 HD
HETATM   36  H           1     -22.999  -5.025 -10.582  0.00  0.00     0.174 HD
HETATM   37  H           1     -24.036  -2.614  -8.251  0.00  0.00     0.177 HD
ENDBRANCH  28  29
ENDBRANCH  27  28
ENDBRANCH  26  27
ENDBRANCH  25  26
BRANCH  25  38
HETATM   38  N           1     -19.676  -6.283  -7.540  0.00  0.00    -0.067 N 
HETATM   39  H           1     -20.345  -6.857  -8.100  0.00  0.00     0.275 HD
HETATM   40  H           1     -19.202  -5.594  -8.164  0.00  0.00     0.275 HD
HETATM   41  H           1     -18.963  -6.908  -7.103  0.00  0.00     0.275 HD
ENDBRANCH  25  38
ENDBRANCH   4  25
TORSDOF 18
ENDMDL
MODEL 8
REMARK VINA RESULT:      -6.0     12.812     16.148
REMARK  18 active torsions:
REMARK  status: ('A' for Active; 'I' for Inactive)
REMARK    1  A    between atoms: C_1  and  C_37 
REMARK    2  A    between atoms: C_1  and  C_2 
REMARK    3  A    between atoms: C_1  and  N_39 
REMARK    4  A    between atoms: C_2  and  C_3 
REMARK    5  A    between atoms: C_3  and  C_41 
REMARK    6  A    between atoms: N_4  and  C_5 
REMARK    7  A    between atoms: C_5  and  C_6 
REMARK    8  A    between atoms: C_6  and  C_7 
REMARK    9  A    between atoms: C_7  and  C_8 
REMARK   10  A    between atoms: C_8  and  C_9 
REMARK   11  A    between atoms: C_9  and  C_10 
REMARK   12  A    between atoms: C_9  and  N_13 
REMARK   13  A    between atoms: N_13  and  C_14 
REMARK   14  A    between atoms: C_14  and  C_15 
REMARK   15  A    between atoms: C_15  and  C_24 
REMARK   16  A    between atoms: C_17  and  C_24 
REMARK       I    between atoms: C_21  and  N_22 
REMARK       I    between atoms: C_21  and  N_23 
REMARK   17  A    between atoms: C_24  and  N_36 
REMARK       I    between atoms: N_36  and  C_37 
REMARK   18  A    between atoms: N_40  and  C_41 
ROOT
HETATM    1  H           1     -20.392  -5.791  -3.430  0.00  0.00     0.163 HD
HETATM    2  O           1     -21.585  -7.909  -5.413  0.00  0.00    -0.271 OA
HETATM    3  N           1     -20.833  -6.652  -3.727  0.00  0.00    -0.345 N 
HETATM    4  C           1     -21.058  -6.881  -5.058  0.00  0.00     0.249 C 
ENDROOT
BRANCH   3   5
HETATM    5  C           1     -21.227  -7.642  -2.744  0.00  0.00     0.187 C 
BRANCH   5   6
HETATM    6  C           1     -19.984  -8.296  -2.157  0.00  0.00     0.066 C 
BRANCH   6   7
HETATM    7  C           1     -19.679  -9.582  -2.915  0.00  0.00     0.273 C 
BRANCH   7   8
HETATM    8  N           1     -18.320  -9.554  -3.382  0.00  0.00     0.098 N 
HETATM    9  H           1     -17.698  -9.875  -2.639  0.00  0.00     0.317 HD
BRANCH   8  10
HETATM   10  C           1     -18.224 -10.447  -4.505  0.00  0.00     0.320 C 
BRANCH  10  11
HETATM   11  C           1     -19.609 -10.978  -4.849  0.00  0.00     0.047 C 
BRANCH  11  12
HETATM   12  C           1     -19.476 -12.294  -5.605  0.00  0.00     0.004 C 
BRANCH  12  13
HETATM   13  C           1     -20.178 -12.180  -6.952  0.00  0.00     0.027 C 
BRANCH  13  14
HETATM   14  C           1     -21.661 -11.913  -6.731  0.00  0.00     0.229 C 
BRANCH  14  15
HETATM   15  N           1     -22.293 -13.106  -6.076  0.00  0.00    -0.079 N 
HETATM   16  H           1     -21.629 -13.512  -5.379  0.00  0.00     0.274 HD
HETATM   17  H           1     -23.170 -12.811  -5.590  0.00  0.00     0.274 HD
HETATM   18  H           1     -22.518 -13.822  -6.801  0.00  0.00     0.274 HD
ENDBRANCH  14  15
ENDBRANCH  13  14
ENDBRANCH  12  13
ENDBRANCH  11  12
ENDBRANCH  10  11
BRANCH  10  19
HETATM   19  C           1     -17.662  -9.702  -5.692  0.00  0.00     0.207 C 
HETATM   20  O           1     -16.454  -9.825  -5.990  0.00  0.00    -0.646 OA
HETATM   21  O           1     -18.403  -8.965  -6.376  0.00  0.00    -0.646 OA
ENDBRANCH  10  19
ENDBRANCH   8  10
ENDBRANCH   7   8
ENDBRANCH   6   7
ENDBRANCH   5   6
BRANCH   5  22
HETATM   22  C           1     -22.012  -6.972  -1.644  0.00  0.00     0.196 C 
HETATM   23  O           1     -22.616  -5.901  -1.869  0.00  0.00    -0.646 OA
HETATM   24  O           1     -22.058  -7.487  -0.506  0.00  0.00    -0.646 OA
ENDBRANCH   5  22
ENDBRANCH   3   5
BRANCH   4  25
HETATM   25  C           1     -20.647  -5.851  -6.082  0.00  0.00     0.274 C 
BRANCH  25  26
HETATM   26  C           1     -21.890  -5.217  -6.693  0.00  0.00     0.044 C 
BRANCH  26  27
HETATM   27  C           1     -21.512  -3.909  -7.374  0.00  0.00     0.023 C 
BRANCH  27  28
HETATM   28  C           1     -22.032  -3.913  -8.806  0.00  0.00     0.138 C 
BRANCH  28  29
HETATM   29  N           1     -23.429  -3.457  -8.821  0.00  0.00    -0.227 N 
HETATM   30  C           1     -24.255  -3.971  -9.633  0.00  0.00     0.665 C 
HETATM   31  N           1     -25.459  -3.578  -9.645  0.00  0.00    -0.235 N 
HETATM   32  N           1     -23.866  -4.903 -10.451  0.00  0.00    -0.235 N 
HETATM   33  H           1     -26.142  -4.005 -10.318  0.00  0.00     0.174 HD
HETATM   34  H           1     -25.772  -2.826  -8.983  0.00  0.00     0.174 HD
HETATM   35  H           1     -24.546  -5.327 -11.121  0.00  0.00     0.174 HD
HETATM   36  H           1     -22.872  -5.227 -10.440  0.00  0.00     0.174 HD
HETATM   37  H           1     -23.744  -2.705  -8.159  0.00  0.00     0.177 HD
ENDBRANCH  28  29
ENDBRANCH  27  28
ENDBRANCH  26  27
ENDBRANCH  25  26
BRANCH  25  38
HETATM   38  N           1     -19.842  -6.512  -7.161  0.00  0.00    -0.067 N 
HETATM   39  H           1     -19.946  -5.976  -8.051  0.00  0.00     0.275 HD
HETATM   40  H           1     -18.836  -6.532  -6.882  0.00  0.00     0.275 HD
HETATM   41  H           1     -20.185  -7.489  -7.302  0.00  0.00     0.275 HD
ENDBRANCH  25  38
ENDBRANCH   4  25
TORSDOF 18
ENDMDL
MODEL 9
REMARK VINA RESULT:      -5.9     13.764     16.546
REMARK  18 active torsions:
REMARK  status: ('A' for Active; 'I' for Inactive)
REMARK    1  A    between atoms: C_1  and  C_37 
REMARK    2  A    between atoms: C_1  and  C_2 
REMARK    3  A    between atoms: C_1  and  N_39 
REMARK    4  A    between atoms: C_2  and  C_3 
REMARK    5  A    between atoms: C_3  and  C_41 
REMARK    6  A    between atoms: N_4  and  C_5 
REMARK    7  A    between atoms: C_5  and  C_6 
REMARK    8  A    between atoms: C_6  and  C_7 
REMARK    9  A    between atoms: C_7  and  C_8 
REMARK   10  A    between atoms: C_8  and  C_9 
REMARK   11  A    between atoms: C_9  and  C_10 
REMARK   12  A    between atoms: C_9  and  N_13 
REMARK   13  A    between atoms: N_13  and  C_14 
REMARK   14  A    between atoms: C_14  and  C_15 
REMARK   15  A    between atoms: C_15  and  C_24 
REMARK   16  A    between atoms: C_17  and  C_24 
REMARK       I    between atoms: C_21  and  N_22 
REMARK       I    between atoms: C_21  and  N_23 
REMARK   17  A    between atoms: C_24  and  N_36 
REMARK       I    between atoms: N_36  and  C_37 
REMARK   18  A    between atoms: N_40  and  C_41 
ROOT
HETATM    1  H           1     -20.344  -7.766  -6.695  0.00  0.00     0.163 HD
HETATM    2  O           1     -21.846  -6.145  -4.467  0.00  0.00    -0.271 OA
HETATM    3  N           1     -20.689  -7.543  -5.770  0.00  0.00    -0.345 N 
HETATM    4  C           1     -21.434  -6.411  -5.572  0.00  0.00     0.249 C 
ENDROOT
BRANCH   3   5
HETATM    5  C           1     -20.395  -8.421  -4.655  0.00  0.00     0.187 C 
BRANCH   5   6
HETATM    6  C           1     -21.414  -9.552  -4.618  0.00  0.00     0.066 C 
BRANCH   6   7
HETATM    7  C           1     -21.778  -9.862  -3.171  0.00  0.00     0.273 C 
BRANCH   7   8
HETATM    8  N           1     -21.755  -8.648  -2.400  0.00  0.00     0.098 N 
HETATM    9  H           1     -22.456  -8.002  -2.763  0.00  0.00     0.317 HD
BRANCH   8  10
HETATM   10  C           1     -22.074  -8.988  -1.040  0.00  0.00     0.320 C 
BRANCH  10  11
HETATM   11  C           1     -20.802  -9.390  -0.306  0.00  0.00     0.047 C 
BRANCH  11  12
HETATM   12  C           1     -21.120 -10.489   0.700  0.00  0.00     0.004 C 
BRANCH  12  13
HETATM   13  C           1     -22.067 -11.499   0.067  0.00  0.00     0.027 C 
BRANCH  13  14
HETATM   14  C           1     -22.195 -12.714   0.976  0.00  0.00     0.229 C 
BRANCH  14  15
HETATM   15  N           1     -21.316 -13.817   0.464  0.00  0.00    -0.079 N 
HETATM   16  H           1     -20.861 -13.515  -0.426  0.00  0.00     0.274 HD
HETATM   17  H           1     -20.582 -14.034   1.175  0.00  0.00     0.274 HD
HETATM   18  H           1     -21.894 -14.669   0.288  0.00  0.00     0.274 HD
ENDBRANCH  14  15
ENDBRANCH  13  14
ENDBRANCH  12  13
ENDBRANCH  11  12
ENDBRANCH  10  11
BRANCH  10  19
HETATM   19  C           1     -22.693  -7.794  -0.356  0.00  0.00     0.207 C 
HETATM   20  O           1     -22.541  -6.650  -0.838  0.00  0.00    -0.646 OA
HETATM   21  O           1     -23.359  -7.948   0.690  0.00  0.00    -0.646 OA
ENDBRANCH  10  19
ENDBRANCH   8  10
ENDBRANCH   7   8
ENDBRANCH   6   7
ENDBRANCH   5   6
BRANCH   5  22
HETATM   22  C           1     -19.009  -8.995  -4.820  0.00  0.00     0.196 C 
HETATM   23  O           1     -18.298  -9.211  -3.816  0.00  0.00    -0.646 OA
HETATM   24  O           1     -18.573  -9.255  -5.963  0.00  0.00    -0.646 OA
ENDBRANCH   5  22
ENDBRANCH   3   5
BRANCH   4  25
HETATM   25  C           1     -21.741  -5.497  -6.733  0.00  0.00     0.274 C 
BRANCH  25  26
HETATM   26  C           1     -20.613  -4.488  -6.898  0.00  0.00     0.044 C 
BRANCH  26  27
HETATM   27  C           1     -19.868  -4.765  -8.197  0.00  0.00     0.023 C 
BRANCH  27  28
HETATM   28  C           1     -20.348  -3.799  -9.273  0.00  0.00     0.138 C 
BRANCH  28  29
HETATM   29  N           1     -21.297  -4.486 -10.160  0.00  0.00    -0.227 N 
HETATM   30  C           1     -21.444  -4.094 -11.355  0.00  0.00     0.665 C 
HETATM   31  N           1     -22.262  -4.686 -12.120  0.00  0.00    -0.235 N 
HETATM   32  N           1     -20.754  -3.085 -11.798  0.00  0.00    -0.235 N 
HETATM   33  H           1     -22.383  -4.361 -13.111  0.00  0.00     0.174 HD
HETATM   34  H           1     -22.819  -5.501 -11.762  0.00  0.00     0.174 HD
HETATM   35  H           1     -20.875  -2.761 -12.784  0.00  0.00     0.174 HD
HETATM   36  H           1     -20.079  -2.597 -11.166  0.00  0.00     0.174 HD
HETATM   37  H           1     -21.854  -5.301  -9.803  0.00  0.00     0.177 HD
ENDBRANCH  28  29
ENDBRANCH  27  28
ENDBRANCH  26  27
ENDBRANCH  25  26
BRANCH  25  38
HETATM   38  N           1     -23.027  -4.770  -6.470  0.00  0.00    -0.067 N 
HETATM   39  H           1     -22.961  -3.799  -6.848  0.00  0.00     0.275 HD
HETATM   40  H           1     -23.813  -5.274  -6.938  0.00  0.00     0.275 HD
HETATM   41  H           1     -23.200  -4.732  -5.440  0.00  0.00     0.275 HD
ENDBRANCH  25  38
ENDBRANCH   4  25
TORSDOF 18
ENDMDL
