MODEL 1
REMARK VINA RESULT:      -6.2      0.000      0.000
REMARK  8 active torsions:
REMARK  status: ('A' for Active; 'I' for Inactive)
REMARK    1  A    between atoms: C_2  and  C_3 
REMARK    2  A    between atoms: C_2  and  C_14 
REMARK    3  A    between atoms: C_2  and  N_10 
REMARK       I    between atoms: C_3  and  N_4 
REMARK    4  A    between atoms: N_4  and  C_8 
REMARK    5  A    between atoms: C_7  and  C_8 
REMARK    6  A    between atoms: C_8  and  C_12 
REMARK    7  A    between atoms: C_12  and  C_20 
REMARK    8  A    between atoms: C_14  and  C_16 
ROOT
HETATM    1  C           1     -21.556  -4.719  -8.205  0.00  0.00     0.249 C 
HETATM    2  N           1     -22.328  -4.206  -9.213  0.00  0.00    -0.344 N 
HETATM    3  H           1     -23.125  -3.623  -8.993  0.00  0.00     0.163 HD
HETATM    4  O           1     -20.604  -5.414  -8.468  0.00  0.00    -0.271 OA
ENDROOT
BRANCH   1   5
HETATM    5  C           1     -21.896  -4.417  -6.766  0.00  0.00     0.275 C 
BRANCH   5   6
HETATM    6  C           1     -20.962  -5.197  -5.849  0.00  0.00     0.046 C 
BRANCH   6   7
HETATM    7  C           1     -21.753  -6.264  -5.105  0.00  0.00    -0.020 C 
HETATM    8  C           1     -21.465  -6.159  -3.613  0.00  0.00     0.009 C 
HETATM    9  C           1     -21.344  -7.642  -5.605  0.00  0.00     0.009 C 
ENDBRANCH   6   7
ENDBRANCH   5   6
BRANCH   5  10
HETATM   10  N           1     -23.315  -4.820  -6.493  0.00  0.00    -0.066 N 
HETATM   11  H           1     -23.960  -4.221  -7.055  0.00  0.00     0.275 HD
HETATM   12  H           1     -23.522  -4.697  -5.475  0.00  0.00     0.275 HD
HETATM   13  H           1     -23.448  -5.822  -6.756  0.00  0.00     0.275 HD
ENDBRANCH   5  10
ENDBRANCH   1   5
BRANCH   2  14
HETATM   14  C           1     -22.002  -4.495 -10.596  0.00  0.00     0.195 C 
BRANCH  14  15
HETATM   15  C           1     -21.235  -3.338 -11.185  0.00  0.00     0.197 C 
HETATM   16  O           1     -19.987  -3.310 -11.106  0.00  0.00    -0.646 OA
HETATM   17  O           1     -21.846  -2.406 -11.753  0.00  0.00    -0.646 OA
ENDBRANCH  14  15
BRANCH  14  18
HETATM   18  C           1     -23.286  -4.709 -11.386  0.00  0.00     0.149 C 
BRANCH  18  19
HETATM   19  C           1     -24.464  -4.230 -10.573  0.00  0.00     0.175 C 
HETATM   20  O           1     -24.971  -4.978  -9.709  0.00  0.00    -0.648 OA
HETATM   21  O           1     -24.931  -3.087 -10.763  0.00  0.00    -0.648 OA
ENDBRANCH  18  19
ENDBRANCH  14  18
ENDBRANCH   2  14
TORSDOF 8
ENDMDL
MODEL 2
REMARK VINA RESULT:      -6.1      1.456      2.848
REMARK  8 active torsions:
REMARK  status: ('A' for Active; 'I' for Inactive)
REMARK    1  A    between atoms: C_2  and  C_3 
REMARK    2  A    between atoms: C_2  and  C_14 
REMARK    3  A    between atoms: C_2  and  N_10 
REMARK       I    between atoms: C_3  and  N_4 
REMARK    4  A    between atoms: N_4  and  C_8 
REMARK    5  A    between atoms: C_7  and  C_8 
REMARK    6  A    between atoms: C_8  and  C_12 
REMARK    7  A    between atoms: C_12  and  C_20 
REMARK    8  A    between atoms: C_14  and  C_16 
ROOT
HETATM    1  C           1     -21.732  -4.547  -7.649  0.00  0.00     0.249 C 
HETATM    2  N           1     -22.431  -4.687  -8.819  0.00  0.00    -0.344 N 
HETATM    3  H           1     -22.544  -5.603  -9.234  0.00  0.00     0.163 HD
HETATM    4  O           1     -21.598  -3.453  -7.154  0.00  0.00    -0.271 OA
ENDROOT
BRANCH   1   5
HETATM    5  C           1     -21.129  -5.757  -6.981  0.00  0.00     0.275 C 
BRANCH   5   6
HETATM    6  C           1     -20.910  -5.466  -5.502  0.00  0.00     0.046 C 
BRANCH   6   7
HETATM    7  C           1     -21.794  -6.382  -4.667  0.00  0.00    -0.020 C 
HETATM    8  C           1     -21.456  -6.205  -3.193  0.00  0.00     0.009 C 
HETATM    9  C           1     -21.554  -7.830  -5.073  0.00  0.00     0.009 C 
ENDBRANCH   6   7
ENDBRANCH   5   6
BRANCH   5  10
HETATM   10  N           1     -19.814  -6.080  -7.626  0.00  0.00    -0.066 N 
HETATM   11  H           1     -19.412  -5.213  -8.048  0.00  0.00     0.275 HD
HETATM   12  H           1     -19.959  -6.797  -8.374  0.00  0.00     0.275 HD
HETATM   13  H           1     -19.157  -6.456  -6.907  0.00  0.00     0.275 HD
ENDBRANCH   5  10
ENDBRANCH   1   5
BRANCH   2  14
HETATM   14  C           1     -23.011  -3.524  -9.461  0.00  0.00     0.195 C 
BRANCH  14  15
HETATM   15  C           1     -24.360  -3.885 -10.032  0.00  0.00     0.197 C 
HETATM   16  O           1     -24.948  -3.090 -10.798  0.00  0.00    -0.646 OA
HETATM   17  O           1     -24.890  -4.979  -9.740  0.00  0.00    -0.646 OA
ENDBRANCH  14  15
BRANCH  14  18
HETATM   18  C           1     -22.094  -3.053 -10.582  0.00  0.00     0.149 C 
BRANCH  18  19
HETATM   19  C           1     -21.423  -4.246 -11.218  0.00  0.00     0.175 C 
HETATM   20  O           1     -22.035  -4.926 -12.070  0.00  0.00    -0.648 OA
HETATM   21  O           1     -20.256  -4.553 -10.894  0.00  0.00    -0.648 OA
ENDBRANCH  18  19
ENDBRANCH  14  18
ENDBRANCH   2  14
TORSDOF 8
ENDMDL
MODEL 3
REMARK VINA RESULT:      -6.1     10.953     12.568
REMARK  8 active torsions:
REMARK  status: ('A' for Active; 'I' for Inactive)
REMARK    1  A    between atoms: C_2  and  C_3 
REMARK    2  A    between atoms: C_2  and  C_14 
REMARK    3  A    between atoms: C_2  and  N_10 
REMARK       I    between atoms: C_3  and  N_4 
REMARK    4  A    between atoms: N_4  and  C_8 
REMARK    5  A    between atoms: C_7  and  C_8 
REMARK    6  A    between atoms: C_8  and  C_12 
REMARK    7  A    between atoms: C_12  and  C_20 
REMARK    8  A    between atoms: C_14  and  C_16 
ROOT
HETATM    1  C           1     -26.182  -6.576 -19.452  0.00  0.00     0.249 C 
HETATM    2  N           1     -26.811  -6.494 -18.238  0.00  0.00    -0.344 N 
HETATM    3  H           1     -26.295  -6.681 -17.388  0.00  0.00     0.163 HD
HETATM    4  O           1     -26.798  -6.352 -20.467  0.00  0.00    -0.271 OA
ENDROOT
BRANCH   1   5
HETATM    5  C           1     -24.721  -6.947 -19.522  0.00  0.00     0.275 C 
BRANCH   5   6
HETATM    6  C           1     -24.532  -8.079 -20.523  0.00  0.00     0.046 C 
BRANCH   6   7
HETATM    7  C           1     -23.384  -7.739 -21.465  0.00  0.00    -0.020 C 
HETATM    8  C           1     -23.897  -7.711 -22.898  0.00  0.00     0.009 C 
HETATM    9  C           1     -22.291  -8.791 -21.336  0.00  0.00     0.009 C 
ENDBRANCH   6   7
ENDBRANCH   5   6
BRANCH   5  10
HETATM   10  N           1     -24.254  -7.393 -18.168  0.00  0.00    -0.066 N 
HETATM   11  H           1     -23.902  -6.568 -17.633  0.00  0.00     0.275 HD
HETATM   12  H           1     -23.484  -8.091 -18.279  0.00  0.00     0.275 HD
HETATM   13  H           1     -25.049  -7.831 -17.653  0.00  0.00     0.275 HD
ENDBRANCH   5  10
ENDBRANCH   1   5
BRANCH   2  14
HETATM   14  C           1     -28.215  -6.138 -18.171  0.00  0.00     0.195 C 
BRANCH  14  15
HETATM   15  C           1     -28.356  -4.763 -17.567  0.00  0.00     0.197 C 
HETATM   16  O           1     -29.220  -3.972 -18.006  0.00  0.00    -0.646 OA
HETATM   17  O           1     -27.612  -4.414 -16.625  0.00  0.00    -0.646 OA
ENDBRANCH  14  15
BRANCH  14  18
HETATM   18  C           1     -28.955  -7.151 -17.308  0.00  0.00     0.149 C 
BRANCH  18  19
HETATM   19  C           1     -30.308  -7.435 -17.912  0.00  0.00     0.175 C 
HETATM   20  O           1     -31.324  -6.862 -17.465  0.00  0.00    -0.648 OA
HETATM   21  O           1     -30.412  -8.244 -18.858  0.00  0.00    -0.648 OA
ENDBRANCH  18  19
ENDBRANCH  14  18
ENDBRANCH   2  14
TORSDOF 8
ENDMDL
MODEL 4
REMARK VINA RESULT:      -5.7      9.722     11.811
REMARK  8 active torsions:
REMARK  status: ('A' for Active; 'I' for Inactive)
REMARK    1  A    between atoms: C_2  and  C_3 
REMARK    2  A    between atoms: C_2  and  C_14 
REMARK    3  A    between atoms: C_2  and  N_10 
REMARK       I    between atoms: C_3  and  N_4 
REMARK    4  A    between atoms: N_4  and  C_8 
REMARK    5  A    between atoms: C_7  and  C_8 
REMARK    6  A    between atoms: C_8  and  C_12 
REMARK    7  A    between atoms: C_12  and  C_20 
REMARK    8  A    between atoms: C_14  and  C_16 
ROOT
HETATM    1  C           1     -27.570  -6.408 -19.130  0.00  0.00     0.249 C 
HETATM    2  N           1     -26.433  -7.074 -18.758  0.00  0.00    -0.344 N 
HETATM    3  H           1     -26.468  -7.751 -18.006  0.00  0.00     0.163 HD
HETATM    4  O           1     -27.529  -5.600 -20.028  0.00  0.00    -0.271 OA
ENDROOT
BRANCH   1   5
HETATM    5  C           1     -28.873  -6.680 -18.419  0.00  0.00     0.275 C 
BRANCH   5   6
HETATM    6  C           1     -28.685  -6.479 -16.921  0.00  0.00     0.046 C 
BRANCH   6   7
HETATM    7  C           1     -29.314  -5.157 -16.503  0.00  0.00    -0.020 C 
HETATM    8  C           1     -30.595  -4.933 -17.295  0.00  0.00     0.009 C 
HETATM    9  C           1     -28.341  -4.020 -16.779  0.00  0.00     0.009 C 
ENDBRANCH   6   7
ENDBRANCH   5   6
BRANCH   5  10
HETATM   10  N           1     -29.300  -8.093 -18.684  0.00  0.00    -0.066 N 
HETATM   11  H           1     -28.943  -8.395 -19.618  0.00  0.00     0.275 HD
HETATM   12  H           1     -30.344  -8.149 -18.676  0.00  0.00     0.275 HD
HETATM   13  H           1     -28.913  -8.719 -17.943  0.00  0.00     0.275 HD
ENDBRANCH   5  10
ENDBRANCH   1   5
BRANCH   2  14
HETATM   14  C           1     -25.181  -6.813 -19.441  0.00  0.00     0.195 C 
BRANCH  14  15
HETATM   15  C           1     -24.990  -7.823 -20.544  0.00  0.00     0.197 C 
HETATM   16  O           1     -23.841  -8.227 -20.829  0.00  0.00    -0.646 OA
HETATM   17  O           1     -25.979  -8.259 -21.172  0.00  0.00    -0.646 OA
ENDBRANCH  14  15
BRANCH  14  18
HETATM   18  C           1     -24.031  -6.918 -18.449  0.00  0.00     0.149 C 
BRANCH  18  19
HETATM   19  C           1     -24.581  -7.030 -17.048  0.00  0.00     0.175 C 
HETATM   20  O           1     -25.123  -6.041 -16.509  0.00  0.00    -0.648 OA
HETATM   21  O           1     -24.495  -8.111 -16.427  0.00  0.00    -0.648 OA
ENDBRANCH  18  19
ENDBRANCH  14  18
ENDBRANCH   2  14
TORSDOF 8
ENDMDL
MODEL 5
REMARK VINA RESULT:      -5.6     10.753     12.440
REMARK  8 active torsions:
REMARK  status: ('A' for Active; 'I' for Inactive)
REMARK    1  A    between atoms: C_2  and  C_3 
REMARK    2  A    between atoms: C_2  and  C_14 
REMARK    3  A    between atoms: C_2  and  N_10 
REMARK       I    between atoms: C_3  and  N_4 
REMARK    4  A    between atoms: N_4  and  C_8 
REMARK    5  A    between atoms: C_7  and  C_8 
REMARK    6  A    between atoms: C_8  and  C_12 
REMARK    7  A    between atoms: C_12  and  C_20 
REMARK    8  A    between atoms: C_14  and  C_16 
ROOT
HETATM    1  C           1     -28.081  -6.204 -18.625  0.00  0.00     0.249 C 
HETATM    2  N           1     -27.204  -7.089 -19.191  0.00  0.00    -0.344 N 
HETATM    3  H           1     -26.919  -7.915 -18.681  0.00  0.00     0.163 HD
HETATM    4  O           1     -28.422  -5.218 -19.234  0.00  0.00    -0.271 OA
ENDROOT
BRANCH   1   5
HETATM    5  C           1     -28.622  -6.458 -17.239  0.00  0.00     0.275 C 
BRANCH   5   6
HETATM    6  C           1     -29.097  -5.146 -16.630  0.00  0.00     0.046 C 
BRANCH   6   7
HETATM    7  C           1     -30.619  -5.130 -16.580  0.00  0.00    -0.020 C 
HETATM    8  C           1     -31.159  -6.414 -17.193  0.00  0.00     0.009 C 
HETATM    9  C           1     -31.142  -3.934 -17.364  0.00  0.00     0.009 C 
ENDBRANCH   6   7
ENDBRANCH   5   6
BRANCH   5  10
HETATM   10  N           1     -27.540  -7.044 -16.381  0.00  0.00    -0.066 N 
HETATM   11  H           1     -26.932  -6.277 -16.016  0.00  0.00     0.275 HD
HETATM   12  H           1     -26.963  -7.704 -16.951  0.00  0.00     0.275 HD
HETATM   13  H           1     -27.971  -7.559 -15.582  0.00  0.00     0.275 HD
ENDBRANCH   5  10
ENDBRANCH   1   5
BRANCH   2  14
HETATM   14  C           1     -26.685  -6.845 -20.523  0.00  0.00     0.195 C 
BRANCH  14  15
HETATM   15  C           1     -26.637  -8.143 -21.290  0.00  0.00     0.197 C 
HETATM   16  O           1     -27.646  -8.880 -21.336  0.00  0.00    -0.646 OA
HETATM   17  O           1     -25.589  -8.482 -21.881  0.00  0.00    -0.646 OA
ENDBRANCH  14  15
BRANCH  14  18
HETATM   18  C           1     -25.281  -6.263 -20.421  0.00  0.00     0.149 C 
BRANCH  18  19
HETATM   19  C           1     -24.558  -6.891 -19.255  0.00  0.00     0.175 C 
HETATM   20  O           1     -23.716  -7.793 -19.455  0.00  0.00    -0.648 OA
HETATM   21  O           1     -24.800  -6.509 -18.090  0.00  0.00    -0.648 OA
ENDBRANCH  18  19
ENDBRANCH  14  18
ENDBRANCH   2  14
TORSDOF 8
ENDMDL
MODEL 6
REMARK VINA RESULT:      -5.3      3.504      6.994
REMARK  8 active torsions:
REMARK  status: ('A' for Active; 'I' for Inactive)
REMARK    1  A    between atoms: C_2  and  C_3 
REMARK    2  A    between atoms: C_2  and  C_14 
REMARK    3  A    between atoms: C_2  and  N_10 
REMARK       I    between atoms: C_3  and  N_4 
REMARK    4  A    between atoms: N_4  and  C_8 
REMARK    5  A    between atoms: C_7  and  C_8 
REMARK    6  A    between atoms: C_8  and  C_12 
REMARK    7  A    between atoms: C_12  and  C_20 
REMARK    8  A    between atoms: C_14  and  C_16 
ROOT
HETATM    1  C           1     -21.301  -5.800  -5.675  0.00  0.00     0.249 C 
HETATM    2  N           1     -20.847  -6.751  -4.801  0.00  0.00    -0.344 N 
HETATM    3  H           1     -19.862  -6.984  -4.773  0.00  0.00     0.163 HD
HETATM    4  O           1     -22.476  -5.523  -5.708  0.00  0.00    -0.271 OA
ENDROOT
BRANCH   1   5
HETATM    5  C           1     -20.334  -5.101  -6.598  0.00  0.00     0.275 C 
BRANCH   5   6
HETATM    6  C           1     -21.085  -4.082  -7.445  0.00  0.00     0.046 C 
BRANCH   6   7
HETATM    7  C           1     -21.358  -4.667  -8.823  0.00  0.00    -0.020 C 
HETATM    8  C           1     -20.535  -3.919  -9.863  0.00  0.00     0.009 C 
HETATM    9  C           1     -22.839  -4.529  -9.152  0.00  0.00     0.009 C 
ENDBRANCH   6   7
ENDBRANCH   5   6
BRANCH   5  10
HETATM   10  N           1     -19.680  -6.110  -7.495  0.00  0.00    -0.066 N 
HETATM   11  H           1     -18.877  -6.552  -6.994  0.00  0.00     0.275 HD
HETATM   12  H           1     -19.333  -5.635  -8.360  0.00  0.00     0.275 HD
HETATM   13  H           1     -20.375  -6.844  -7.756  0.00  0.00     0.275 HD
ENDBRANCH   5  10
ENDBRANCH   1   5
BRANCH   2  14
HETATM   14  C           1     -21.776  -7.424  -3.913  0.00  0.00     0.195 C 
BRANCH  14  15
HETATM   15  C           1     -21.653  -6.846  -2.525  0.00  0.00     0.197 C 
HETATM   16  O           1     -20.874  -7.369  -1.697  0.00  0.00    -0.646 OA
HETATM   17  O           1     -22.328  -5.845  -2.202  0.00  0.00    -0.646 OA
ENDBRANCH  14  15
BRANCH  14  18
HETATM   18  C           1     -21.455  -8.912  -3.876  0.00  0.00     0.149 C 
BRANCH  18  19
HETATM   19  C           1     -20.196  -9.176  -4.665  0.00  0.00     0.175 C 
HETATM   20  O           1     -20.271  -9.548  -5.855  0.00  0.00    -0.648 OA
HETATM   21  O           1     -19.078  -9.022  -4.128  0.00  0.00    -0.648 OA
ENDBRANCH  18  19
ENDBRANCH  14  18
ENDBRANCH   2  14
TORSDOF 8
ENDMDL
MODEL 7
REMARK VINA RESULT:      -5.3      3.521      6.597
REMARK  8 active torsions:
REMARK  status: ('A' for Active; 'I' for Inactive)
REMARK    1  A    between atoms: C_2  and  C_3 
REMARK    2  A    between atoms: C_2  and  C_14 
REMARK    3  A    between atoms: C_2  and  N_10 
REMARK       I    between atoms: C_3  and  N_4 
REMARK    4  A    between atoms: N_4  and  C_8 
REMARK    5  A    between atoms: C_7  and  C_8 
REMARK    6  A    between atoms: C_8  and  C_12 
REMARK    7  A    between atoms: C_12  and  C_20 
REMARK    8  A    between atoms: C_14  and  C_16 
ROOT
HETATM    1  C           1     -21.388  -5.437  -5.881  0.00  0.00     0.249 C 
HETATM    2  N           1     -21.616  -6.673  -5.336  0.00  0.00    -0.344 N 
HETATM    3  H           1     -22.354  -7.259  -5.704  0.00  0.00     0.163 HD
HETATM    4  O           1     -20.507  -4.738  -5.441  0.00  0.00    -0.271 OA
ENDROOT
BRANCH   1   5
HETATM    5  C           1     -22.237  -4.949  -7.028  0.00  0.00     0.275 C 
BRANCH   5   6
HETATM    6  C           1     -21.630  -3.678  -7.606  0.00  0.00     0.046 C 
BRANCH   6   7
HETATM    7  C           1     -21.292  -3.896  -9.074  0.00  0.00    -0.020 C 
HETATM    8  C           1     -22.457  -4.593  -9.764  0.00  0.00     0.009 C 
HETATM    9  C           1     -20.044  -4.762  -9.186  0.00  0.00     0.009 C 
ENDBRANCH   6   7
ENDBRANCH   5   6
BRANCH   5  10
HETATM   10  N           1     -23.624  -4.662  -6.536  0.00  0.00    -0.066 N 
HETATM   11  H           1     -24.296  -5.328  -6.979  0.00  0.00     0.275 HD
HETATM   12  H           1     -23.887  -3.682  -6.788  0.00  0.00     0.275 HD
HETATM   13  H           1     -23.655  -4.773  -5.498  0.00  0.00     0.275 HD
ENDBRANCH   5  10
ENDBRANCH   1   5
BRANCH   2  14
HETATM   14  C           1     -20.800  -7.142  -4.233  0.00  0.00     0.195 C 
BRANCH  14  15
HETATM   15  C           1     -19.815  -8.167  -4.737  0.00  0.00     0.197 C 
HETATM   16  O           1     -19.274  -8.961  -3.936  0.00  0.00    -0.646 OA
HETATM   17  O           1     -19.539  -8.224  -5.955  0.00  0.00    -0.646 OA
ENDBRANCH  14  15
BRANCH  14  18
HETATM   18  C           1     -21.694  -7.773  -3.174  0.00  0.00     0.149 C 
BRANCH  18  19
HETATM   19  C           1     -21.991  -6.760  -2.096  0.00  0.00     0.175 C 
HETATM   20  O           1     -22.277  -7.143  -0.941  0.00  0.00    -0.648 OA
HETATM   21  O           1     -21.952  -5.539  -2.358  0.00  0.00    -0.648 OA
ENDBRANCH  18  19
ENDBRANCH  14  18
ENDBRANCH   2  14
TORSDOF 8
ENDMDL
MODEL 8
REMARK VINA RESULT:      -5.2      5.236      8.498
REMARK  8 active torsions:
REMARK  status: ('A' for Active; 'I' for Inactive)
REMARK    1  A    between atoms: C_2  and  C_3 
REMARK    2  A    between atoms: C_2  and  C_14 
REMARK    3  A    between atoms: C_2  and  N_10 
REMARK       I    between atoms: C_3  and  N_4 
REMARK    4  A    between atoms: N_4  and  C_8 
REMARK    5  A    between atoms: C_7  and  C_8 
REMARK    6  A    between atoms: C_8  and  C_12 
REMARK    7  A    between atoms: C_12  and  C_20 
REMARK    8  A    between atoms: C_14  and  C_16 
ROOT
HETATM    1  C           1     -21.088  -8.053  -3.924  0.00  0.00     0.249 C 
HETATM    2  N           1     -21.766  -8.414  -2.790  0.00  0.00    -0.344 N 
HETATM    3  H           1     -22.765  -8.267  -2.731  0.00  0.00     0.163 HD
HETATM    4  O           1     -19.895  -8.228  -3.995  0.00  0.00    -0.271 OA
ENDROOT
BRANCH   1   5
HETATM    5  C           1     -21.830  -7.435  -5.083  0.00  0.00     0.275 C 
BRANCH   5   6
HETATM    6  C           1     -20.831  -6.926  -6.113  0.00  0.00     0.046 C 
BRANCH   6   7
HETATM    7  C           1     -21.068  -5.442  -6.363  0.00  0.00    -0.020 C 
HETATM    8  C           1     -21.347  -5.216  -7.842  0.00  0.00     0.009 C 
HETATM    9  C           1     -19.832  -4.653  -5.952  0.00  0.00     0.009 C 
ENDBRANCH   6   7
ENDBRANCH   5   6
BRANCH   5  10
HETATM   10  N           1     -22.665  -6.291  -4.589  0.00  0.00    -0.066 N 
HETATM   11  H           1     -23.342  -6.639  -3.873  0.00  0.00     0.275 HD
HETATM   12  H           1     -23.189  -5.870  -5.390  0.00  0.00     0.275 HD
HETATM   13  H           1     -22.045  -5.568  -4.161  0.00  0.00     0.275 HD
ENDBRANCH   5  10
ENDBRANCH   1   5
BRANCH   2  14
HETATM   14  C           1     -21.053  -9.008  -1.676  0.00  0.00     0.195 C 
BRANCH  14  15
HETATM   15  C           1     -21.673 -10.340  -1.335  0.00  0.00     0.197 C 
HETATM   16  O           1     -22.873 -10.559  -1.608  0.00  0.00    -0.646 OA
HETATM   17  O           1     -20.986 -11.225  -0.780  0.00  0.00    -0.646 OA
ENDBRANCH  14  15
BRANCH  14  18
HETATM   18  C           1     -21.137  -8.083  -0.469  0.00  0.00     0.149 C 
BRANCH  18  19
HETATM   19  C           1     -22.382  -7.236  -0.569  0.00  0.00     0.175 C 
HETATM   20  O           1     -23.430  -7.595   0.010  0.00  0.00    -0.648 OA
HETATM   21  O           1     -22.365  -6.176  -1.230  0.00  0.00    -0.648 OA
ENDBRANCH  18  19
ENDBRANCH  14  18
ENDBRANCH   2  14
TORSDOF 8
ENDMDL
MODEL 9
REMARK VINA RESULT:      -4.9      5.854      8.148
REMARK  8 active torsions:
REMARK  status: ('A' for Active; 'I' for Inactive)
REMARK    1  A    between atoms: C_2  and  C_3 
REMARK    2  A    between atoms: C_2  and  C_14 
REMARK    3  A    between atoms: C_2  and  N_10 
REMARK       I    between atoms: C_3  and  N_4 
REMARK    4  A    between atoms: N_4  and  C_8 
REMARK    5  A    between atoms: C_7  and  C_8 
REMARK    6  A    between atoms: C_8  and  C_12 
REMARK    7  A    between atoms: C_12  and  C_20 
REMARK    8  A    between atoms: C_14  and  C_16 
ROOT
HETATM    1  C           1     -21.090  -8.928  -1.646  0.00  0.00     0.249 C 
HETATM    2  N           1     -21.293  -8.665  -2.974  0.00  0.00    -0.344 N 
HETATM    3  H           1     -21.736  -9.358  -3.565  0.00  0.00     0.163 HD
HETATM    4  O           1     -20.562  -8.102  -0.941  0.00  0.00    -0.271 OA
ENDROOT
BRANCH   1   5
HETATM    5  C           1     -21.525 -10.251  -1.063  0.00  0.00     0.275 C 
BRANCH   5   6
HETATM    6  C           1     -22.663 -10.022  -0.077  0.00  0.00     0.046 C 
BRANCH   6   7
HETATM    7  C           1     -23.763 -11.046  -0.322  0.00  0.00    -0.020 C 
HETATM    8  C           1     -23.507 -12.279   0.533  0.00  0.00     0.009 C 
HETATM    9  C           1     -23.772 -11.440  -1.793  0.00  0.00     0.009 C 
ENDBRANCH   6   7
ENDBRANCH   5   6
BRANCH   5  10
HETATM   10  N           1     -20.368 -10.888  -0.352  0.00  0.00    -0.066 N 
HETATM   11  H           1     -20.615 -11.036   0.652  0.00  0.00     0.275 HD
HETATM   12  H           1     -19.532 -10.262  -0.417  0.00  0.00     0.275 HD
HETATM   13  H           1     -20.149 -11.806  -0.798  0.00  0.00     0.275 HD
ENDBRANCH   5  10
ENDBRANCH   1   5
BRANCH   2  14
HETATM   14  C           1     -20.876  -7.395  -3.535  0.00  0.00     0.195 C 
BRANCH  14  15
HETATM   15  C           1     -22.061  -6.465  -3.610  0.00  0.00     0.197 C 
HETATM   16  O           1     -22.495  -5.920  -2.571  0.00  0.00    -0.646 OA
HETATM   17  O           1     -22.608  -6.236  -4.711  0.00  0.00    -0.646 OA
ENDBRANCH  14  15
BRANCH  14  18
HETATM   18  C           1     -20.314  -7.617  -4.933  0.00  0.00     0.149 C 
BRANCH  18  19
HETATM   19  C           1     -19.769  -9.020  -5.040  0.00  0.00     0.175 C 
HETATM   20  O           1     -20.400  -9.889  -5.680  0.00  0.00    -0.648 OA
HETATM   21  O           1     -18.686  -9.313  -4.489  0.00  0.00    -0.648 OA
ENDBRANCH  18  19
ENDBRANCH  14  18
ENDBRANCH   2  14
TORSDOF 8
ENDMDL
