MODEL 1
REMARK VINA RESULT:      -6.1      0.000      0.000
REMARK  9 active torsions:
REMARK  status: ('A' for Active; 'I' for Inactive)
REMARK    1  A    between atoms: N_1  and  C_2 
REMARK       I    between atoms: N_1  and  C_6 
REMARK    2  A    between atoms: C_2  and  C_15 
REMARK    3  A    between atoms: C_2  and  C_3 
REMARK    4  A    between atoms: C_5  and  C_7 
REMARK    5  A    between atoms: C_5  and  C_10 
REMARK    6  A    between atoms: C_6  and  C_7 
REMARK    7  A    between atoms: C_7  and  N_18 
REMARK    8  A    between atoms: C_10  and  C_11 
REMARK       I    between atoms: C_11  and  N_12 
REMARK    9  A    between atoms: Se_14  and  C_15 
ROOT
HETATM    1  C           1     -33.598  -2.248 -11.413  0.00  0.00     0.275 C 
ENDROOT
BRANCH   1   2
HETATM    2  C           1     -33.121  -3.694 -11.434  0.00  0.00     0.052 C 
BRANCH   2   3
HETATM    3  C           1     -33.979  -4.526 -10.489  0.00  0.00     0.105 C 
BRANCH   3   4
HETATM    4  C           1     -34.408  -5.795 -11.185  0.00  0.00     0.215 C 
HETATM    5  N           1     -34.728  -5.772 -12.515  0.00  0.00    -0.370 N 
HETATM    6  H           1     -35.015  -6.622 -12.981  0.00  0.00     0.159 HD
HETATM    7  H           1     -34.676  -4.904 -13.033  0.00  0.00     0.159 HD
HETATM    8  O           1     -34.469  -6.831 -10.566  0.00  0.00    -0.274 OA
ENDBRANCH   3   4
ENDBRANCH   2   3
ENDBRANCH   1   2
BRANCH   1   9
HETATM    9  C           1     -34.547  -2.013 -12.562  0.00  0.00     0.249 C 
HETATM   10  N           1     -35.267  -0.850 -12.629  0.00  0.00    -0.345 N 
HETATM   11  H           1     -35.162  -0.147 -11.908  0.00  0.00     0.163 HD
HETATM   12  O           1     -34.672  -2.851 -13.423  0.00  0.00    -0.271 OA
BRANCH  10  13
HETATM   13  C           1     -36.179  -0.625 -13.734  0.00  0.00     0.185 C 
BRANCH  13  14
HETATM   14  C           1     -37.497  -0.081 -13.198  0.00  0.00     0.039 C 
BRANCH  14  15
HETATM   15 Se           1     -37.490  -0.158 -11.251  0.00  0.00     0.000 Se
HETATM   16  H           1     -38.733  -0.940 -11.161  0.00  0.00     0.000 HD
ENDBRANCH  14  15
ENDBRANCH  13  14
BRANCH  13  17
HETATM   17  C           1     -35.573   0.373 -14.690  0.00  0.00     0.196 C 
HETATM   18  O           1     -36.289   0.924 -15.554  0.00  0.00    -0.646 OA
HETATM   19  O           1     -34.357   0.649 -14.618  0.00  0.00    -0.646 OA
ENDBRANCH  13  17
ENDBRANCH  10  13
ENDBRANCH   1   9
BRANCH   1  20
HETATM   20  N           1     -34.304  -1.974 -10.118  0.00  0.00    -0.066 N 
HETATM   21  H           1     -34.475  -0.948 -10.024  0.00  0.00     0.275 HD
HETATM   22  H           1     -35.217  -2.482 -10.105  0.00  0.00     0.275 HD
HETATM   23  H           1     -33.712  -2.304  -9.322  0.00  0.00     0.275 HD
ENDBRANCH   1  20
TORSDOF 9
ENDMDL
MODEL 2
REMARK VINA RESULT:      -5.7     12.168     13.489
REMARK  9 active torsions:
REMARK  status: ('A' for Active; 'I' for Inactive)
REMARK    1  A    between atoms: N_1  and  C_2 
REMARK       I    between atoms: N_1  and  C_6 
REMARK    2  A    between atoms: C_2  and  C_15 
REMARK    3  A    between atoms: C_2  and  C_3 
REMARK    4  A    between atoms: C_5  and  C_7 
REMARK    5  A    between atoms: C_5  and  C_10 
REMARK    6  A    between atoms: C_6  and  C_7 
REMARK    7  A    between atoms: C_7  and  N_18 
REMARK    8  A    between atoms: C_10  and  C_11 
REMARK       I    between atoms: C_11  and  N_12 
REMARK    9  A    between atoms: Se_14  and  C_15 
ROOT
HETATM    1  C           1     -25.396  -7.623 -20.289  0.00  0.00     0.275 C 
ENDROOT
BRANCH   1   2
HETATM    2  C           1     -24.597  -6.861 -21.337  0.00  0.00     0.052 C 
BRANCH   2   3
HETATM    3  C           1     -24.096  -7.832 -22.399  0.00  0.00     0.105 C 
BRANCH   3   4
HETATM    4  C           1     -22.773  -8.415 -21.965  0.00  0.00     0.215 C 
HETATM    5  N           1     -22.438  -8.437 -20.638  0.00  0.00    -0.370 N 
HETATM    6  H           1     -21.552  -8.828 -20.347  0.00  0.00     0.159 HD
HETATM    7  H           1     -23.078  -8.064 -19.948  0.00  0.00     0.159 HD
HETATM    8  O           1     -22.010  -8.861 -22.789  0.00  0.00    -0.274 OA
ENDBRANCH   3   4
ENDBRANCH   2   3
ENDBRANCH   1   2
BRANCH   1   9
HETATM    9  C           1     -25.305  -6.905 -18.965  0.00  0.00     0.249 C 
HETATM   10  N           1     -26.441  -6.647 -18.245  0.00  0.00    -0.345 N 
HETATM   11  H           1     -27.342  -6.937 -18.601  0.00  0.00     0.163 HD
HETATM   12  O           1     -24.228  -6.559 -18.539  0.00  0.00    -0.271 OA
BRANCH  10  13
HETATM   13  C           1     -26.351  -5.957 -16.973  0.00  0.00     0.185 C 
BRANCH  13  14
HETATM   14  C           1     -27.564  -5.050 -16.803  0.00  0.00     0.039 C 
BRANCH  14  15
HETATM   15 Se           1     -28.773  -5.292 -18.312  0.00  0.00     0.000 Se
HETATM   16  H           1     -29.978  -4.917 -17.556  0.00  0.00     0.000 HD
ENDBRANCH  14  15
ENDBRANCH  13  14
BRANCH  13  17
HETATM   17  C           1     -26.318  -6.969 -15.854  0.00  0.00     0.196 C 
HETATM   18  O           1     -25.222  -7.372 -15.408  0.00  0.00    -0.646 OA
HETATM   19  O           1     -27.386  -7.404 -15.373  0.00  0.00    -0.646 OA
ENDBRANCH  13  17
ENDBRANCH  10  13
ENDBRANCH   1   9
BRANCH   1  20
HETATM   20  N           1     -26.832  -7.700 -20.716  0.00  0.00    -0.066 N 
HETATM   21  H           1     -26.907  -8.276 -21.584  0.00  0.00     0.275 HD
HETATM   22  H           1     -27.398  -8.141 -19.956  0.00  0.00     0.275 HD
HETATM   23  H           1     -27.192  -6.737 -20.903  0.00  0.00     0.275 HD
ENDBRANCH   1  20
TORSDOF 9
ENDMDL
MODEL 3
REMARK VINA RESULT:      -5.6     13.147     14.582
REMARK  9 active torsions:
REMARK  status: ('A' for Active; 'I' for Inactive)
REMARK    1  A    between atoms: N_1  and  C_2 
REMARK       I    between atoms: N_1  and  C_6 
REMARK    2  A    between atoms: C_2  and  C_15 
REMARK    3  A    between atoms: C_2  and  C_3 
REMARK    4  A    between atoms: C_5  and  C_7 
REMARK    5  A    between atoms: C_5  and  C_10 
REMARK    6  A    between atoms: C_6  and  C_7 
REMARK    7  A    between atoms: C_7  and  N_18 
REMARK    8  A    between atoms: C_10  and  C_11 
REMARK       I    between atoms: C_11  and  N_12 
REMARK    9  A    between atoms: Se_14  and  C_15 
ROOT
HETATM    1  C           1     -21.220  -5.938  -6.790  0.00  0.00     0.275 C 
ENDROOT
BRANCH   1   2
HETATM    2  C           1     -21.167  -5.681  -5.290  0.00  0.00     0.052 C 
BRANCH   2   3
HETATM    3  C           1     -22.014  -6.720  -4.566  0.00  0.00     0.105 C 
BRANCH   3   4
HETATM    4  C           1     -21.693  -6.693  -3.092  0.00  0.00     0.215 C 
HETATM    5  N           1     -22.391  -5.867  -2.254  0.00  0.00    -0.370 N 
HETATM    6  H           1     -22.176  -5.849  -1.266  0.00  0.00     0.159 HD
HETATM    7  H           1     -23.124  -5.274  -2.623  0.00  0.00     0.159 HD
HETATM    8  O           1     -20.818  -7.402  -2.652  0.00  0.00    -0.274 OA
ENDBRANCH   3   4
ENDBRANCH   2   3
ENDBRANCH   1   2
BRANCH   1   9
HETATM    9  C           1     -21.742  -4.710  -7.494  0.00  0.00     0.249 C 
HETATM   10  N           1     -22.275  -4.815  -8.751  0.00  0.00    -0.345 N 
HETATM   11  H           1     -22.319  -5.717  -9.208  0.00  0.00     0.163 HD
HETATM   12  O           1     -21.691  -3.633  -6.948  0.00  0.00    -0.271 OA
BRANCH  10  13
HETATM   13  C           1     -22.777  -3.634  -9.427  0.00  0.00     0.185 C 
BRANCH  13  14
HETATM   14  C           1     -22.079  -3.487 -10.773  0.00  0.00     0.039 C 
BRANCH  14  15
HETATM   15 Se           1     -20.346  -4.375 -10.708  0.00  0.00     0.000 Se
HETATM   16  H           1     -20.576  -5.169 -11.925  0.00  0.00     0.000 HD
ENDBRANCH  14  15
ENDBRANCH  13  14
BRANCH  13  17
HETATM   17  C           1     -24.264  -3.772  -9.642  0.00  0.00     0.196 C 
HETATM   18  O           1     -24.750  -4.882  -9.951  0.00  0.00    -0.646 OA
HETATM   19  O           1     -25.010  -2.778  -9.511  0.00  0.00    -0.646 OA
ENDBRANCH  13  17
ENDBRANCH  10  13
ENDBRANCH   1   9
BRANCH   1  20
HETATM   20  N           1     -19.842  -6.252  -7.291  0.00  0.00    -0.066 N 
HETATM   21  H           1     -19.602  -5.608  -8.078  0.00  0.00     0.275 HD
HETATM   22  H           1     -19.152  -6.126  -6.516  0.00  0.00     0.275 HD
HETATM   23  H           1     -19.810  -7.241  -7.627  0.00  0.00     0.275 HD
ENDBRANCH   1  20
TORSDOF 9
ENDMDL
MODEL 4
REMARK VINA RESULT:      -5.6     10.401     11.657
REMARK  9 active torsions:
REMARK  status: ('A' for Active; 'I' for Inactive)
REMARK    1  A    between atoms: N_1  and  C_2 
REMARK       I    between atoms: N_1  and  C_6 
REMARK    2  A    between atoms: C_2  and  C_15 
REMARK    3  A    between atoms: C_2  and  C_3 
REMARK    4  A    between atoms: C_5  and  C_7 
REMARK    5  A    between atoms: C_5  and  C_10 
REMARK    6  A    between atoms: C_6  and  C_7 
REMARK    7  A    between atoms: C_7  and  N_18 
REMARK    8  A    between atoms: C_10  and  C_11 
REMARK       I    between atoms: C_11  and  N_12 
REMARK    9  A    between atoms: Se_14  and  C_15 
ROOT
HETATM    1  C           1     -25.002  -6.763 -17.204  0.00  0.00     0.275 C 
ENDROOT
BRANCH   1   2
HETATM    2  C           1     -25.271  -6.815 -18.702  0.00  0.00     0.052 C 
BRANCH   2   3
HETATM    3  C           1     -24.047  -7.368 -19.420  0.00  0.00     0.105 C 
BRANCH   3   4
HETATM    4  C           1     -24.470  -8.000 -20.723  0.00  0.00     0.215 C 
HETATM    5  N           1     -23.528  -8.516 -21.571  0.00  0.00    -0.370 N 
HETATM    6  H           1     -23.811  -8.940 -22.445  0.00  0.00     0.159 HD
HETATM    7  H           1     -22.546  -8.475 -21.323  0.00  0.00     0.159 HD
HETATM    8  O           1     -25.641  -8.051 -21.018  0.00  0.00    -0.274 OA
ENDBRANCH   3   4
ENDBRANCH   2   3
ENDBRANCH   1   2
BRANCH   1   9
HETATM    9  C           1     -26.300  -6.922 -16.452  0.00  0.00     0.249 C 
HETATM   10  N           1     -27.486  -6.601 -17.056  0.00  0.00    -0.345 N 
HETATM   11  H           1     -27.492  -6.256 -18.007  0.00  0.00     0.163 HD
HETATM   12  O           1     -26.293  -7.335 -15.316  0.00  0.00    -0.271 OA
BRANCH  10  13
HETATM   13  C           1     -28.733  -6.755 -16.332  0.00  0.00     0.185 C 
BRANCH  13  14
HETATM   14  C           1     -29.164  -5.405 -15.773  0.00  0.00     0.039 C 
BRANCH  14  15
HETATM   15 Se           1     -28.603  -3.989 -16.990  0.00  0.00     0.000 Se
HETATM   16  H           1     -29.379  -4.502 -18.130  0.00  0.00     0.000 HD
ENDBRANCH  14  15
ENDBRANCH  13  14
BRANCH  13  17
HETATM   17  C           1     -29.796  -7.275 -17.268  0.00  0.00     0.196 C 
HETATM   18  O           1     -29.537  -8.223 -18.042  0.00  0.00    -0.646 OA
HETATM   19  O           1     -30.934  -6.760 -17.270  0.00  0.00    -0.646 OA
ENDBRANCH  13  17
ENDBRANCH  10  13
ENDBRANCH   1   9
BRANCH   1  20
HETATM   20  N           1     -24.066  -7.872 -16.826  0.00  0.00    -0.066 N 
HETATM   21  H           1     -24.418  -8.774 -17.219  0.00  0.00     0.275 HD
HETATM   22  H           1     -23.115  -7.673 -17.210  0.00  0.00     0.275 HD
HETATM   23  H           1     -24.012  -7.943 -15.785  0.00  0.00     0.275 HD
ENDBRANCH   1  20
TORSDOF 9
ENDMDL
MODEL 5
REMARK VINA RESULT:      -5.4     14.198     16.543
REMARK  9 active torsions:
REMARK  status: ('A' for Active; 'I' for Inactive)
REMARK    1  A    between atoms: N_1  and  C_2 
REMARK       I    between atoms: N_1  and  C_6 
REMARK    2  A    between atoms: C_2  and  C_15 
REMARK    3  A    between atoms: C_2  and  C_3 
REMARK    4  A    between atoms: C_5  and  C_7 
REMARK    5  A    between atoms: C_5  and  C_10 
REMARK    6  A    between atoms: C_6  and  C_7 
REMARK    7  A    between atoms: C_7  and  N_18 
REMARK    8  A    between atoms: C_10  and  C_11 
REMARK       I    between atoms: C_11  and  N_12 
REMARK    9  A    between atoms: Se_14  and  C_15 
ROOT
HETATM    1  C           1     -20.475  -4.980  -6.584  0.00  0.00     0.275 C 
ENDROOT
BRANCH   1   2
HETATM    2  C           1     -21.240  -3.793  -7.153  0.00  0.00     0.052 C 
BRANCH   2   3
HETATM    3  C           1     -21.462  -4.000  -8.646  0.00  0.00     0.105 C 
BRANCH   3   4
HETATM    4  C           1     -22.928  -3.838  -8.965  0.00  0.00     0.215 C 
HETATM    5  N           1     -23.868  -4.071  -7.998  0.00  0.00    -0.370 N 
HETATM    6  H           1     -24.851  -3.962  -8.211  0.00  0.00     0.159 HD
HETATM    7  H           1     -23.580  -4.350  -7.068  0.00  0.00     0.159 HD
HETATM    8  O           1     -23.272  -3.503 -10.074  0.00  0.00    -0.274 OA
ENDBRANCH   3   4
ENDBRANCH   2   3
ENDBRANCH   1   2
BRANCH   1   9
HETATM    9  C           1     -21.378  -5.771  -5.670  0.00  0.00     0.249 C 
HETATM   10  N           1     -20.843  -6.678  -4.795  0.00  0.00    -0.345 N 
HETATM   11  H           1     -19.842  -6.817  -4.760  0.00  0.00     0.163 HD
HETATM   12  O           1     -22.574  -5.604  -5.711  0.00  0.00    -0.271 OA
BRANCH  10  13
HETATM   13  C           1     -21.712  -7.437  -3.917  0.00  0.00     0.185 C 
BRANCH  13  14
HETATM   14  C           1     -21.269  -8.895  -3.904  0.00  0.00     0.039 C 
BRANCH  14  15
HETATM   15 Se           1     -19.506  -9.045  -4.721  0.00  0.00     0.000 Se
HETATM   16  H           1     -19.060  -7.714  -4.281  0.00  0.00     0.000 HD
ENDBRANCH  14  15
ENDBRANCH  13  14
BRANCH  13  17
HETATM   17  C           1     -21.632  -6.874  -2.520  0.00  0.00     0.196 C 
HETATM   18  O           1     -20.876  -7.402  -1.675  0.00  0.00    -0.646 OA
HETATM   19  O           1     -22.320  -5.878  -2.207  0.00  0.00    -0.646 OA
ENDBRANCH  13  17
ENDBRANCH  10  13
ENDBRANCH   1   9
BRANCH   1  20
HETATM   20  N           1     -20.009  -5.858  -7.707  0.00  0.00    -0.066 N 
HETATM   21  H           1     -20.501  -5.589  -8.588  0.00  0.00     0.275 HD
HETATM   22  H           1     -18.978  -5.743  -7.835  0.00  0.00     0.275 HD
HETATM   23  H           1     -20.220  -6.856  -7.480  0.00  0.00     0.275 HD
ENDBRANCH   1  20
TORSDOF 9
ENDMDL
MODEL 6
REMARK VINA RESULT:      -5.4      9.997     11.304
REMARK  9 active torsions:
REMARK  status: ('A' for Active; 'I' for Inactive)
REMARK    1  A    between atoms: N_1  and  C_2 
REMARK       I    between atoms: N_1  and  C_6 
REMARK    2  A    between atoms: C_2  and  C_15 
REMARK    3  A    between atoms: C_2  and  C_3 
REMARK    4  A    between atoms: C_5  and  C_7 
REMARK    5  A    between atoms: C_5  and  C_10 
REMARK    6  A    between atoms: C_6  and  C_7 
REMARK    7  A    between atoms: C_7  and  N_18 
REMARK    8  A    between atoms: C_10  and  C_11 
REMARK       I    between atoms: C_11  and  N_12 
REMARK    9  A    between atoms: Se_14  and  C_15 
ROOT
HETATM    1  C           1     -28.977  -6.443 -17.372  0.00  0.00     0.275 C 
ENDROOT
BRANCH   1   2
HETATM    2  C           1     -30.400  -5.984 -17.660  0.00  0.00     0.052 C 
BRANCH   2   3
HETATM    3  C           1     -30.776  -4.862 -16.699  0.00  0.00     0.105 C 
BRANCH   3   4
HETATM    4  C           1     -30.916  -3.569 -17.465  0.00  0.00     0.215 C 
HETATM    5  N           1     -29.803  -2.844 -17.793  0.00  0.00    -0.370 N 
HETATM    6  H           1     -29.897  -1.978 -18.307  0.00  0.00     0.159 HD
HETATM    7  H           1     -28.885  -3.176 -17.523  0.00  0.00     0.159 HD
HETATM    8  O           1     -32.012  -3.175 -17.788  0.00  0.00    -0.274 OA
ENDBRANCH   3   4
ENDBRANCH   2   3
ENDBRANCH   1   2
BRANCH   1   9
HETATM    9  C           1     -28.113  -6.196 -18.585  0.00  0.00     0.249 C 
HETATM   10  N           1     -27.052  -7.021 -18.850  0.00  0.00    -0.345 N 
HETATM   11  H           1     -26.848  -7.796 -18.232  0.00  0.00     0.163 HD
HETATM   12  O           1     -28.357  -5.271 -19.322  0.00  0.00    -0.271 OA
BRANCH  10  13
HETATM   13  C           1     -26.223  -6.783 -20.015  0.00  0.00     0.185 C 
BRANCH  13  14
HETATM   14  C           1     -24.762  -6.703 -19.589  0.00  0.00     0.039 C 
BRANCH  14  15
HETATM   15 Se           1     -24.626  -7.026 -17.671  0.00  0.00     0.000 Se
HETATM   16  H           1     -23.559  -6.035 -17.462  0.00  0.00     0.000 HD
ENDBRANCH  14  15
ENDBRANCH  13  14
BRANCH  13  17
HETATM   17  C           1     -26.400  -7.914 -20.997  0.00  0.00     0.196 C 
HETATM   18  O           1     -27.515  -8.468 -21.118  0.00  0.00    -0.646 OA
HETATM   19  O           1     -25.434  -8.297 -21.691  0.00  0.00    -0.646 OA
ENDBRANCH  13  17
ENDBRANCH  10  13
ENDBRANCH   1   9
BRANCH   1  20
HETATM   20  N           1     -28.430  -5.674 -16.206  0.00  0.00    -0.066 N 
HETATM   21  H           1     -27.663  -5.045 -16.531  0.00  0.00     0.275 HD
HETATM   22  H           1     -29.192  -5.102 -15.778  0.00  0.00     0.275 HD
HETATM   23  H           1     -28.056  -6.342 -15.494  0.00  0.00     0.275 HD
ENDBRANCH   1  20
TORSDOF 9
ENDMDL
MODEL 7
REMARK VINA RESULT:      -5.3      2.976      5.029
REMARK  9 active torsions:
REMARK  status: ('A' for Active; 'I' for Inactive)
REMARK    1  A    between atoms: N_1  and  C_2 
REMARK       I    between atoms: N_1  and  C_6 
REMARK    2  A    between atoms: C_2  and  C_15 
REMARK    3  A    between atoms: C_2  and  C_3 
REMARK    4  A    between atoms: C_5  and  C_7 
REMARK    5  A    between atoms: C_5  and  C_10 
REMARK    6  A    between atoms: C_6  and  C_7 
REMARK    7  A    between atoms: C_7  and  N_18 
REMARK    8  A    between atoms: C_10  and  C_11 
REMARK       I    between atoms: C_11  and  N_12 
REMARK    9  A    between atoms: Se_14  and  C_15 
ROOT
HETATM    1  C           1     -35.846   0.135 -14.826  0.00  0.00     0.275 C 
ENDROOT
BRANCH   1   2
HETATM    2  C           1     -34.811  -0.381 -15.817  0.00  0.00     0.052 C 
BRANCH   2   3
HETATM    3  C           1     -35.428  -1.484 -16.668  0.00  0.00     0.105 C 
BRANCH   3   4
HETATM    4  C           1     -34.569  -2.722 -16.588  0.00  0.00     0.215 C 
HETATM    5  N           1     -33.611  -2.954 -17.537  0.00  0.00    -0.370 N 
HETATM    6  H           1     -33.036  -3.783 -17.484  0.00  0.00     0.159 HD
HETATM    7  H           1     -33.478  -2.293 -18.293  0.00  0.00     0.159 HD
HETATM    8  O           1     -34.728  -3.510 -15.685  0.00  0.00    -0.274 OA
ENDBRANCH   3   4
ENDBRANCH   2   3
ENDBRANCH   1   2
BRANCH   1   9
HETATM    9  C           1     -35.951  -0.820 -13.663  0.00  0.00     0.249 C 
HETATM   10  N           1     -34.850  -1.523 -13.251  0.00  0.00    -0.345 N 
HETATM   11  H           1     -33.966  -1.402 -13.728  0.00  0.00     0.163 HD
HETATM   12  O           1     -37.007  -0.964 -13.093  0.00  0.00    -0.271 OA
BRANCH  10  13
HETATM   13  C           1     -34.953  -2.441 -12.134  0.00  0.00     0.185 C 
BRANCH  13  14
HETATM   14  C           1     -34.054  -3.645 -12.383  0.00  0.00     0.039 C 
BRANCH  14  15
HETATM   15 Se           1     -34.513  -5.069 -11.135  0.00  0.00     0.000 Se
HETATM   16  H           1     -34.449  -6.136 -12.147  0.00  0.00     0.000 HD
ENDBRANCH  14  15
ENDBRANCH  13  14
BRANCH  13  17
HETATM   17  C           1     -34.518  -1.742 -10.869  0.00  0.00     0.196 C 
HETATM   18  O           1     -35.371  -1.213 -10.123  0.00  0.00    -0.646 OA
HETATM   19  O           1     -33.307  -1.692 -10.566  0.00  0.00    -0.646 OA
ENDBRANCH  13  17
ENDBRANCH  10  13
ENDBRANCH   1   9
BRANCH   1  20
HETATM   20  N           1     -35.427   1.486 -14.326  0.00  0.00    -0.066 N 
HETATM   21  H           1     -36.251   2.127 -14.323  0.00  0.00     0.275 HD
HETATM   22  H           1     -35.051   1.397 -13.355  0.00  0.00     0.275 HD
HETATM   23  H           1     -34.685   1.874 -14.951  0.00  0.00     0.275 HD
ENDBRANCH   1  20
TORSDOF 9
ENDMDL
MODEL 8
REMARK VINA RESULT:      -5.2      9.047     10.685
REMARK  9 active torsions:
REMARK  status: ('A' for Active; 'I' for Inactive)
REMARK    1  A    between atoms: N_1  and  C_2 
REMARK       I    between atoms: N_1  and  C_6 
REMARK    2  A    between atoms: C_2  and  C_15 
REMARK    3  A    between atoms: C_2  and  C_3 
REMARK    4  A    between atoms: C_5  and  C_7 
REMARK    5  A    between atoms: C_5  and  C_10 
REMARK    6  A    between atoms: C_6  and  C_7 
REMARK    7  A    between atoms: C_7  and  N_18 
REMARK    8  A    between atoms: C_10  and  C_11 
REMARK       I    between atoms: C_11  and  N_12 
REMARK    9  A    between atoms: Se_14  and  C_15 
ROOT
HETATM    1  C           1     -29.981  -6.066 -17.256  0.00  0.00     0.275 C 
ENDROOT
BRANCH   1   2
HETATM    2  C           1     -29.771  -4.913 -18.229  0.00  0.00     0.052 C 
BRANCH   2   3
HETATM    3  C           1     -30.289  -3.623 -17.608  0.00  0.00     0.105 C 
BRANCH   3   4
HETATM    4  C           1     -29.123  -2.755 -17.203  0.00  0.00     0.215 C 
HETATM    5  N           1     -29.193  -1.397 -17.360  0.00  0.00    -0.370 N 
HETATM    6  H           1     -28.412  -0.815 -17.089  0.00  0.00     0.159 HD
HETATM    7  H           1     -30.029  -0.975 -17.747  0.00  0.00     0.159 HD
HETATM    8  O           1     -28.127  -3.259 -16.741  0.00  0.00    -0.274 OA
ENDBRANCH   3   4
ENDBRANCH   2   3
ENDBRANCH   1   2
BRANCH   1   9
HETATM    9  C           1     -28.683  -6.813 -17.071  0.00  0.00     0.249 C 
HETATM   10  N           1     -27.518  -6.297 -17.573  0.00  0.00    -0.345 N 
HETATM   11  H           1     -27.527  -5.414 -18.067  0.00  0.00     0.163 HD
HETATM   12  O           1     -28.671  -7.866 -16.479  0.00  0.00    -0.271 OA
BRANCH  10  13
HETATM   13  C           1     -26.271  -7.015 -17.394  0.00  0.00     0.185 C 
BRANCH  13  14
HETATM   14  C           1     -25.331  -6.691 -18.548  0.00  0.00     0.039 C 
BRANCH  14  15
HETATM   15 Se           1     -26.320  -6.741 -20.226  0.00  0.00     0.000 Se
HETATM   16  H           1     -26.710  -8.153 -20.089  0.00  0.00     0.000 HD
ENDBRANCH  14  15
ENDBRANCH  13  14
BRANCH  13  17
HETATM   17  C           1     -25.633  -6.598 -16.092  0.00  0.00     0.196 C 
HETATM   18  O           1     -25.379  -7.454 -15.218  0.00  0.00    -0.646 OA
HETATM   19  O           1     -25.357  -5.396 -15.888  0.00  0.00    -0.646 OA
ENDBRANCH  13  17
ENDBRANCH  10  13
ENDBRANCH   1   9
BRANCH   1  20
HETATM   20  N           1     -30.438  -5.525 -15.934  0.00  0.00    -0.066 N 
HETATM   21  H           1     -31.010  -6.247 -15.441  0.00  0.00     0.275 HD
HETATM   22  H           1     -29.606  -5.282 -15.350  0.00  0.00     0.275 HD
HETATM   23  H           1     -31.016  -4.668 -16.089  0.00  0.00     0.275 HD
ENDBRANCH   1  20
TORSDOF 9
ENDMDL
MODEL 9
REMARK VINA RESULT:      -5.1     13.533     15.791
REMARK  9 active torsions:
REMARK  status: ('A' for Active; 'I' for Inactive)
REMARK    1  A    between atoms: N_1  and  C_2 
REMARK       I    between atoms: N_1  and  C_6 
REMARK    2  A    between atoms: C_2  and  C_15 
REMARK    3  A    between atoms: C_2  and  C_3 
REMARK    4  A    between atoms: C_5  and  C_7 
REMARK    5  A    between atoms: C_5  and  C_10 
REMARK    6  A    between atoms: C_6  and  C_7 
REMARK    7  A    between atoms: C_7  and  N_18 
REMARK    8  A    between atoms: C_10  and  C_11 
REMARK       I    between atoms: C_11  and  N_12 
REMARK    9  A    between atoms: Se_14  and  C_15 
ROOT
HETATM    1  C           1     -20.851  -4.032  -8.010  0.00  0.00     0.275 C 
ENDROOT
BRANCH   1   2
HETATM    2  C           1     -22.357  -4.047  -8.237  0.00  0.00     0.052 C 
BRANCH   2   3
HETATM    3  C           1     -22.646  -4.307  -9.710  0.00  0.00     0.105 C 
BRANCH   3   4
HETATM    4  C           1     -24.057  -3.874 -10.030  0.00  0.00     0.215 C 
HETATM    5  N           1     -25.119  -4.569  -9.518  0.00  0.00    -0.370 N 
HETATM    6  H           1     -26.063  -4.279  -9.732  0.00  0.00     0.159 HD
HETATM    7  H           1     -24.958  -5.372  -8.923  0.00  0.00     0.159 HD
HETATM    8  O           1     -24.247  -2.914 -10.739  0.00  0.00    -0.274 OA
ENDBRANCH   3   4
ENDBRANCH   2   3
ENDBRANCH   1   2
BRANCH   1   9
HETATM    9  C           1     -20.527  -4.763  -6.731  0.00  0.00     0.249 C 
HETATM   10  N           1     -21.388  -5.711  -6.245  0.00  0.00    -0.345 N 
HETATM   11  H           1     -22.242  -5.921  -6.745  0.00  0.00     0.163 HD
HETATM   12  O           1     -19.506  -4.513  -6.134  0.00  0.00    -0.271 OA
BRANCH  10  13
HETATM   13  C           1     -21.075  -6.412  -5.016  0.00  0.00     0.185 C 
BRANCH  13  14
HETATM   14  C           1     -22.333  -6.525  -4.164  0.00  0.00     0.039 C 
BRANCH  14  15
HETATM   15 Se           1     -21.869  -6.292  -2.285  0.00  0.00     0.000 Se
HETATM   16  H           1     -22.279  -7.651  -1.895  0.00  0.00     0.000 HD
ENDBRANCH  14  15
ENDBRANCH  13  14
BRANCH  13  17
HETATM   17  C           1     -20.562  -7.793  -5.342  0.00  0.00     0.196 C 
HETATM   18  O           1     -21.232  -8.551  -6.077  0.00  0.00    -0.646 OA
HETATM   19  O           1     -19.467  -8.179  -4.879  0.00  0.00    -0.646 OA
ENDBRANCH  13  17
ENDBRANCH  10  13
ENDBRANCH   1   9
BRANCH   1  20
HETATM   20  N           1     -20.167  -4.711  -9.160  0.00  0.00    -0.066 N 
HETATM   21  H           1     -19.716  -5.593  -8.826  0.00  0.00     0.275 HD
HETATM   22  H           1     -20.869  -4.938  -9.899  0.00  0.00     0.275 HD
HETATM   23  H           1     -19.438  -4.076  -9.556  0.00  0.00     0.275 HD
ENDBRANCH   1  20
TORSDOF 9
ENDMDL
