MODEL 1
REMARK VINA RESULT:      -5.8      0.000      0.000
REMARK  9 active torsions:
REMARK  status: ('A' for Active; 'I' for Inactive)
REMARK    1  A    between atoms: N_5  and  C_19 
REMARK    2  A    between atoms: C_7  and  C_9 
REMARK    3  A    between atoms: C_7  and  C_8 
REMARK    4  A    between atoms: C_7  and  N_21 
REMARK    5  A    between atoms: C_9  and  S_17 
REMARK    6  A    between atoms: C_15  and  C_16 
REMARK    7  A    between atoms: C_16  and  C_18 
REMARK    8  A    between atoms: C_18  and  C_19 
REMARK    9  A    between atoms: C_19  and  C_20 
REMARK       I    between atoms: C_20  and  N_21 
ROOT
HETATM    1  H           1     -26.989  -7.821 -18.662  0.00  0.00     0.163 HD
HETATM    2  O           1     -28.573  -5.204 -19.351  0.00  0.00    -0.271 OA
HETATM    3  C           1     -28.209  -6.151 -18.696  0.00  0.00     0.249 C 
HETATM    4  N           1     -27.293  -7.027 -19.211  0.00  0.00    -0.344 N 
ENDROOT
BRANCH   3   5
HETATM    5  C           1     -28.766  -6.367 -17.310  0.00  0.00     0.275 C 
BRANCH   5   6
HETATM    6  N           1     -28.991  -7.833 -17.086  0.00  0.00    -0.066 N 
HETATM    7  H           1     -28.618  -8.104 -16.148  0.00  0.00     0.275 HD
HETATM    8  H           1     -30.015  -8.039 -17.127  0.00  0.00     0.275 HD
HETATM    9  H           1     -28.496  -8.377 -17.829  0.00  0.00     0.275 HD
ENDBRANCH   5   6
BRANCH   5  10
HETATM   10  C           1     -27.777  -5.843 -16.278  0.00  0.00     0.053 C 
BRANCH  10  11
HETATM   11  C           1     -27.054  -7.013 -15.625  0.00  0.00     0.115 C 
BRANCH  11  12
HETATM   12  C           1     -25.563  -6.821 -15.756  0.00  0.00     0.172 C 
HETATM   13  O           1     -24.804  -7.814 -15.774  0.00  0.00    -0.648 OA
HETATM   14  O           1     -25.087  -5.667 -15.849  0.00  0.00    -0.648 OA
ENDBRANCH  11  12
ENDBRANCH  10  11
ENDBRANCH   5  10
ENDBRANCH   3   5
BRANCH   4  15
HETATM   15  C           1     -26.758  -6.819 -20.542  0.00  0.00     0.194 C 
BRANCH  15  16
HETATM   16  C           1     -25.365  -6.211 -20.441  0.00  0.00     0.106 C 
BRANCH  16  17
HETATM   17  S           1     -24.408  -7.094 -19.176  0.00  0.00    -0.180 SA
HETATM   18  H           1     -23.284  -6.372 -19.321  0.00  0.00     0.101 HD
ENDBRANCH  16  17
ENDBRANCH  15  16
BRANCH  15  19
HETATM   19  C           1     -26.679  -8.142 -21.263  0.00  0.00     0.197 C 
HETATM   20  O           1     -27.687  -8.877 -21.335  0.00  0.00    -0.646 OA
HETATM   21  O           1     -25.603  -8.506 -21.788  0.00  0.00    -0.646 OA
ENDBRANCH  15  19
ENDBRANCH   4  15
TORSDOF 9
ENDMDL
MODEL 2
REMARK VINA RESULT:      -5.8     10.276     12.528
REMARK  9 active torsions:
REMARK  status: ('A' for Active; 'I' for Inactive)
REMARK    1  A    between atoms: N_5  and  C_19 
REMARK    2  A    between atoms: C_7  and  C_9 
REMARK    3  A    between atoms: C_7  and  C_8 
REMARK    4  A    between atoms: C_7  and  N_21 
REMARK    5  A    between atoms: C_9  and  S_17 
REMARK    6  A    between atoms: C_15  and  C_16 
REMARK    7  A    between atoms: C_16  and  C_18 
REMARK    8  A    between atoms: C_18  and  C_19 
REMARK    9  A    between atoms: C_19  and  C_20 
REMARK       I    between atoms: C_20  and  N_21 
ROOT
HETATM    1  H           1     -22.315  -5.706  -9.371  0.00  0.00     0.163 HD
HETATM    2  O           1     -21.676  -3.571  -7.164  0.00  0.00    -0.271 OA
HETATM    3  C           1     -21.740  -4.661  -7.681  0.00  0.00     0.249 C 
HETATM    4  N           1     -22.261  -4.793  -8.939  0.00  0.00    -0.344 N 
ENDROOT
BRANCH   3   5
HETATM    5  C           1     -21.245  -5.878  -6.937  0.00  0.00     0.275 C 
BRANCH   5   6
HETATM    6  N           1     -19.843  -6.190  -7.368  0.00  0.00    -0.066 N 
HETATM    7  H           1     -19.179  -5.535  -6.896  0.00  0.00     0.275 HD
HETATM    8  H           1     -19.608  -7.174  -7.107  0.00  0.00     0.275 HD
HETATM    9  H           1     -19.765  -6.077  -8.405  0.00  0.00     0.275 HD
ENDBRANCH   5   6
BRANCH   5  10
HETATM   10  C           1     -21.265  -5.601  -5.440  0.00  0.00     0.053 C 
BRANCH  10  11
HETATM   11  C           1     -22.054  -6.694  -4.732  0.00  0.00     0.115 C 
BRANCH  11  12
HETATM   12  C           1     -21.762  -6.647  -3.251  0.00  0.00     0.172 C 
HETATM   13  O           1     -22.417  -5.883  -2.510  0.00  0.00    -0.648 OA
HETATM   14  O           1     -20.866  -7.373  -2.768  0.00  0.00    -0.648 OA
ENDBRANCH  11  12
ENDBRANCH  10  11
ENDBRANCH   5  10
ENDBRANCH   3   5
BRANCH   4  15
HETATM   15  C           1     -22.737  -3.624  -9.654  0.00  0.00     0.194 C 
BRANCH  15  16
HETATM   16  C           1     -21.867  -3.391 -10.883  0.00  0.00     0.106 C 
BRANCH  16  17
HETATM   17  S           1     -20.353  -4.383 -10.751  0.00  0.00    -0.180 SA
HETATM   18  H           1     -20.382  -4.506  -9.412  0.00  0.00     0.101 HD
ENDBRANCH  16  17
ENDBRANCH  15  16
BRANCH  15  19
HETATM   19  C           1     -24.166  -3.845 -10.083  0.00  0.00     0.197 C 
HETATM   20  O           1     -24.798  -2.928 -10.649  0.00  0.00    -0.646 OA
HETATM   21  O           1     -24.719  -4.947  -9.872  0.00  0.00    -0.646 OA
ENDBRANCH  15  19
ENDBRANCH   4  15
TORSDOF 9
ENDMDL
MODEL 3
REMARK VINA RESULT:      -5.7      2.545      4.966
REMARK  9 active torsions:
REMARK  status: ('A' for Active; 'I' for Inactive)
REMARK    1  A    between atoms: N_5  and  C_19 
REMARK    2  A    between atoms: C_7  and  C_9 
REMARK    3  A    between atoms: C_7  and  C_8 
REMARK    4  A    between atoms: C_7  and  N_21 
REMARK    5  A    between atoms: C_9  and  S_17 
REMARK    6  A    between atoms: C_15  and  C_16 
REMARK    7  A    between atoms: C_16  and  C_18 
REMARK    8  A    between atoms: C_18  and  C_19 
REMARK    9  A    between atoms: C_19  and  C_20 
REMARK       I    between atoms: C_20  and  N_21 
ROOT
HETATM    1  H           1     -27.501  -6.288 -18.055  0.00  0.00     0.163 HD
HETATM    2  O           1     -26.289  -7.282 -15.338  0.00  0.00    -0.271 OA
HETATM    3  C           1     -26.301  -6.901 -16.485  0.00  0.00     0.249 C 
HETATM    4  N           1     -27.490  -6.606 -17.094  0.00  0.00    -0.344 N 
ENDROOT
BRANCH   3   5
HETATM    5  C           1     -25.006  -6.752 -17.244  0.00  0.00     0.275 C 
BRANCH   5   6
HETATM    6  N           1     -24.075  -7.866 -16.866  0.00  0.00    -0.066 N 
HETATM    7  H           1     -23.142  -7.705 -17.307  0.00  0.00     0.275 HD
HETATM    8  H           1     -23.970  -7.895 -15.827  0.00  0.00     0.275 HD
HETATM    9  H           1     -24.468  -8.775 -17.202  0.00  0.00     0.275 HD
ENDBRANCH   5   6
BRANCH   5  10
HETATM   10  C           1     -25.284  -6.809 -18.740  0.00  0.00     0.053 C 
BRANCH  10  11
HETATM   11  C           1     -24.080  -7.401 -19.459  0.00  0.00     0.115 C 
BRANCH  11  12
HETATM   12  C           1     -24.507  -7.928 -20.807  0.00  0.00     0.172 C 
HETATM   13  O           1     -23.651  -8.156 -21.689  0.00  0.00    -0.648 OA
HETATM   14  O           1     -25.718  -8.139 -21.040  0.00  0.00    -0.648 OA
ENDBRANCH  11  12
ENDBRANCH  10  11
ENDBRANCH   5  10
ENDBRANCH   3   5
BRANCH   4  15
HETATM   15  C           1     -28.735  -6.749 -16.365  0.00  0.00     0.194 C 
BRANCH  15  16
HETATM   16  C           1     -29.174  -5.389 -15.836  0.00  0.00     0.106 C 
BRANCH  16  17
HETATM   17  S           1     -28.627  -4.089 -16.979  0.00  0.00    -0.180 SA
HETATM   18  H           1     -28.773  -4.817 -18.100  0.00  0.00     0.101 HD
ENDBRANCH  16  17
ENDBRANCH  15  16
BRANCH  15  19
HETATM   19  C           1     -29.797  -7.296 -17.287  0.00  0.00     0.197 C 
HETATM   20  O           1     -29.515  -8.210 -18.092  0.00  0.00    -0.646 OA
HETATM   21  O           1     -30.958  -6.836 -17.248  0.00  0.00    -0.646 OA
ENDBRANCH  15  19
ENDBRANCH   4  15
TORSDOF 9
ENDMDL
MODEL 4
REMARK VINA RESULT:      -5.3      9.704     12.081
REMARK  9 active torsions:
REMARK  status: ('A' for Active; 'I' for Inactive)
REMARK    1  A    between atoms: N_5  and  C_19 
REMARK    2  A    between atoms: C_7  and  C_9 
REMARK    3  A    between atoms: C_7  and  C_8 
REMARK    4  A    between atoms: C_7  and  N_21 
REMARK    5  A    between atoms: C_9  and  S_17 
REMARK    6  A    between atoms: C_15  and  C_16 
REMARK    7  A    between atoms: C_16  and  C_18 
REMARK    8  A    between atoms: C_18  and  C_19 
REMARK    9  A    between atoms: C_19  and  C_20 
REMARK       I    between atoms: C_20  and  N_21 
ROOT
HETATM    1  H           1     -23.570  -5.382  -8.627  0.00  0.00     0.163 HD
HETATM    2  O           1     -21.503  -3.259  -7.598  0.00  0.00    -0.271 OA
HETATM    3  C           1     -22.201  -4.245  -7.572  0.00  0.00     0.249 C 
HETATM    4  N           1     -22.985  -4.557  -8.649  0.00  0.00    -0.344 N 
ENDROOT
BRANCH   3   5
HETATM    5  C           1     -22.208  -5.131  -6.350  0.00  0.00     0.275 C 
BRANCH   5   6
HETATM    6  N           1     -23.625  -5.437  -5.965  0.00  0.00    -0.066 N 
HETATM    7  H           1     -23.730  -6.466  -5.812  0.00  0.00     0.275 HD
HETATM    8  H           1     -23.865  -4.927  -5.085  0.00  0.00     0.275 HD
HETATM    9  H           1     -24.267  -5.131  -6.731  0.00  0.00     0.275 HD
ENDBRANCH   5   6
BRANCH   5  10
HETATM   10  C           1     -21.475  -6.429  -6.660  0.00  0.00     0.053 C 
BRANCH  10  11
HETATM   11  C           1     -20.160  -6.466  -5.895  0.00  0.00     0.115 C 
BRANCH  11  12
HETATM   12  C           1     -20.032  -7.786  -5.175  0.00  0.00     0.172 C 
HETATM   13  O           1     -20.643  -7.974  -4.101  0.00  0.00    -0.648 OA
HETATM   14  O           1     -19.315  -8.692  -5.654  0.00  0.00    -0.648 OA
ENDBRANCH  11  12
ENDBRANCH  10  11
ENDBRANCH   5  10
ENDBRANCH   3   5
BRANCH   4  15
HETATM   15  C           1     -22.978  -3.705  -9.823  0.00  0.00     0.194 C 
BRANCH  15  16
HETATM   16  C           1     -22.272  -4.422 -10.967  0.00  0.00     0.106 C 
BRANCH  16  17
HETATM   17  S           1     -20.541  -3.880 -11.046  0.00  0.00    -0.180 SA
HETATM   18  H           1     -20.175  -4.723 -12.027  0.00  0.00     0.101 HD
ENDBRANCH  16  17
ENDBRANCH  15  16
BRANCH  15  19
HETATM   19  C           1     -24.398  -3.393 -10.225  0.00  0.00     0.197 C 
HETATM   20  O           1     -24.816  -3.727 -11.354  0.00  0.00    -0.646 OA
HETATM   21  O           1     -25.158  -2.799  -9.429  0.00  0.00    -0.646 OA
ENDBRANCH  15  19
ENDBRANCH   4  15
TORSDOF 9
ENDMDL
MODEL 5
REMARK VINA RESULT:      -5.3     11.603     14.586
REMARK  9 active torsions:
REMARK  status: ('A' for Active; 'I' for Inactive)
REMARK    1  A    between atoms: N_5  and  C_19 
REMARK    2  A    between atoms: C_7  and  C_9 
REMARK    3  A    between atoms: C_7  and  C_8 
REMARK    4  A    between atoms: C_7  and  N_21 
REMARK    5  A    between atoms: C_9  and  S_17 
REMARK    6  A    between atoms: C_15  and  C_16 
REMARK    7  A    between atoms: C_16  and  C_18 
REMARK    8  A    between atoms: C_18  and  C_19 
REMARK    9  A    between atoms: C_19  and  C_20 
REMARK       I    between atoms: C_20  and  N_21 
ROOT
HETATM    1  H           1     -19.965  -6.746  -4.986  0.00  0.00     0.163 HD
HETATM    2  O           1     -22.826  -5.673  -5.693  0.00  0.00    -0.271 OA
HETATM    3  C           1     -21.624  -5.777  -5.754  0.00  0.00     0.249 C 
HETATM    4  N           1     -20.972  -6.659  -4.936  0.00  0.00    -0.344 N 
ENDROOT
BRANCH   3   5
HETATM    5  C           1     -20.843  -4.934  -6.731  0.00  0.00     0.275 C 
BRANCH   5   6
HETATM    6  N           1     -20.150  -5.826  -7.717  0.00  0.00    -0.066 N 
HETATM    7  H           1     -20.590  -5.714  -8.658  0.00  0.00     0.275 HD
HETATM    8  H           1     -19.139  -5.566  -7.772  0.00  0.00     0.275 HD
HETATM    9  H           1     -20.237  -6.820  -7.407  0.00  0.00     0.275 HD
ENDBRANCH   5   6
BRANCH   5  10
HETATM   10  C           1     -21.793  -4.002  -7.471  0.00  0.00     0.053 C 
BRANCH  10  11
HETATM   11  C           1     -21.716  -4.279  -8.966  0.00  0.00     0.115 C 
BRANCH  11  12
HETATM   12  C           1     -22.940  -3.717  -9.647  0.00  0.00     0.172 C 
HETATM   13  O           1     -22.864  -3.295 -10.821  0.00  0.00    -0.648 OA
HETATM   14  O           1     -24.031  -3.674  -9.035  0.00  0.00    -0.648 OA
ENDBRANCH  11  12
ENDBRANCH  10  11
ENDBRANCH   5  10
ENDBRANCH   3   5
BRANCH   4  15
HETATM   15  C           1     -21.723  -7.470  -3.997  0.00  0.00     0.194 C 
BRANCH  15  16
HETATM   16  C           1     -21.167  -8.889  -3.993  0.00  0.00     0.106 C 
BRANCH  16  17
HETATM   17  S           1     -19.568  -8.916  -4.850  0.00  0.00    -0.180 SA
HETATM   18  H           1     -18.996  -9.834  -4.051  0.00  0.00     0.101 HD
ENDBRANCH  16  17
ENDBRANCH  15  16
BRANCH  15  19
HETATM   19  C           1     -21.601  -6.878  -2.614  0.00  0.00     0.197 C 
HETATM   20  O           1     -20.770  -7.344  -1.806  0.00  0.00    -0.646 OA
HETATM   21  O           1     -22.333  -5.923  -2.276  0.00  0.00    -0.646 OA
ENDBRANCH  15  19
ENDBRANCH   4  15
TORSDOF 9
ENDMDL
MODEL 6
REMARK VINA RESULT:      -5.2     19.313     21.088
REMARK  9 active torsions:
REMARK  status: ('A' for Active; 'I' for Inactive)
REMARK    1  A    between atoms: N_5  and  C_19 
REMARK    2  A    between atoms: C_7  and  C_9 
REMARK    3  A    between atoms: C_7  and  C_8 
REMARK    4  A    between atoms: C_7  and  N_21 
REMARK    5  A    between atoms: C_9  and  S_17 
REMARK    6  A    between atoms: C_15  and  C_16 
REMARK    7  A    between atoms: C_16  and  C_18 
REMARK    8  A    between atoms: C_18  and  C_19 
REMARK    9  A    between atoms: C_19  and  C_20 
REMARK       I    between atoms: C_20  and  N_21 
ROOT
HETATM    1  H           1     -11.955   7.107 -21.049  0.00  0.00     0.163 HD
HETATM    2  O           1      -8.953   6.415 -20.464  0.00  0.00    -0.271 OA
HETATM    3  C           1     -10.107   6.222 -20.765  0.00  0.00     0.249 C 
HETATM    4  N           1     -10.988   7.269 -20.798  0.00  0.00    -0.344 N 
ENDROOT
BRANCH   3   5
HETATM    5  C           1     -10.576   4.828 -21.102  0.00  0.00     0.275 C 
BRANCH   5   6
HETATM    6  N           1     -10.865   4.079 -19.836  0.00  0.00    -0.066 N 
HETATM    7  H           1     -10.633   3.069 -19.967  0.00  0.00     0.275 HD
HETATM    8  H           1     -10.286   4.472 -19.059  0.00  0.00     0.275 HD
HETATM    9  H           1     -11.878   4.177 -19.598  0.00  0.00     0.275 HD
ENDBRANCH   5   6
BRANCH   5  10
HETATM   10  C           1     -11.842   4.908 -21.945  0.00  0.00     0.053 C 
BRANCH  10  11
HETATM   11  C           1     -12.985   4.220 -21.211  0.00  0.00     0.115 C 
BRANCH  11  12
HETATM   12  C           1     -13.950   5.260 -20.696  0.00  0.00     0.172 C 
HETATM   13  O           1     -15.117   5.305 -21.143  0.00  0.00    -0.648 OA
HETATM   14  O           1     -13.583   6.074 -19.821  0.00  0.00    -0.648 OA
ENDBRANCH  11  12
ENDBRANCH  10  11
ENDBRANCH   5  10
ENDBRANCH   3   5
BRANCH   4  15
HETATM   15  C           1     -10.538   8.608 -20.474  0.00  0.00     0.194 C 
BRANCH  15  16
HETATM   16  C           1     -11.191   9.607 -21.422  0.00  0.00     0.106 C 
BRANCH  16  17
HETATM   17  S           1     -12.525   8.788 -22.340  0.00  0.00    -0.180 SA
HETATM   18  H           1     -11.746   7.856 -22.917  0.00  0.00     0.101 HD
ENDBRANCH  16  17
ENDBRANCH  15  16
BRANCH  15  19
HETATM   19  C           1     -10.923   8.937 -19.053  0.00  0.00     0.197 C 
HETATM   20  O           1     -10.039   9.049 -18.176  0.00  0.00    -0.646 OA
HETATM   21  O           1     -12.125   9.096 -18.751  0.00  0.00    -0.646 OA
ENDBRANCH  15  19
ENDBRANCH   4  15
TORSDOF 9
ENDMDL
MODEL 7
REMARK VINA RESULT:      -5.2     10.675     13.562
REMARK  9 active torsions:
REMARK  status: ('A' for Active; 'I' for Inactive)
REMARK    1  A    between atoms: N_5  and  C_19 
REMARK    2  A    between atoms: C_7  and  C_9 
REMARK    3  A    between atoms: C_7  and  C_8 
REMARK    4  A    between atoms: C_7  and  N_21 
REMARK    5  A    between atoms: C_9  and  S_17 
REMARK    6  A    between atoms: C_15  and  C_16 
REMARK    7  A    between atoms: C_16  and  C_18 
REMARK    8  A    between atoms: C_18  and  C_19 
REMARK    9  A    between atoms: C_19  and  C_20 
REMARK       I    between atoms: C_20  and  N_21 
ROOT
HETATM    1  H           1     -22.271  -6.054  -6.874  0.00  0.00     0.163 HD
HETATM    2  O           1     -19.647  -4.433  -6.306  0.00  0.00    -0.271 OA
HETATM    3  C           1     -20.644  -4.777  -6.895  0.00  0.00     0.249 C 
HETATM    4  N           1     -21.436  -5.766  -6.379  0.00  0.00    -0.344 N 
ENDROOT
BRANCH   3   5
HETATM    5  C           1     -21.013  -4.116  -8.201  0.00  0.00     0.275 C 
BRANCH   5   6
HETATM    6  N           1     -20.212  -4.726  -9.313  0.00  0.00    -0.066 N 
HETATM    7  H           1     -20.273  -4.118 -10.160  0.00  0.00     0.275 HD
HETATM    8  H           1     -19.214  -4.813  -9.016  0.00  0.00     0.275 HD
HETATM    9  H           1     -20.593  -5.674  -9.535  0.00  0.00     0.275 HD
ENDBRANCH   5   6
BRANCH   5  10
HETATM   10  C           1     -22.497  -4.322  -8.472  0.00  0.00     0.053 C 
BRANCH  10  11
HETATM   11  C           1     -22.766  -4.181  -9.964  0.00  0.00     0.115 C 
BRANCH  11  12
HETATM   12  C           1     -24.136  -3.584 -10.175  0.00  0.00     0.172 C 
HETATM   13  O           1     -24.679  -2.928  -9.260  0.00  0.00    -0.648 OA
HETATM   14  O           1     -24.726  -3.744 -11.266  0.00  0.00    -0.648 OA
ENDBRANCH  11  12
ENDBRANCH  10  11
ENDBRANCH   5  10
ENDBRANCH   3   5
BRANCH   4  15
HETATM   15  C           1     -21.081  -6.400  -5.125  0.00  0.00     0.194 C 
BRANCH  15  16
HETATM   16  C           1     -22.309  -6.472  -4.226  0.00  0.00     0.106 C 
BRANCH  16  17
HETATM   17  S           1     -21.793  -6.403  -2.488  0.00  0.00    -0.180 SA
HETATM   18  H           1     -22.872  -7.038  -1.996  0.00  0.00     0.101 HD
ENDBRANCH  16  17
ENDBRANCH  15  16
BRANCH  15  19
HETATM   19  C           1     -20.573  -7.795  -5.395  0.00  0.00     0.197 C 
HETATM   20  O           1     -21.233  -8.572  -6.117  0.00  0.00    -0.646 OA
HETATM   21  O           1     -19.491  -8.175  -4.895  0.00  0.00    -0.646 OA
ENDBRANCH  15  19
ENDBRANCH   4  15
TORSDOF 9
ENDMDL
MODEL 8
REMARK VINA RESULT:      -5.1     12.729     15.040
REMARK  9 active torsions:
REMARK  status: ('A' for Active; 'I' for Inactive)
REMARK    1  A    between atoms: N_5  and  C_19 
REMARK    2  A    between atoms: C_7  and  C_9 
REMARK    3  A    between atoms: C_7  and  C_8 
REMARK    4  A    between atoms: C_7  and  N_21 
REMARK    5  A    between atoms: C_9  and  S_17 
REMARK    6  A    between atoms: C_15  and  C_16 
REMARK    7  A    between atoms: C_16  and  C_18 
REMARK    8  A    between atoms: C_18  and  C_19 
REMARK    9  A    between atoms: C_19  and  C_20 
REMARK       I    between atoms: C_20  and  N_21 
ROOT
HETATM    1  H           1     -21.986  -5.133  -5.010  0.00  0.00     0.163 HD
HETATM    2  O           1     -21.187  -7.912  -6.223  0.00  0.00    -0.271 OA
HETATM    3  C           1     -21.542  -7.118  -5.384  0.00  0.00     0.249 C 
HETATM    4  N           1     -21.690  -5.798  -5.712  0.00  0.00    -0.344 N 
ENDROOT
BRANCH   3   5
HETATM    5  C           1     -21.820  -7.583  -3.976  0.00  0.00     0.275 C 
BRANCH   5   6
HETATM    6  N           1     -21.221  -8.943  -3.772  0.00  0.00    -0.066 N 
HETATM    7  H           1     -21.491  -9.305  -2.830  0.00  0.00     0.275 HD
HETATM    8  H           1     -21.575  -9.593  -4.510  0.00  0.00     0.275 HD
HETATM    9  H           1     -20.180  -8.877  -3.836  0.00  0.00     0.275 HD
ENDBRANCH   5   6
BRANCH   5  10
HETATM   10  C           1     -21.203  -6.604  -2.987  0.00  0.00     0.053 C 
BRANCH  10  11
HETATM   11  C           1     -22.238  -6.218  -1.939  0.00  0.00     0.115 C 
BRANCH  11  12
HETATM   12  C           1     -22.211  -7.221  -0.811  0.00  0.00     0.172 C 
HETATM   13  O           1     -23.200  -7.337  -0.055  0.00  0.00    -0.648 OA
HETATM   14  O           1     -21.200  -7.935  -0.635  0.00  0.00    -0.648 OA
ENDBRANCH  11  12
ENDBRANCH  10  11
ENDBRANCH   5  10
ENDBRANCH   3   5
BRANCH   4  15
HETATM   15  C           1     -21.422  -5.352  -7.066  0.00  0.00     0.194 C 
BRANCH  15  16
HETATM   16  C           1     -22.421  -4.267  -7.450  0.00  0.00     0.106 C 
BRANCH  16  17
HETATM   17  S           1     -22.794  -4.386  -9.222  0.00  0.00    -0.180 SA
HETATM   18  H           1     -22.116  -5.528  -9.431  0.00  0.00     0.101 HD
ENDBRANCH  16  17
ENDBRANCH  15  16
BRANCH  15  19
HETATM   19  C           1     -20.022  -4.796  -7.143  0.00  0.00     0.197 C 
HETATM   20  O           1     -19.395  -4.533  -6.095  0.00  0.00    -0.646 OA
HETATM   21  O           1     -19.488  -4.597  -8.256  0.00  0.00    -0.646 OA
ENDBRANCH  15  19
ENDBRANCH   4  15
TORSDOF 9
ENDMDL
MODEL 9
REMARK VINA RESULT:      -5.1      5.733      7.498
REMARK  9 active torsions:
REMARK  status: ('A' for Active; 'I' for Inactive)
REMARK    1  A    between atoms: N_5  and  C_19 
REMARK    2  A    between atoms: C_7  and  C_9 
REMARK    3  A    between atoms: C_7  and  C_8 
REMARK    4  A    between atoms: C_7  and  N_21 
REMARK    5  A    between atoms: C_9  and  S_17 
REMARK    6  A    between atoms: C_15  and  C_16 
REMARK    7  A    between atoms: C_16  and  C_18 
REMARK    8  A    between atoms: C_18  and  C_19 
REMARK    9  A    between atoms: C_19  and  C_20 
REMARK       I    between atoms: C_20  and  N_21 
ROOT
HETATM    1  H           1     -32.312  -6.366 -16.430  0.00  0.00     0.163 HD
HETATM    2  O           1     -31.540  -3.500 -17.442  0.00  0.00    -0.271 OA
HETATM    3  C           1     -32.226  -4.367 -16.956  0.00  0.00     0.249 C 
HETATM    4  N           1     -31.737  -5.640 -16.837  0.00  0.00    -0.344 N 
ENDROOT
BRANCH   3   5
HETATM    5  C           1     -33.622  -4.047 -16.481  0.00  0.00     0.275 C 
BRANCH   5   6
HETATM    6  N           1     -33.666  -4.105 -14.983  0.00  0.00    -0.066 N 
HETATM    7  H           1     -34.660  -4.082 -14.662  0.00  0.00     0.275 HD
HETATM    8  H           1     -33.214  -4.989 -14.656  0.00  0.00     0.275 HD
HETATM    9  H           1     -33.152  -3.285 -14.589  0.00  0.00     0.275 HD
ENDBRANCH   5   6
BRANCH   5  10
HETATM   10  C           1     -34.008  -2.649 -16.945  0.00  0.00     0.053 C 
BRANCH  10  11
HETATM   11  C           1     -35.428  -2.337 -16.495  0.00  0.00     0.115 C 
BRANCH  11  12
HETATM   12  C           1     -35.549  -0.863 -16.193  0.00  0.00     0.172 C 
HETATM   13  O           1     -36.412  -0.174 -16.778  0.00  0.00    -0.648 OA
HETATM   14  O           1     -34.787  -0.333 -15.355  0.00  0.00    -0.648 OA
ENDBRANCH  11  12
ENDBRANCH  10  11
ENDBRANCH   5  10
ENDBRANCH   3   5
BRANCH   4  15
HETATM   15  C           1     -30.396  -5.948 -17.292  0.00  0.00     0.194 C 
BRANCH  15  16
HETATM   16  C           1     -29.413  -5.763 -16.143  0.00  0.00     0.106 C 
BRANCH  16  17
HETATM   17  S           1     -27.974  -4.820 -16.720  0.00  0.00    -0.180 SA
HETATM   18  H           1     -27.841  -5.470 -17.890  0.00  0.00     0.101 HD
ENDBRANCH  16  17
ENDBRANCH  15  16
BRANCH  15  19
HETATM   19  C           1     -30.345  -7.377 -17.773  0.00  0.00     0.197 C 
HETATM   20  O           1     -29.634  -8.213 -17.175  0.00  0.00    -0.646 OA
HETATM   21  O           1     -31.013  -7.727 -18.770  0.00  0.00    -0.646 OA
ENDBRANCH  15  19
ENDBRANCH   4  15
TORSDOF 9
ENDMDL
