MODEL 1
REMARK VINA RESULT:      -5.0      0.000      0.000
REMARK  4 active torsions:
REMARK  status: ('A' for Active; 'I' for Inactive)
REMARK    1  A    between atoms: N_1  and  C_6 
REMARK       I    between atoms: N_1  and  C_2 
REMARK    2  A    between atoms: C_2  and  C_10 
REMARK    3  A    between atoms: C_4  and  C_6 
REMARK    4  A    between atoms: C_10  and  N_11 
ROOT
HETATM    1  N           1     -28.487  -7.612 -16.677  0.00  0.00    -0.350 N 
HETATM    2  C           1     -29.639  -7.010 -17.103  0.00  0.00     0.243 C 
HETATM    3  H           1     -28.103  -8.394 -17.192  0.00  0.00     0.163 HD
HETATM    4  O           1     -30.096  -6.077 -16.488  0.00  0.00    -0.272 OA
ENDROOT
BRANCH   2   5
HETATM    5  C           1     -30.339  -7.512 -18.342  0.00  0.00     0.332 C 
BRANCH   5   6
HETATM    6  N           1     -29.504  -8.573 -18.994  0.00  0.00    -0.071 N 
HETATM    7  H           1     -29.789  -9.511 -18.633  0.00  0.00     0.274 HD
HETATM    8  H           1     -28.496  -8.405 -18.776  0.00  0.00     0.274 HD
HETATM    9  H           1     -29.646  -8.541 -20.029  0.00  0.00     0.274 HD
ENDBRANCH   5   6
ENDBRANCH   2   5
BRANCH   1  10
HETATM   10  C           1     -27.814  -7.130 -15.486  0.00  0.00     0.235 C 
BRANCH  10  11
HETATM   11  C           1     -26.400  -6.732 -15.832  0.00  0.00     0.191 C 
HETATM   12  O           1     -26.186  -5.675 -16.465  0.00  0.00    -0.647 OA
HETATM   13  O           1     -25.444  -7.457 -15.485  0.00  0.00    -0.647 OA
ENDBRANCH  10  11
ENDBRANCH   1  10
TORSDOF 4
ENDMDL
MODEL 2
REMARK VINA RESULT:      -4.9      2.557      2.978
REMARK  4 active torsions:
REMARK  status: ('A' for Active; 'I' for Inactive)
REMARK    1  A    between atoms: N_1  and  C_6 
REMARK       I    between atoms: N_1  and  C_2 
REMARK    2  A    between atoms: C_2  and  C_10 
REMARK    3  A    between atoms: C_4  and  C_6 
REMARK    4  A    between atoms: C_10  and  N_11 
ROOT
HETATM    1  N           1     -28.139  -5.823 -17.197  0.00  0.00    -0.350 N 
HETATM    2  C           1     -28.693  -4.582 -17.035  0.00  0.00     0.243 C 
HETATM    3  H           1     -28.702  -6.587 -17.548  0.00  0.00     0.163 HD
HETATM    4  O           1     -28.021  -3.671 -16.616  0.00  0.00    -0.272 OA
ENDROOT
BRANCH   2   5
HETATM    5  C           1     -30.144  -4.353 -17.380  0.00  0.00     0.332 C 
BRANCH   5   6
HETATM    6  N           1     -30.343  -2.922 -17.784  0.00  0.00    -0.071 N 
HETATM    7  H           1     -30.053  -2.798 -18.779  0.00  0.00     0.274 HD
HETATM    8  H           1     -29.764  -2.304 -17.171  0.00  0.00     0.274 HD
HETATM    9  H           1     -31.351  -2.668 -17.680  0.00  0.00     0.274 HD
ENDBRANCH   5   6
ENDBRANCH   2   5
BRANCH   1  10
HETATM   10  C           1     -26.745  -6.044 -16.866  0.00  0.00     0.235 C 
BRANCH  10  11
HETATM   11  C           1     -26.646  -7.029 -15.728  0.00  0.00     0.191 C 
HETATM   12  O           1     -25.527  -7.441 -15.353  0.00  0.00    -0.647 OA
HETATM   13  O           1     -27.683  -7.433 -15.160  0.00  0.00    -0.647 OA
ENDBRANCH  10  11
ENDBRANCH   1  10
TORSDOF 4
ENDMDL
MODEL 3
REMARK VINA RESULT:      -4.6      1.943      4.013
REMARK  4 active torsions:
REMARK  status: ('A' for Active; 'I' for Inactive)
REMARK    1  A    between atoms: N_1  and  C_6 
REMARK       I    between atoms: N_1  and  C_2 
REMARK    2  A    between atoms: C_2  and  C_10 
REMARK    3  A    between atoms: C_4  and  C_6 
REMARK    4  A    between atoms: C_10  and  N_11 
ROOT
HETATM    1  N           1     -27.299  -7.272 -15.992  0.00  0.00    -0.350 N 
HETATM    2  C           1     -26.160  -6.554 -16.236  0.00  0.00     0.243 C 
HETATM    3  H           1     -27.239  -8.257 -15.767  0.00  0.00     0.163 HD
HETATM    4  O           1     -26.233  -5.379 -16.505  0.00  0.00    -0.272 OA
ENDROOT
BRANCH   2   5
HETATM    5  C           1     -24.812  -7.230 -16.169  0.00  0.00     0.332 C 
BRANCH   5   6
HETATM    6  N           1     -24.305  -7.475 -17.559  0.00  0.00    -0.071 N 
HETATM    7  H           1     -23.516  -6.821 -17.761  0.00  0.00     0.274 HD
HETATM    8  H           1     -25.077  -7.314 -18.244  0.00  0.00     0.274 HD
HETATM    9  H           1     -23.969  -8.461 -17.638  0.00  0.00     0.274 HD
ENDBRANCH   5   6
ENDBRANCH   2   5
BRANCH   1  10
HETATM   10  C           1     -28.594  -6.623 -16.057  0.00  0.00     0.235 C 
BRANCH  10  11
HETATM   11  C           1     -29.282  -6.995 -17.348  0.00  0.00     0.191 C 
HETATM   12  O           1     -29.298  -6.188 -18.302  0.00  0.00    -0.647 OA
HETATM   13  O           1     -29.834  -8.110 -17.462  0.00  0.00    -0.647 OA
ENDBRANCH  10  11
ENDBRANCH   1  10
TORSDOF 4
ENDMDL
MODEL 4
REMARK VINA RESULT:      -4.5      2.261      4.234
REMARK  4 active torsions:
REMARK  status: ('A' for Active; 'I' for Inactive)
REMARK    1  A    between atoms: N_1  and  C_6 
REMARK       I    between atoms: N_1  and  C_2 
REMARK    2  A    between atoms: C_2  and  C_10 
REMARK    3  A    between atoms: C_4  and  C_6 
REMARK    4  A    between atoms: C_10  and  N_11 
ROOT
HETATM    1  N           1     -26.929  -7.073 -16.560  0.00  0.00    -0.350 N 
HETATM    2  C           1     -25.617  -7.080 -16.170  0.00  0.00     0.243 C 
HETATM    3  H           1     -27.165  -7.033 -17.544  0.00  0.00     0.163 HD
HETATM    4  O           1     -25.337  -7.128 -14.996  0.00  0.00    -0.272 OA
ENDROOT
BRANCH   2   5
HETATM    5  C           1     -24.521  -7.027 -17.206  0.00  0.00     0.332 C 
BRANCH   5   6
HETATM    6  N           1     -23.385  -7.908 -16.778  0.00  0.00    -0.071 N 
HETATM    7  H           1     -22.641  -7.325 -16.334  0.00  0.00     0.274 HD
HETATM    8  H           1     -22.993  -8.400 -17.613  0.00  0.00     0.274 HD
HETATM    9  H           1     -23.731  -8.613 -16.089  0.00  0.00     0.274 HD
ENDBRANCH   5   6
ENDBRANCH   2   5
BRANCH   1  10
HETATM   10  C           1     -27.982  -7.123 -15.565  0.00  0.00     0.235 C 
BRANCH  10  11
HETATM   11  C           1     -28.716  -5.805 -15.539  0.00  0.00     0.191 C 
HETATM   12  O           1     -29.580  -5.588 -14.662  0.00  0.00    -0.647 OA
HETATM   13  O           1     -28.460  -4.930 -16.394  0.00  0.00    -0.647 OA
ENDBRANCH  10  11
ENDBRANCH   1  10
TORSDOF 4
ENDMDL
MODEL 5
REMARK VINA RESULT:      -4.4      9.216     10.940
REMARK  4 active torsions:
REMARK  status: ('A' for Active; 'I' for Inactive)
REMARK    1  A    between atoms: N_1  and  C_6 
REMARK       I    between atoms: N_1  and  C_2 
REMARK    2  A    between atoms: C_2  and  C_10 
REMARK    3  A    between atoms: C_4  and  C_6 
REMARK    4  A    between atoms: C_10  and  N_11 
ROOT
HETATM    1  N           1     -22.547  -4.145  -8.531  0.00  0.00    -0.350 N 
HETATM    2  C           1     -22.262  -4.552  -7.255  0.00  0.00     0.243 C 
HETATM    3  H           1     -21.796  -3.972  -9.187  0.00  0.00     0.163 HD
HETATM    4  O           1     -23.158  -4.758  -6.473  0.00  0.00    -0.272 OA
ENDROOT
BRANCH   2   5
HETATM    5  C           1     -20.827  -4.742  -6.827  0.00  0.00     0.332 C 
BRANCH   5   6
HETATM    6  N           1     -20.258  -5.953  -7.505  0.00  0.00    -0.071 N 
HETATM    7  H           1     -19.980  -6.657  -6.784  0.00  0.00     0.274 HD
HETATM    8  H           1     -19.421  -5.677  -8.065  0.00  0.00     0.274 HD
HETATM    9  H           1     -20.978  -6.369  -8.137  0.00  0.00     0.274 HD
ENDBRANCH   5   6
ENDBRANCH   2   5
BRANCH   1  10
HETATM   10  C           1     -23.925  -3.962  -8.943  0.00  0.00     0.235 C 
BRANCH  10  11
HETATM   11  C           1     -23.963  -3.437 -10.357  0.00  0.00     0.191 C 
HETATM   12  O           1     -22.897  -3.245 -10.981  0.00  0.00    -0.647 OA
HETATM   13  O           1     -25.060  -3.196 -10.905  0.00  0.00    -0.647 OA
ENDBRANCH  10  11
ENDBRANCH   1  10
TORSDOF 4
ENDMDL
MODEL 6
REMARK VINA RESULT:      -4.3      9.143     10.679
REMARK  4 active torsions:
REMARK  status: ('A' for Active; 'I' for Inactive)
REMARK    1  A    between atoms: N_1  and  C_6 
REMARK       I    between atoms: N_1  and  C_2 
REMARK    2  A    between atoms: C_2  and  C_10 
REMARK    3  A    between atoms: C_4  and  C_6 
REMARK    4  A    between atoms: C_10  and  N_11 
ROOT
HETATM    1  N           1     -22.920  -3.726  -8.210  0.00  0.00    -0.350 N 
HETATM    2  C           1     -22.877  -3.886  -9.569  0.00  0.00     0.243 C 
HETATM    3  H           1     -23.792  -3.486  -7.756  0.00  0.00     0.163 HD
HETATM    4  O           1     -21.837  -4.172 -10.110  0.00  0.00    -0.272 OA
ENDROOT
BRANCH   2   5
HETATM    5  C           1     -24.130  -3.703 -10.391  0.00  0.00     0.332 C 
BRANCH   5   6
HETATM    6  N           1     -25.326  -3.691  -9.486  0.00  0.00    -0.071 N 
HETATM    7  H           1     -25.083  -4.155  -8.582  0.00  0.00     0.274 HD
HETATM    8  H           1     -26.113  -4.204  -9.942  0.00  0.00     0.274 HD
HETATM    9  H           1     -25.614  -2.703  -9.303  0.00  0.00     0.274 HD
ENDBRANCH   5   6
ENDBRANCH   2   5
BRANCH   1  10
HETATM   10  C           1     -21.717  -3.901  -7.421  0.00  0.00     0.235 C 
BRANCH  10  11
HETATM   11  C           1     -21.713  -5.279  -6.806  0.00  0.00     0.191 C 
HETATM   12  O           1     -21.031  -6.191  -7.322  0.00  0.00    -0.647 OA
HETATM   13  O           1     -22.391  -5.509  -5.782  0.00  0.00    -0.647 OA
ENDBRANCH  10  11
ENDBRANCH   1  10
TORSDOF 4
ENDMDL
MODEL 7
REMARK VINA RESULT:      -4.2      9.073     10.028
REMARK  4 active torsions:
REMARK  status: ('A' for Active; 'I' for Inactive)
REMARK    1  A    between atoms: N_1  and  C_6 
REMARK       I    between atoms: N_1  and  C_2 
REMARK    2  A    between atoms: C_2  and  C_10 
REMARK    3  A    between atoms: C_4  and  C_6 
REMARK    4  A    between atoms: C_10  and  N_11 
ROOT
HETATM    1  N           1     -34.992  -0.814 -13.555  0.00  0.00    -0.350 N 
HETATM    2  C           1     -36.115  -0.375 -14.202  0.00  0.00     0.243 C 
HETATM    3  H           1     -34.080  -0.478 -13.837  0.00  0.00     0.163 HD
HETATM    4  O           1     -37.202  -0.777 -13.864  0.00  0.00    -0.272 OA
ENDROOT
BRANCH   2   5
HETATM    5  C           1     -35.994   0.610 -15.339  0.00  0.00     0.332 C 
BRANCH   5   6
HETATM    6  N           1     -37.362   1.045 -15.772  0.00  0.00    -0.071 N 
HETATM    7  H           1     -37.402   2.088 -15.802  0.00  0.00     0.274 HD
HETATM    8  H           1     -38.072   0.687 -15.094  0.00  0.00     0.274 HD
HETATM    9  H           1     -37.565   0.662 -16.723  0.00  0.00     0.274 HD
ENDBRANCH   5   6
ENDBRANCH   2   5
BRANCH   1  10
HETATM   10  C           1     -35.107  -1.761 -12.463  0.00  0.00     0.235 C 
BRANCH  10  11
HETATM   11  C           1     -34.319  -3.006 -12.788  0.00  0.00     0.191 C 
HETATM   12  O           1     -33.602  -3.537 -11.913  0.00  0.00    -0.647 OA
HETATM   13  O           1     -34.383  -3.505 -13.932  0.00  0.00    -0.647 OA
ENDBRANCH  10  11
ENDBRANCH   1  10
TORSDOF 4
ENDMDL
MODEL 8
REMARK VINA RESULT:      -4.2      2.806      4.525
REMARK  4 active torsions:
REMARK  status: ('A' for Active; 'I' for Inactive)
REMARK    1  A    between atoms: N_1  and  C_6 
REMARK       I    between atoms: N_1  and  C_2 
REMARK    2  A    between atoms: C_2  and  C_10 
REMARK    3  A    between atoms: C_4  and  C_6 
REMARK    4  A    between atoms: C_10  and  N_11 
ROOT
HETATM    1  N           1     -28.435  -4.655 -16.584  0.00  0.00    -0.350 N 
HETATM    2  C           1     -27.672  -5.720 -16.979  0.00  0.00     0.243 C 
HETATM    3  H           1     -28.520  -4.428 -15.602  0.00  0.00     0.163 HD
HETATM    4  O           1     -27.572  -5.990 -18.151  0.00  0.00    -0.272 OA
ENDROOT
BRANCH   2   5
HETATM    5  C           1     -26.955  -6.558 -15.948  0.00  0.00     0.332 C 
BRANCH   5   6
HETATM    6  N           1     -25.668  -7.068 -16.524  0.00  0.00    -0.071 N 
HETATM    7  H           1     -25.430  -7.986 -16.085  0.00  0.00     0.274 HD
HETATM    8  H           1     -24.904  -6.380 -16.332  0.00  0.00     0.274 HD
HETATM    9  H           1     -25.773  -7.192 -17.556  0.00  0.00     0.274 HD
ENDBRANCH   5   6
ENDBRANCH   2   5
BRANCH   1  10
HETATM   10  C           1     -29.124  -3.850 -17.574  0.00  0.00     0.235 C 
BRANCH  10  11
HETATM   11  C           1     -30.615  -4.004 -17.402  0.00  0.00     0.191 C 
HETATM   12  O           1     -31.370  -3.024 -17.584  0.00  0.00    -0.647 OA
HETATM   13  O           1     -31.095  -5.111 -17.079  0.00  0.00    -0.647 OA
ENDBRANCH  10  11
ENDBRANCH   1  10
TORSDOF 4
ENDMDL
MODEL 9
REMARK VINA RESULT:      -4.1     11.016     11.448
REMARK  4 active torsions:
REMARK  status: ('A' for Active; 'I' for Inactive)
REMARK    1  A    between atoms: N_1  and  C_6 
REMARK       I    between atoms: N_1  and  C_2 
REMARK    2  A    between atoms: C_2  and  C_10 
REMARK    3  A    between atoms: C_4  and  C_6 
REMARK    4  A    between atoms: C_10  and  N_11 
ROOT
HETATM    1  N           1     -36.048   0.185 -12.906  0.00  0.00    -0.350 N 
HETATM    2  C           1     -36.806  -0.171 -13.990  0.00  0.00     0.243 C 
HETATM    3  H           1     -35.152   0.634 -13.041  0.00  0.00     0.163 HD
HETATM    4  O           1     -37.875  -0.706 -13.829  0.00  0.00    -0.272 OA
ENDROOT
BRANCH   2   5
HETATM    5  C           1     -36.304   0.107 -15.386  0.00  0.00     0.332 C 
BRANCH   5   6
HETATM    6  N           1     -36.895   1.393 -15.884  0.00  0.00    -0.071 N 
HETATM    7  H           1     -37.400   1.218 -16.782  0.00  0.00     0.274 HD
HETATM    8  H           1     -36.132   2.089 -16.042  0.00  0.00     0.274 HD
HETATM    9  H           1     -37.565   1.766 -15.175  0.00  0.00     0.274 HD
ENDBRANCH   5   6
ENDBRANCH   2   5
BRANCH   1  10
HETATM   10  C           1     -36.530  -0.082 -11.565  0.00  0.00     0.235 C 
BRANCH  10  11
HETATM   11  C           1     -35.861  -1.323 -11.026  0.00  0.00     0.191 C 
HETATM   12  O           1     -36.534  -2.356 -10.821  0.00  0.00    -0.647 OA
HETATM   13  O           1     -34.635  -1.317 -10.785  0.00  0.00    -0.647 OA
ENDBRANCH  10  11
ENDBRANCH   1  10
TORSDOF 4
ENDMDL
