MODEL 1
REMARK VINA RESULT:      -5.7      0.000      0.000
REMARK  8 active torsions:
REMARK  status: ('A' for Active; 'I' for Inactive)
REMARK    1  A    between atoms: C_2  and  C_14 
REMARK    2  A    between atoms: N_10  and  C_16 
REMARK    3  A    between atoms: C_11  and  C_19 
REMARK       I    between atoms: C_14  and  N_18 
REMARK    4  A    between atoms: C_15  and  C_16 
REMARK    5  A    between atoms: C_15  and  C_20 
REMARK    6  A    between atoms: N_18  and  C_19 
REMARK    7  A    between atoms: C_19  and  C_21 
REMARK    8  A    between atoms: C_20  and  C_21 
ROOT
HETATM    1  C           1     -25.620  -7.016 -19.166  0.00  0.00     0.185 C 
ENDROOT
BRANCH   1   2
HETATM    2  C           1     -24.385  -7.048 -18.299  0.00  0.00     0.196 C 
HETATM    3  O           1     -23.262  -6.835 -18.803  0.00  0.00    -0.646 OA
HETATM    4  O           1     -24.487  -7.287 -17.076  0.00  0.00    -0.646 OA
ENDBRANCH   1   2
BRANCH   1   5
HETATM    5  N           1     -26.554  -6.040 -18.638  0.00  0.00    -0.345 N 
HETATM    6  H           1     -26.210  -5.219 -18.158  0.00  0.00     0.163 HD
HETATM    7  C           1     -27.902  -6.230 -18.790  0.00  0.00     0.251 C 
HETATM    8  O           1     -28.312  -7.210 -19.364  0.00  0.00    -0.271 OA
BRANCH   7   9
HETATM    9  C           1     -28.873  -5.214 -18.241  0.00  0.00     0.311 C 
HETATM   10  N           1     -29.997  -5.874 -17.582  0.00  0.00     0.097 N 
HETATM   11  C           1     -29.483  -6.280 -16.277  0.00  0.00     0.271 C 
HETATM   12  H           1     -30.773  -5.225 -17.455  0.00  0.00     0.317 HD
HETATM   13  C           1     -28.629  -5.101 -15.840  0.00  0.00     0.033 C 
HETATM   14  C           1     -28.232  -4.397 -17.133  0.00  0.00     0.047 C 
ENDBRANCH   7   9
ENDBRANCH   1   5
BRANCH   1  15
HETATM   15  C           1     -25.233  -6.632 -20.587  0.00  0.00     0.036 C 
BRANCH  15  16
HETATM   16  C           1     -24.987  -7.891 -21.406  0.00  0.00     0.004 C 
BRANCH  16  17
HETATM   17  C           1     -24.013  -7.582 -22.536  0.00  0.00     0.027 C 
BRANCH  17  18
HETATM   18  C           1     -22.831  -8.541 -22.464  0.00  0.00     0.229 C 
BRANCH  18  19
HETATM   19  N           1     -22.621  -8.971 -21.042  0.00  0.00    -0.079 N 
HETATM   20  H           1     -21.986  -8.294 -20.563  0.00  0.00     0.274 HD
HETATM   21  H           1     -23.541  -8.997 -20.547  0.00  0.00     0.274 HD
HETATM   22  H           1     -22.189  -9.923 -21.028  0.00  0.00     0.274 HD
ENDBRANCH  18  19
ENDBRANCH  17  18
ENDBRANCH  16  17
ENDBRANCH  15  16
ENDBRANCH   1  15
TORSDOF 8
ENDMDL
MODEL 2
REMARK VINA RESULT:      -5.6      1.349      1.988
REMARK  8 active torsions:
REMARK  status: ('A' for Active; 'I' for Inactive)
REMARK    1  A    between atoms: C_2  and  C_14 
REMARK    2  A    between atoms: N_10  and  C_16 
REMARK    3  A    between atoms: C_11  and  C_19 
REMARK       I    between atoms: C_14  and  N_18 
REMARK    4  A    between atoms: C_15  and  C_16 
REMARK    5  A    between atoms: C_15  and  C_20 
REMARK    6  A    between atoms: N_18  and  C_19 
REMARK    7  A    between atoms: C_19  and  C_21 
REMARK    8  A    between atoms: C_20  and  C_21 
ROOT
HETATM    1  C           1     -25.859  -6.847 -18.277  0.00  0.00     0.185 C 
ENDROOT
BRANCH   1   2
HETATM    2  C           1     -24.469  -7.114 -17.752  0.00  0.00     0.196 C 
HETATM    3  O           1     -24.315  -7.621 -16.621  0.00  0.00    -0.646 OA
HETATM    4  O           1     -23.472  -6.828 -18.450  0.00  0.00    -0.646 OA
ENDBRANCH   1   2
BRANCH   1   5
HETATM    5  N           1     -26.532  -5.908 -17.401  0.00  0.00    -0.345 N 
HETATM    6  H           1     -26.030  -5.110 -17.032  0.00  0.00     0.163 HD
HETATM    7  C           1     -27.848  -6.099 -17.073  0.00  0.00     0.251 C 
HETATM    8  O           1     -28.447  -7.051 -17.513  0.00  0.00    -0.271 OA
BRANCH   7   9
HETATM    9  C           1     -28.549  -5.122 -16.161  0.00  0.00     0.311 C 
HETATM   10  N           1     -28.458  -3.763 -16.688  0.00  0.00     0.097 N 
HETATM   11  C           1     -29.465  -3.700 -17.743  0.00  0.00     0.271 C 
HETATM   12  H           1     -28.679  -3.080 -15.965  0.00  0.00     0.317 HD
HETATM   13  C           1     -30.645  -4.464 -17.166  0.00  0.00     0.033 C 
HETATM   14  C           1     -30.042  -5.396 -16.121  0.00  0.00     0.047 C 
ENDBRANCH   7   9
ENDBRANCH   1   5
BRANCH   1  15
HETATM   15  C           1     -25.767  -6.259 -19.678  0.00  0.00     0.036 C 
BRANCH  15  16
HETATM   16  C           1     -26.658  -7.054 -20.623  0.00  0.00     0.004 C 
BRANCH  16  17
HETATM   17  C           1     -25.880  -8.241 -21.176  0.00  0.00     0.027 C 
BRANCH  17  18
HETATM   18  C           1     -24.506  -7.777 -21.643  0.00  0.00     0.229 C 
BRANCH  18  19
HETATM   19  N           1     -23.447  -8.630 -21.010  0.00  0.00    -0.079 N 
HETATM   20  H           1     -23.428  -9.565 -21.477  0.00  0.00     0.274 HD
HETATM   21  H           1     -22.516  -8.167 -21.118  0.00  0.00     0.274 HD
HETATM   22  H           1     -23.661  -8.753 -19.994  0.00  0.00     0.274 HD
ENDBRANCH  18  19
ENDBRANCH  17  18
ENDBRANCH  16  17
ENDBRANCH  15  16
ENDBRANCH   1  15
TORSDOF 8
ENDMDL
MODEL 3
REMARK VINA RESULT:      -5.5     13.537     15.775
REMARK  8 active torsions:
REMARK  status: ('A' for Active; 'I' for Inactive)
REMARK    1  A    between atoms: C_2  and  C_14 
REMARK    2  A    between atoms: N_10  and  C_16 
REMARK    3  A    between atoms: C_11  and  C_19 
REMARK       I    between atoms: C_14  and  N_18 
REMARK    4  A    between atoms: C_15  and  C_16 
REMARK    5  A    between atoms: C_15  and  C_20 
REMARK    6  A    between atoms: N_18  and  C_19 
REMARK    7  A    between atoms: C_19  and  C_21 
REMARK    8  A    between atoms: C_20  and  C_21 
ROOT
HETATM    1  C           1     -20.909  -6.487  -4.722  0.00  0.00     0.185 C 
ENDROOT
BRANCH   1   2
HETATM    2  C           1     -20.575  -7.779  -5.427  0.00  0.00     0.196 C 
HETATM    3  O           1     -19.405  -8.003  -5.802  0.00  0.00    -0.646 OA
HETATM    4  O           1     -21.471  -8.627  -5.635  0.00  0.00    -0.646 OA
ENDBRANCH   1   2
BRANCH   1   5
HETATM    5  N           1     -21.410  -5.528  -5.687  0.00  0.00    -0.345 N 
HETATM    6  H           1     -22.383  -5.546  -5.961  0.00  0.00     0.163 HD
HETATM    7  C           1     -20.564  -4.596  -6.228  0.00  0.00     0.251 C 
HETATM    8  O           1     -19.401  -4.574  -5.902  0.00  0.00    -0.271 OA
BRANCH   7   9
HETATM    9  C           1     -21.085  -3.597  -7.232  0.00  0.00     0.311 C 
HETATM   10  N           1     -20.188  -3.500  -8.380  0.00  0.00     0.097 N 
HETATM   11  C           1     -20.491  -4.672  -9.196  0.00  0.00     0.271 C 
HETATM   12  H           1     -20.379  -2.654  -8.917  0.00  0.00     0.317 HD
HETATM   13  C           1     -22.005  -4.782  -9.126  0.00  0.00     0.033 C 
HETATM   14  C           1     -22.396  -4.070  -7.835  0.00  0.00     0.047 C 
ENDBRANCH   7   9
ENDBRANCH   1   5
BRANCH   1  15
HETATM   15  C           1     -21.972  -6.747  -3.664  0.00  0.00     0.036 C 
BRANCH  15  16
HETATM   16  C           1     -21.304  -6.975  -2.316  0.00  0.00     0.004 C 
BRANCH  16  17
HETATM   17  C           1     -22.316  -6.744  -1.201  0.00  0.00     0.027 C 
BRANCH  17  18
HETATM   18  C           1     -22.265  -7.908  -0.219  0.00  0.00     0.229 C 
BRANCH  18  19
HETATM   19  N           1     -23.513  -7.916   0.613  0.00  0.00    -0.079 N 
HETATM   20  H           1     -24.185  -7.209   0.240  0.00  0.00     0.274 HD
HETATM   21  H           1     -23.950  -8.865   0.576  0.00  0.00     0.274 HD
HETATM   22  H           1     -23.273  -7.681   1.603  0.00  0.00     0.274 HD
ENDBRANCH  18  19
ENDBRANCH  17  18
ENDBRANCH  16  17
ENDBRANCH  15  16
ENDBRANCH   1  15
TORSDOF 8
ENDMDL
MODEL 4
REMARK VINA RESULT:      -5.3      1.878      5.639
REMARK  8 active torsions:
REMARK  status: ('A' for Active; 'I' for Inactive)
REMARK    1  A    between atoms: C_2  and  C_14 
REMARK    2  A    between atoms: N_10  and  C_16 
REMARK    3  A    between atoms: C_11  and  C_19 
REMARK       I    between atoms: C_14  and  N_18 
REMARK    4  A    between atoms: C_15  and  C_16 
REMARK    5  A    between atoms: C_15  and  C_20 
REMARK    6  A    between atoms: N_18  and  C_19 
REMARK    7  A    between atoms: C_19  and  C_21 
REMARK    8  A    between atoms: C_20  and  C_21 
ROOT
HETATM    1  C           1     -26.416  -5.953 -16.910  0.00  0.00     0.185 C 
ENDROOT
BRANCH   1   2
HETATM    2  C           1     -26.388  -6.905 -15.739  0.00  0.00     0.196 C 
HETATM    3  O           1     -27.449  -7.411 -15.319  0.00  0.00    -0.646 OA
HETATM    4  O           1     -25.300  -7.188 -15.191  0.00  0.00    -0.646 OA
ENDBRANCH   1   2
BRANCH   1   5
HETATM    5  N           1     -26.447  -6.710 -18.146  0.00  0.00    -0.345 N 
HETATM    6  H           1     -27.331  -7.028 -18.523  0.00  0.00     0.163 HD
HETATM    7  C           1     -25.280  -6.996 -18.803  0.00  0.00     0.251 C 
HETATM    8  O           1     -24.226  -6.617 -18.353  0.00  0.00    -0.271 OA
BRANCH   7   9
HETATM    9  C           1     -25.313  -7.784 -20.089  0.00  0.00     0.311 C 
HETATM   10  N           1     -26.303  -7.235 -21.011  0.00  0.00     0.097 N 
HETATM   11  C           1     -25.663  -6.060 -21.596  0.00  0.00     0.271 C 
HETATM   12  H           1     -26.523  -7.905 -21.748  0.00  0.00     0.317 HD
HETATM   13  C           1     -24.229  -6.507 -21.831  0.00  0.00     0.033 C 
HETATM   14  C           1     -24.001  -7.645 -20.842  0.00  0.00     0.047 C 
ENDBRANCH   7   9
ENDBRANCH   1   5
BRANCH   1  15
HETATM   15  C           1     -27.657  -5.076 -16.820  0.00  0.00     0.036 C 
BRANCH  15  16
HETATM   16  C           1     -28.663  -5.506 -17.879  0.00  0.00     0.004 C 
BRANCH  16  17
HETATM   17  C           1     -30.044  -5.632 -17.248  0.00  0.00     0.027 C 
BRANCH  17  18
HETATM   18  C           1     -30.626  -7.002 -17.571  0.00  0.00     0.229 C 
BRANCH  18  19
HETATM   19  N           1     -29.536  -8.032 -17.531  0.00  0.00    -0.079 N 
HETATM   20  H           1     -28.969  -7.974 -18.406  0.00  0.00     0.274 HD
HETATM   21  H           1     -28.921  -7.855 -16.704  0.00  0.00     0.274 HD
HETATM   22  H           1     -29.960  -8.984 -17.453  0.00  0.00     0.274 HD
ENDBRANCH  18  19
ENDBRANCH  17  18
ENDBRANCH  16  17
ENDBRANCH  15  16
ENDBRANCH   1  15
TORSDOF 8
ENDMDL
MODEL 5
REMARK VINA RESULT:      -5.3     13.486     15.524
REMARK  8 active torsions:
REMARK  status: ('A' for Active; 'I' for Inactive)
REMARK    1  A    between atoms: C_2  and  C_14 
REMARK    2  A    between atoms: N_10  and  C_16 
REMARK    3  A    between atoms: C_11  and  C_19 
REMARK       I    between atoms: C_14  and  N_18 
REMARK    4  A    between atoms: C_15  and  C_16 
REMARK    5  A    between atoms: C_15  and  C_20 
REMARK    6  A    between atoms: N_18  and  C_19 
REMARK    7  A    between atoms: C_19  and  C_21 
REMARK    8  A    between atoms: C_20  and  C_21 
ROOT
HETATM    1  C           1     -20.675  -6.761  -5.421  0.00  0.00     0.185 C 
ENDROOT
BRANCH   1   2
HETATM    2  C           1     -21.855  -6.282  -4.611  0.00  0.00     0.196 C 
HETATM    3  O           1     -21.706  -5.975  -3.410  0.00  0.00    -0.646 OA
HETATM    4  O           1     -22.982  -6.192  -5.144  0.00  0.00    -0.646 OA
ENDBRANCH   1   2
BRANCH   1   5
HETATM    5  N           1     -20.780  -8.193  -5.624  0.00  0.00    -0.345 N 
HETATM    6  H           1     -21.310  -8.556  -6.405  0.00  0.00     0.163 HD
HETATM    7  C           1     -20.159  -9.054  -4.759  0.00  0.00     0.251 C 
HETATM    8  O           1     -19.525  -8.621  -3.827  0.00  0.00    -0.271 OA
BRANCH   7   9
HETATM    9  C           1     -20.268 -10.544  -4.971  0.00  0.00     0.311 C 
HETATM   10  N           1     -19.802 -10.915  -6.304  0.00  0.00     0.097 N 
HETATM   11  C           1     -18.345 -10.905  -6.211  0.00  0.00     0.271 C 
HETATM   12  H           1     -20.121 -11.852  -6.551  0.00  0.00     0.317 HD
HETATM   13  C           1     -18.064 -11.526  -4.853  0.00  0.00     0.033 C 
HETATM   14  C           1     -19.332 -11.293  -4.039  0.00  0.00     0.047 C 
ENDBRANCH   7   9
ENDBRANCH   1   5
BRANCH   1  15
HETATM   15  C           1     -20.665  -6.055  -6.770  0.00  0.00     0.036 C 
BRANCH  15  16
HETATM   16  C           1     -20.189  -4.620  -6.590  0.00  0.00     0.004 C 
BRANCH  16  17
HETATM   17  C           1     -21.232  -3.664  -7.154  0.00  0.00     0.027 C 
BRANCH  17  18
HETATM   18  C           1     -22.207  -4.436  -8.033  0.00  0.00     0.229 C 
BRANCH  18  19
HETATM   19  N           1     -23.606  -4.223  -7.536  0.00  0.00    -0.079 N 
HETATM   20  H           1     -23.793  -4.866  -6.734  0.00  0.00     0.274 HD
HETATM   21  H           1     -23.716  -3.232  -7.220  0.00  0.00     0.274 HD
HETATM   22  H           1     -24.283  -4.421  -8.307  0.00  0.00     0.274 HD
ENDBRANCH  18  19
ENDBRANCH  17  18
ENDBRANCH  16  17
ENDBRANCH  15  16
ENDBRANCH   1  15
TORSDOF 8
ENDMDL
MODEL 6
REMARK VINA RESULT:      -5.3     13.515     15.384
REMARK  8 active torsions:
REMARK  status: ('A' for Active; 'I' for Inactive)
REMARK    1  A    between atoms: C_2  and  C_14 
REMARK    2  A    between atoms: N_10  and  C_16 
REMARK    3  A    between atoms: C_11  and  C_19 
REMARK       I    between atoms: C_14  and  N_18 
REMARK    4  A    between atoms: C_15  and  C_16 
REMARK    5  A    between atoms: C_15  and  C_20 
REMARK    6  A    between atoms: N_18  and  C_19 
REMARK    7  A    between atoms: C_19  and  C_21 
REMARK    8  A    between atoms: C_20  and  C_21 
ROOT
HETATM    1  C           1     -20.710  -6.758  -5.452  0.00  0.00     0.185 C 
ENDROOT
BRANCH   1   2
HETATM    2  C           1     -21.893  -6.304  -4.632  0.00  0.00     0.196 C 
HETATM    3  O           1     -23.015  -6.181  -5.167  0.00  0.00    -0.646 OA
HETATM    4  O           1     -21.749  -6.052  -3.416  0.00  0.00    -0.646 OA
ENDBRANCH   1   2
BRANCH   1   5
HETATM    5  N           1     -20.775  -8.195  -5.635  0.00  0.00    -0.345 N 
HETATM    6  H           1     -21.457  -8.595  -6.267  0.00  0.00     0.163 HD
HETATM    7  C           1     -19.913  -9.012  -4.953  0.00  0.00     0.251 C 
HETATM    8  O           1     -19.099  -8.535  -4.199  0.00  0.00    -0.271 OA
BRANCH   7   9
HETATM    9  C           1     -19.980 -10.507  -5.144  0.00  0.00     0.311 C 
HETATM   10  N           1     -19.817 -11.201  -3.869  0.00  0.00     0.097 N 
HETATM   11  C           1     -21.118 -11.097  -3.214  0.00  0.00     0.271 C 
HETATM   12  H           1     -19.590 -12.184  -4.019  0.00  0.00     0.317 HD
HETATM   13  C           1     -22.112 -11.314  -4.343  0.00  0.00     0.033 C 
HETATM   14  C           1     -21.361 -10.931  -5.613  0.00  0.00     0.047 C 
ENDBRANCH   7   9
ENDBRANCH   1   5
BRANCH   1  15
HETATM   15  C           1     -20.741  -6.071  -6.810  0.00  0.00     0.036 C 
BRANCH  15  16
HETATM   16  C           1     -20.200  -4.654  -6.676  0.00  0.00     0.004 C 
BRANCH  16  17
HETATM   17  C           1     -21.252  -3.660  -7.152  0.00  0.00     0.027 C 
BRANCH  17  18
HETATM   18  C           1     -22.230  -4.364  -8.085  0.00  0.00     0.229 C 
BRANCH  18  19
HETATM   19  N           1     -23.626  -4.202  -7.560  0.00  0.00    -0.079 N 
HETATM   20  H           1     -24.181  -3.614  -8.221  0.00  0.00     0.274 HD
HETATM   21  H           1     -24.074  -5.142  -7.469  0.00  0.00     0.274 HD
HETATM   22  H           1     -23.594  -3.739  -6.623  0.00  0.00     0.274 HD
ENDBRANCH  18  19
ENDBRANCH  17  18
ENDBRANCH  16  17
ENDBRANCH  15  16
ENDBRANCH   1  15
TORSDOF 8
ENDMDL
MODEL 7
REMARK VINA RESULT:      -5.1     15.353     16.998
REMARK  8 active torsions:
REMARK  status: ('A' for Active; 'I' for Inactive)
REMARK    1  A    between atoms: C_2  and  C_14 
REMARK    2  A    between atoms: N_10  and  C_16 
REMARK    3  A    between atoms: C_11  and  C_19 
REMARK       I    between atoms: C_14  and  N_18 
REMARK    4  A    between atoms: C_15  and  C_16 
REMARK    5  A    between atoms: C_15  and  C_20 
REMARK    6  A    between atoms: N_18  and  C_19 
REMARK    7  A    between atoms: C_19  and  C_21 
REMARK    8  A    between atoms: C_20  and  C_21 
ROOT
HETATM    1  C           1     -20.716  -9.006  -4.247  0.00  0.00     0.185 C 
ENDROOT
BRANCH   1   2
HETATM    2  C           1     -19.320  -8.929  -4.814  0.00  0.00     0.196 C 
HETATM    3  O           1     -19.150  -8.687  -6.028  0.00  0.00    -0.646 OA
HETATM    4  O           1     -18.332  -9.106  -4.067  0.00  0.00    -0.646 OA
ENDBRANCH   1   2
BRANCH   1   5
HETATM    5  N           1     -20.657  -8.887  -2.803  0.00  0.00    -0.345 N 
HETATM    6  H           1     -19.998  -8.251  -2.374  0.00  0.00     0.163 HD
HETATM    7  C           1     -21.494  -9.636  -2.020  0.00  0.00     0.251 C 
HETATM    8  O           1     -22.281 -10.396  -2.532  0.00  0.00    -0.271 OA
BRANCH   7   9
HETATM    9  C           1     -21.433  -9.513  -0.517  0.00  0.00     0.311 C 
HETATM   10  N           1     -21.066  -8.156  -0.122  0.00  0.00     0.097 N 
HETATM   11  C           1     -22.293  -7.378  -0.264  0.00  0.00     0.271 C 
HETATM   12  H           1     -20.760  -8.133   0.851  0.00  0.00     0.317 HD
HETATM   13  C           1     -23.376  -8.307   0.261  0.00  0.00     0.033 C 
HETATM   14  C           1     -22.807  -9.712   0.098  0.00  0.00     0.047 C 
ENDBRANCH   7   9
ENDBRANCH   1   5
BRANCH   1  15
HETATM   15  C           1     -21.558  -7.872  -4.816  0.00  0.00     0.036 C 
BRANCH  15  16
HETATM   16  C           1     -21.203  -6.571  -4.109  0.00  0.00     0.004 C 
BRANCH  16  17
HETATM   17  C           1     -20.783  -5.530  -5.139  0.00  0.00     0.027 C 
BRANCH  17  18
HETATM   18  C           1     -21.226  -5.980  -6.526  0.00  0.00     0.229 C 
BRANCH  18  19
HETATM   19  N           1     -20.028  -6.098  -7.421  0.00  0.00    -0.079 N 
HETATM   20  H           1     -20.315  -5.927  -8.411  0.00  0.00     0.274 HD
HETATM   21  H           1     -19.312  -5.391  -7.138  0.00  0.00     0.274 HD
HETATM   22  H           1     -19.624  -7.058  -7.335  0.00  0.00     0.274 HD
ENDBRANCH  18  19
ENDBRANCH  17  18
ENDBRANCH  16  17
ENDBRANCH  15  16
ENDBRANCH   1  15
TORSDOF 8
ENDMDL
MODEL 8
REMARK VINA RESULT:      -5.1     13.771     15.441
REMARK  8 active torsions:
REMARK  status: ('A' for Active; 'I' for Inactive)
REMARK    1  A    between atoms: C_2  and  C_14 
REMARK    2  A    between atoms: N_10  and  C_16 
REMARK    3  A    between atoms: C_11  and  C_19 
REMARK       I    between atoms: C_14  and  N_18 
REMARK    4  A    between atoms: C_15  and  C_16 
REMARK    5  A    between atoms: C_15  and  C_20 
REMARK    6  A    between atoms: N_18  and  C_19 
REMARK    7  A    between atoms: C_19  and  C_21 
REMARK    8  A    between atoms: C_20  and  C_21 
ROOT
HETATM    1  C           1     -21.597  -7.304  -4.095  0.00  0.00     0.185 C 
ENDROOT
BRANCH   1   2
HETATM    2  C           1     -21.708  -6.956  -2.631  0.00  0.00     0.196 C 
HETATM    3  O           1     -21.073  -7.616  -1.781  0.00  0.00    -0.646 OA
HETATM    4  O           1     -22.434  -6.004  -2.268  0.00  0.00    -0.646 OA
ENDBRANCH   1   2
BRANCH   1   5
HETATM    5  N           1     -20.801  -6.298  -4.770  0.00  0.00    -0.345 N 
HETATM    6  H           1     -19.801  -6.258  -4.619  0.00  0.00     0.163 HD
HETATM    7  C           1     -21.402  -5.402  -5.614  0.00  0.00     0.251 C 
HETATM    8  O           1     -22.595  -5.450  -5.795  0.00  0.00    -0.271 OA
BRANCH   7   9
HETATM    9  C           1     -20.573  -4.356  -6.317  0.00  0.00     0.311 C 
HETATM   10  N           1     -19.507  -4.976  -7.099  0.00  0.00     0.097 N 
HETATM   11  C           1     -20.160  -5.458  -8.312  0.00  0.00     0.271 C 
HETATM   12  H           1     -18.794  -4.289  -7.346  0.00  0.00     0.317 HD
HETATM   13  C           1     -21.133  -4.346  -8.667  0.00  0.00     0.033 C 
HETATM   14  C           1     -21.401  -3.618  -7.355  0.00  0.00     0.047 C 
ENDBRANCH   7   9
ENDBRANCH   1   5
BRANCH   1  15
HETATM   15  C           1     -20.931  -8.665  -4.244  0.00  0.00     0.036 C 
BRANCH  15  16
HETATM   16  C           1     -19.546  -8.489  -4.852  0.00  0.00     0.004 C 
BRANCH  16  17
HETATM   17  C           1     -18.529  -9.279  -4.037  0.00  0.00     0.027 C 
BRANCH  17  18
HETATM   18  C           1     -17.814 -10.273  -4.943  0.00  0.00     0.229 C 
BRANCH  18  19
HETATM   19  N           1     -18.152  -9.978  -6.375  0.00  0.00    -0.079 N 
HETATM   20  H           1     -17.393  -9.399  -6.800  0.00  0.00     0.274 HD
HETATM   21  H           1     -18.241 -10.876  -6.903  0.00  0.00     0.274 HD
HETATM   22  H           1     -19.056  -9.455  -6.418  0.00  0.00     0.274 HD
ENDBRANCH  18  19
ENDBRANCH  17  18
ENDBRANCH  16  17
ENDBRANCH  15  16
ENDBRANCH   1  15
TORSDOF 8
ENDMDL
MODEL 9
REMARK VINA RESULT:      -5.1     16.176     17.965
REMARK  8 active torsions:
REMARK  status: ('A' for Active; 'I' for Inactive)
REMARK    1  A    between atoms: C_2  and  C_14 
REMARK    2  A    between atoms: N_10  and  C_16 
REMARK    3  A    between atoms: C_11  and  C_19 
REMARK       I    between atoms: C_14  and  N_18 
REMARK    4  A    between atoms: C_15  and  C_16 
REMARK    5  A    between atoms: C_15  and  C_20 
REMARK    6  A    between atoms: N_18  and  C_19 
REMARK    7  A    between atoms: C_19  and  C_21 
REMARK    8  A    between atoms: C_20  and  C_21 
ROOT
HETATM    1  C           1     -21.176  -7.851  -1.857  0.00  0.00     0.185 C 
ENDROOT
BRANCH   1   2
HETATM    2  C           1     -22.274  -6.928  -1.388  0.00  0.00     0.196 C 
HETATM    3  O           1     -22.886  -7.172  -0.327  0.00  0.00    -0.646 OA
HETATM    4  O           1     -22.571  -5.917  -2.063  0.00  0.00    -0.646 OA
ENDBRANCH   1   2
BRANCH   1   5
HETATM    5  N           1     -21.704  -9.194  -1.999  0.00  0.00    -0.345 N 
HETATM    6  H           1     -22.389  -9.395  -2.716  0.00  0.00     0.163 HD
HETATM    7  C           1     -21.275 -10.190  -1.163  0.00  0.00     0.251 C 
HETATM    8  O           1     -20.457  -9.950  -0.308  0.00  0.00    -0.271 OA
BRANCH   7   9
HETATM    9  C           1     -21.824 -11.588  -1.311  0.00  0.00     0.311 C 
HETATM   10  N           1     -22.229 -12.127  -0.016  0.00  0.00     0.097 N 
HETATM   11  C           1     -23.523 -11.509   0.261  0.00  0.00     0.271 C 
HETATM   12  H           1     -22.339 -13.139  -0.064  0.00  0.00     0.317 HD
HETATM   13  C           1     -24.228 -11.524  -1.085  0.00  0.00     0.033 C 
HETATM   14  C           1     -23.109 -11.581  -2.119  0.00  0.00     0.047 C 
ENDBRANCH   7   9
ENDBRANCH   1   5
BRANCH   1  15
HETATM   15  C           1     -20.646  -7.368  -3.200  0.00  0.00     0.036 C 
BRANCH  15  16
HETATM   16  C           1     -21.174  -8.267  -4.309  0.00  0.00     0.004 C 
BRANCH  16  17
HETATM   17  C           1     -21.227  -7.486  -5.615  0.00  0.00     0.027 C 
BRANCH  17  18
HETATM   18  C           1     -21.683  -6.059  -5.336  0.00  0.00     0.229 C 
BRANCH  18  19
HETATM   19  N           1     -23.170  -6.038  -5.138  0.00  0.00    -0.079 N 
HETATM   20  H           1     -23.395  -5.552  -4.241  0.00  0.00     0.274 HD
HETATM   21  H           1     -23.619  -5.529  -5.932  0.00  0.00     0.274 HD
HETATM   22  H           1     -23.529  -7.019  -5.102  0.00  0.00     0.274 HD
ENDBRANCH  18  19
ENDBRANCH  17  18
ENDBRANCH  16  17
ENDBRANCH  15  16
ENDBRANCH   1  15
TORSDOF 8
ENDMDL
