MODEL 1
REMARK VINA RESULT:      -9.5      0.000      0.000
REMARK  8 active torsions:
REMARK  status: ('A' for Active; 'I' for Inactive)
REMARK    1  A    between atoms: C_4  and  C_7 
REMARK    2  A    between atoms: C_4  and  C_20 
REMARK    3  A    between atoms: C_5  and  C_11 
REMARK    4  A    between atoms: C_5  and  C_18 
REMARK    5  A    between atoms: C_7  and  C_12 
REMARK    6  A    between atoms: C_7  and  N_14 
REMARK    7  A    between atoms: C_11  and  C_31 
REMARK    8  A    between atoms: C_11  and  N_24 
REMARK       I    between atoms: N_14  and  C_31 
ROOT
HETATM    1  N           1     -20.565  -8.244  -5.849  0.00  0.00    -0.344 N 
HETATM    2  H           1     -21.132  -8.851  -6.427  0.00  0.00     0.163 HD
HETATM    3  C           1     -20.414  -6.926  -6.186  0.00  0.00     0.249 C 
HETATM    4  O           1     -19.507  -6.586  -6.907  0.00  0.00    -0.271 OA
ENDROOT
BRANCH   3   5
HETATM    5  C           1     -21.382  -5.896  -5.656  0.00  0.00     0.278 C 
BRANCH   5   6
HETATM    6  C           1     -21.122  -4.558  -6.334  0.00  0.00     0.083 C 
BRANCH   6   7
HETATM    7  C           1     -22.037  -4.407  -7.509  0.00  0.00    -0.028 A 
HETATM    8  C           1     -23.411  -4.325  -7.463  0.00  0.00     0.096 A 
HETATM    9  N           1     -23.865  -4.192  -8.749  0.00  0.00    -0.365 N 
HETATM   10  H           1     -24.876  -4.107  -9.023  0.00  0.00     0.165 HD
HETATM   11  C           1     -22.807  -4.186  -9.630  0.00  0.00     0.042 A 
HETATM   12  C           1     -22.793  -4.073 -11.026  0.00  0.00     0.030 A 
HETATM   13  C           1     -21.643  -4.319  -8.873  0.00  0.00    -0.002 A 
HETATM   14  C           1     -21.549  -4.098 -11.662  0.00  0.00     0.002 A 
HETATM   15  C           1     -20.369  -4.230 -10.932  0.00  0.00     0.001 A 
HETATM   16  C           1     -20.401  -4.341  -9.538  0.00  0.00     0.014 A 
ENDBRANCH   6   7
ENDBRANCH   5   6
BRANCH   5  17
HETATM   17  N           1     -21.195  -5.751  -4.175  0.00  0.00    -0.066 N 
HETATM   18  H           1     -22.097  -5.460  -3.737  0.00  0.00     0.275 HD
HETATM   19  H           1     -20.466  -5.025  -3.985  0.00  0.00     0.275 HD
HETATM   20  H           1     -20.889  -6.666  -3.772  0.00  0.00     0.275 HD
ENDBRANCH   5  17
ENDBRANCH   3   5
BRANCH   1  21
HETATM   21  C           1     -19.911  -8.770  -4.667  0.00  0.00     0.190 C 
BRANCH  21  22
HETATM   22  C           1     -20.772  -9.869  -4.058  0.00  0.00     0.077 C 
BRANCH  22  23
HETATM   23  C           1     -21.246  -9.440  -2.704  0.00  0.00    -0.028 A 
HETATM   24  C           1     -20.765  -8.375  -1.976  0.00  0.00     0.096 A 
HETATM   25  N           1     -21.464  -8.325  -0.798  0.00  0.00    -0.365 N 
HETATM   26  C           1     -22.392  -9.341  -0.751  0.00  0.00     0.042 A 
HETATM   27  H           1     -21.314  -7.614  -0.041  0.00  0.00     0.165 HD
HETATM   28  C           1     -23.318  -9.676   0.245  0.00  0.00     0.030 A 
HETATM   29  C           1     -22.276 -10.058  -1.942  0.00  0.00    -0.002 A 
HETATM   30  C           1     -24.147 -10.778   0.013  0.00  0.00     0.002 A 
HETATM   31  C           1     -24.052 -11.513  -1.166  0.00  0.00     0.001 A 
HETATM   32  C           1     -23.121 -11.165  -2.152  0.00  0.00     0.014 A 
ENDBRANCH  22  23
ENDBRANCH  21  22
BRANCH  21  33
HETATM   33  C           1     -18.565  -9.336  -5.048  0.00  0.00     0.197 C 
HETATM   34  O           1     -18.350  -9.702  -6.223  0.00  0.00    -0.646 OA
HETATM   35  O           1     -17.664  -9.437  -4.187  0.00  0.00    -0.646 OA
ENDBRANCH  21  33
ENDBRANCH   1  21
TORSDOF 8
ENDMDL
MODEL 2
REMARK VINA RESULT:      -9.5      1.310      1.604
REMARK  8 active torsions:
REMARK  status: ('A' for Active; 'I' for Inactive)
REMARK    1  A    between atoms: C_4  and  C_7 
REMARK    2  A    between atoms: C_4  and  C_20 
REMARK    3  A    between atoms: C_5  and  C_11 
REMARK    4  A    between atoms: C_5  and  C_18 
REMARK    5  A    between atoms: C_7  and  C_12 
REMARK    6  A    between atoms: C_7  and  N_14 
REMARK    7  A    between atoms: C_11  and  C_31 
REMARK    8  A    between atoms: C_11  and  N_24 
REMARK       I    between atoms: N_14  and  C_31 
ROOT
HETATM    1  N           1     -20.945  -8.252  -5.692  0.00  0.00    -0.344 N 
HETATM    2  H           1     -21.599  -8.782  -6.252  0.00  0.00     0.163 HD
HETATM    3  C           1     -20.619  -6.971  -6.050  0.00  0.00     0.249 C 
HETATM    4  O           1     -19.685  -6.769  -6.788  0.00  0.00    -0.271 OA
ENDROOT
BRANCH   3   5
HETATM    5  C           1     -21.428  -5.811  -5.522  0.00  0.00     0.278 C 
BRANCH   5   6
HETATM    6  C           1     -21.071  -4.549  -6.296  0.00  0.00     0.083 C 
BRANCH   6   7
HETATM    7  C           1     -21.994  -4.404  -7.466  0.00  0.00    -0.028 A 
HETATM    8  C           1     -23.367  -4.323  -7.411  0.00  0.00     0.096 A 
HETATM    9  N           1     -23.830  -4.195  -8.695  0.00  0.00    -0.365 N 
HETATM   10  H           1     -24.842  -4.113  -8.963  0.00  0.00     0.165 HD
HETATM   11  C           1     -22.777  -4.192  -9.582  0.00  0.00     0.042 A 
HETATM   12  C           1     -22.772  -4.084 -10.979  0.00  0.00     0.030 A 
HETATM   13  C           1     -21.608  -4.320  -8.833  0.00  0.00    -0.002 A 
HETATM   14  C           1     -21.532  -4.109 -11.623  0.00  0.00     0.002 A 
HETATM   15  C           1     -20.347  -4.237 -10.900  0.00  0.00     0.001 A 
HETATM   16  C           1     -20.370  -4.344  -9.505  0.00  0.00     0.014 A 
ENDBRANCH   6   7
ENDBRANCH   5   6
BRANCH   5  17
HETATM   17  N           1     -21.119  -5.610  -4.068  0.00  0.00    -0.066 N 
HETATM   18  H           1     -21.256  -6.510  -3.555  0.00  0.00     0.275 HD
HETATM   19  H           1     -21.760  -4.885  -3.673  0.00  0.00     0.275 HD
HETATM   20  H           1     -20.129  -5.294  -3.962  0.00  0.00     0.275 HD
ENDBRANCH   5  17
ENDBRANCH   3   5
BRANCH   1  21
HETATM   21  C           1     -20.351  -8.848  -4.511  0.00  0.00     0.190 C 
BRANCH  21  22
HETATM   22  C           1     -21.272  -9.935  -3.974  0.00  0.00     0.077 C 
BRANCH  22  23
HETATM   23  C           1     -21.011 -10.134  -2.513  0.00  0.00    -0.028 A 
HETATM   24  C           1     -20.350 -11.199  -1.945  0.00  0.00     0.096 A 
HETATM   25  N           1     -20.325 -11.001  -0.589  0.00  0.00    -0.365 N 
HETATM   26  C           1     -20.960  -9.822  -0.268  0.00  0.00     0.042 A 
HETATM   27  H           1     -19.885 -11.653   0.105  0.00  0.00     0.165 HD
HETATM   28  C           1     -21.174  -9.219   0.977  0.00  0.00     0.030 A 
HETATM   29  C           1     -21.402  -9.255  -1.464  0.00  0.00    -0.002 A 
HETATM   30  C           1     -21.862  -8.001   0.997  0.00  0.00     0.002 A 
HETATM   31  C           1     -22.315  -7.413  -0.182  0.00  0.00     0.001 A 
HETATM   32  C           1     -22.092  -8.029  -1.420  0.00  0.00     0.014 A 
ENDBRANCH  22  23
ENDBRANCH  21  22
BRANCH  21  33
HETATM   33  C           1     -19.015  -9.450  -4.871  0.00  0.00     0.197 C 
HETATM   34  O           1     -18.884 -10.088  -5.938  0.00  0.00    -0.646 OA
HETATM   35  O           1     -18.039  -9.311  -4.102  0.00  0.00    -0.646 OA
ENDBRANCH  21  33
ENDBRANCH   1  21
TORSDOF 8
ENDMDL
MODEL 3
REMARK VINA RESULT:      -9.0      1.728      9.090
REMARK  8 active torsions:
REMARK  status: ('A' for Active; 'I' for Inactive)
REMARK    1  A    between atoms: C_4  and  C_7 
REMARK    2  A    between atoms: C_4  and  C_20 
REMARK    3  A    between atoms: C_5  and  C_11 
REMARK    4  A    between atoms: C_5  and  C_18 
REMARK    5  A    between atoms: C_7  and  C_12 
REMARK    6  A    between atoms: C_7  and  N_14 
REMARK    7  A    between atoms: C_11  and  C_31 
REMARK    8  A    between atoms: C_11  and  N_24 
REMARK       I    between atoms: N_14  and  C_31 
ROOT
HETATM    1  N           1     -22.542  -6.460  -4.313  0.00  0.00    -0.344 N 
HETATM    2  H           1     -23.534  -6.265  -4.256  0.00  0.00     0.163 HD
HETATM    3  C           1     -21.790  -6.520  -3.171  0.00  0.00     0.249 C 
HETATM    4  O           1     -21.262  -5.523  -2.742  0.00  0.00    -0.271 OA
ENDROOT
BRANCH   3   5
HETATM    5  C           1     -21.621  -7.834  -2.447  0.00  0.00     0.278 C 
BRANCH   5   6
HETATM    6  C           1     -22.115  -7.692  -1.014  0.00  0.00     0.083 C 
BRANCH   6   7
HETATM    7  C           1     -21.784  -8.934  -0.246  0.00  0.00    -0.028 A 
HETATM    8  C           1     -20.775  -9.071   0.679  0.00  0.00     0.096 A 
HETATM    9  N           1     -20.811 -10.358   1.150  0.00  0.00    -0.365 N 
HETATM   10  H           1     -20.155 -10.753   1.870  0.00  0.00     0.165 HD
HETATM   11  C           1     -21.829 -11.059   0.543  0.00  0.00     0.042 A 
HETATM   12  C           1     -22.237 -12.388   0.710  0.00  0.00     0.030 A 
HETATM   13  C           1     -22.459 -10.183  -0.341  0.00  0.00    -0.002 A 
HETATM   14  C           1     -23.321 -12.831  -0.053  0.00  0.00     0.002 A 
HETATM   15  C           1     -23.969 -11.979  -0.944  0.00  0.00     0.001 A 
HETATM   16  C           1     -23.549 -10.653  -1.099  0.00  0.00     0.014 A 
ENDBRANCH   6   7
ENDBRANCH   5   6
BRANCH   5  17
HETATM   17  N           1     -20.171  -8.217  -2.441  0.00  0.00    -0.066 N 
HETATM   18  H           1     -19.711  -7.850  -3.305  0.00  0.00     0.275 HD
HETATM   19  H           1     -20.085  -9.259  -2.418  0.00  0.00     0.275 HD
HETATM   20  H           1     -19.707  -7.810  -1.598  0.00  0.00     0.275 HD
ENDBRANCH   5  17
ENDBRANCH   3   5
BRANCH   1  21
HETATM   21  C           1     -21.919  -6.674  -5.604  0.00  0.00     0.190 C 
BRANCH  21  22
HETATM   22  C           1     -21.251  -5.386  -6.065  0.00  0.00     0.077 C 
BRANCH  22  23
HETATM   23  C           1     -22.026  -4.801  -7.204  0.00  0.00    -0.028 A 
HETATM   24  C           1     -23.345  -4.406  -7.170  0.00  0.00     0.096 A 
HETATM   25  N           1     -23.670  -3.928  -8.413  0.00  0.00    -0.365 N 
HETATM   26  C           1     -22.582  -4.006  -9.253  0.00  0.00     0.042 A 
HETATM   27  H           1     -24.612  -3.555  -8.685  0.00  0.00     0.165 HD
HETATM   28  C           1     -22.448  -3.637 -10.597  0.00  0.00     0.030 A 
HETATM   29  C           1     -21.532  -4.553  -8.515  0.00  0.00    -0.002 A 
HETATM   30  C           1     -21.203  -3.835 -11.202  0.00  0.00     0.002 A 
HETATM   31  C           1     -20.137  -4.380 -10.489  0.00  0.00     0.001 A 
HETATM   32  C           1     -20.287  -4.744  -9.145  0.00  0.00     0.014 A 
ENDBRANCH  22  23
ENDBRANCH  21  22
BRANCH  21  33
HETATM   33  C           1     -20.883  -7.765  -5.486  0.00  0.00     0.197 C 
HETATM   34  O           1     -19.676  -7.470  -5.348  0.00  0.00    -0.646 OA
HETATM   35  O           1     -21.232  -8.965  -5.524  0.00  0.00    -0.646 OA
ENDBRANCH  21  33
ENDBRANCH   1  21
TORSDOF 8
ENDMDL
MODEL 4
REMARK VINA RESULT:      -8.8      2.450      4.766
REMARK  8 active torsions:
REMARK  status: ('A' for Active; 'I' for Inactive)
REMARK    1  A    between atoms: C_4  and  C_7 
REMARK    2  A    between atoms: C_4  and  C_20 
REMARK    3  A    between atoms: C_5  and  C_11 
REMARK    4  A    between atoms: C_5  and  C_18 
REMARK    5  A    between atoms: C_7  and  C_12 
REMARK    6  A    between atoms: C_7  and  N_14 
REMARK    7  A    between atoms: C_11  and  C_31 
REMARK    8  A    between atoms: C_11  and  N_24 
REMARK       I    between atoms: N_14  and  C_31 
ROOT
HETATM    1  N           1     -21.265  -6.841  -3.005  0.00  0.00    -0.344 N 
HETATM    2  H           1     -21.044  -6.171  -2.279  0.00  0.00     0.163 HD
HETATM    3  C           1     -21.620  -6.404  -4.253  0.00  0.00     0.249 C 
HETATM    4  O           1     -22.781  -6.195  -4.513  0.00  0.00    -0.271 OA
ENDROOT
BRANCH   3   5
HETATM    5  C           1     -20.560  -6.182  -5.305  0.00  0.00     0.278 C 
BRANCH   5   6
HETATM    6  C           1     -20.479  -4.699  -5.640  0.00  0.00     0.083 C 
BRANCH   6   7
HETATM    7  C           1     -20.441  -4.524  -7.126  0.00  0.00    -0.028 A 
HETATM    8  C           1     -19.313  -4.533  -7.916  0.00  0.00     0.096 A 
HETATM    9  N           1     -19.709  -4.342  -9.214  0.00  0.00    -0.365 N 
HETATM   10  H           1     -19.062  -4.303 -10.039  0.00  0.00     0.165 HD
HETATM   11  C           1     -21.079  -4.208  -9.278  0.00  0.00     0.042 A 
HETATM   12  C           1     -21.916  -4.000 -10.382  0.00  0.00     0.030 A 
HETATM   13  C           1     -21.564  -4.320  -7.976  0.00  0.00    -0.002 A 
HETATM   14  C           1     -23.289  -3.904 -10.140  0.00  0.00     0.002 A 
HETATM   15  C           1     -23.802  -4.011  -8.850  0.00  0.00     0.001 A 
HETATM   16  C           1     -22.952  -4.219  -7.758  0.00  0.00     0.014 A 
ENDBRANCH   6   7
ENDBRANCH   5   6
BRANCH   5  17
HETATM   17  N           1     -20.915  -6.955  -6.541  0.00  0.00    -0.066 N 
HETATM   18  H           1     -20.210  -7.711  -6.693  0.00  0.00     0.275 HD
HETATM   19  H           1     -20.919  -6.312  -7.365  0.00  0.00     0.275 HD
HETATM   20  H           1     -21.863  -7.379  -6.426  0.00  0.00     0.275 HD
ENDBRANCH   5  17
ENDBRANCH   3   5
BRANCH   1  21
HETATM   21  C           1     -21.206  -8.262  -2.725  0.00  0.00     0.190 C 
BRANCH  21  22
HETATM   22  C           1     -19.751  -8.701  -2.637  0.00  0.00     0.077 C 
BRANCH  22  23
HETATM   23  C           1     -19.376  -9.440  -3.884  0.00  0.00    -0.028 A 
HETATM   24  C           1     -20.246  -9.905  -4.844  0.00  0.00     0.096 A 
HETATM   25  N           1     -19.504 -10.522  -5.818  0.00  0.00    -0.365 N 
HETATM   26  C           1     -18.164 -10.464  -5.504  0.00  0.00     0.042 A 
HETATM   27  H           1     -19.899 -10.972  -6.679  0.00  0.00     0.165 HD
HETATM   28  C           1     -17.051 -10.954  -6.197  0.00  0.00     0.030 A 
HETATM   29  C           1     -18.056  -9.786  -4.290  0.00  0.00    -0.002 A 
HETATM   30  C           1     -15.791 -10.744  -5.627  0.00  0.00     0.002 A 
HETATM   31  C           1     -15.653 -10.071  -4.415  0.00  0.00     0.001 A 
HETATM   32  C           1     -16.777  -9.587  -3.735  0.00  0.00     0.014 A 
ENDBRANCH  22  23
ENDBRANCH  21  22
BRANCH  21  33
HETATM   33  C           1     -21.898  -8.543  -1.414  0.00  0.00     0.197 C 
HETATM   34  O           1     -21.878  -7.691  -0.500  0.00  0.00    -0.646 OA
HETATM   35  O           1     -22.492  -9.630  -1.241  0.00  0.00    -0.646 OA
ENDBRANCH  21  33
ENDBRANCH   1  21
TORSDOF 8
ENDMDL
MODEL 5
REMARK VINA RESULT:      -8.6      1.591      2.113
REMARK  8 active torsions:
REMARK  status: ('A' for Active; 'I' for Inactive)
REMARK    1  A    between atoms: C_4  and  C_7 
REMARK    2  A    between atoms: C_4  and  C_20 
REMARK    3  A    between atoms: C_5  and  C_11 
REMARK    4  A    between atoms: C_5  and  C_18 
REMARK    5  A    between atoms: C_7  and  C_12 
REMARK    6  A    between atoms: C_7  and  N_14 
REMARK    7  A    between atoms: C_11  and  C_31 
REMARK    8  A    between atoms: C_11  and  N_24 
REMARK       I    between atoms: N_14  and  C_31 
ROOT
HETATM    1  N           1     -20.520  -7.228  -3.533  0.00  0.00    -0.344 N 
HETATM    2  H           1     -20.017  -6.745  -2.800  0.00  0.00     0.163 HD
HETATM    3  C           1     -21.189  -6.512  -4.489  0.00  0.00     0.249 C 
HETATM    4  O           1     -22.344  -6.204  -4.316  0.00  0.00    -0.271 OA
ENDROOT
BRANCH   3   5
HETATM    5  C           1     -20.483  -6.107  -5.761  0.00  0.00     0.278 C 
BRANCH   5   6
HETATM    6  C           1     -20.721  -4.627  -6.025  0.00  0.00     0.083 C 
BRANCH   6   7
HETATM    7  C           1     -21.713  -4.470  -7.135  0.00  0.00    -0.028 A 
HETATM    8  C           1     -23.082  -4.421  -6.998  0.00  0.00     0.096 A 
HETATM    9  N           1     -23.622  -4.269  -8.248  0.00  0.00    -0.365 N 
HETATM   10  H           1     -24.650  -4.201  -8.454  0.00  0.00     0.165 HD
HETATM   11  C           1     -22.624  -4.219  -9.195  0.00  0.00     0.042 A 
HETATM   12  C           1     -22.703  -4.075 -10.586  0.00  0.00     0.030 A 
HETATM   13  C           1     -21.410  -4.343  -8.519  0.00  0.00    -0.002 A 
HETATM   14  C           1     -21.503  -4.057 -11.302  0.00  0.00     0.002 A 
HETATM   15  C           1     -20.276  -4.178 -10.653  0.00  0.00     0.001 A 
HETATM   16  C           1     -20.215  -4.322  -9.263  0.00  0.00     0.014 A 
ENDBRANCH   6   7
ENDBRANCH   5   6
BRANCH   5  17
HETATM   17  N           1     -21.020  -6.912  -6.907  0.00  0.00    -0.066 N 
HETATM   18  H           1     -21.182  -7.896  -6.595  0.00  0.00     0.275 HD
HETATM   19  H           1     -20.330  -6.905  -7.692  0.00  0.00     0.275 HD
HETATM   20  H           1     -21.922  -6.496  -7.232  0.00  0.00     0.275 HD
ENDBRANCH   5  17
ENDBRANCH   3   5
BRANCH   1  21
HETATM   21  C           1     -20.533  -8.677  -3.571  0.00  0.00     0.190 C 
BRANCH  21  22
HETATM   22  C           1     -21.839  -9.156  -4.189  0.00  0.00     0.077 C 
BRANCH  22  23
HETATM   23  C           1     -22.190 -10.502  -3.634  0.00  0.00    -0.028 A 
HETATM   24  C           1     -22.103 -11.703  -4.301  0.00  0.00     0.096 A 
HETATM   25  N           1     -22.516 -12.689  -3.443  0.00  0.00    -0.365 N 
HETATM   26  C           1     -22.870 -12.146  -2.229  0.00  0.00     0.042 A 
HETATM   27  H           1     -22.555 -13.711  -3.678  0.00  0.00     0.165 HD
HETATM   28  C           1     -23.343 -12.763  -1.065  0.00  0.00     0.030 A 
HETATM   29  C           1     -22.673 -10.768  -2.322  0.00  0.00    -0.002 A 
HETATM   30  C           1     -23.625 -11.944   0.033  0.00  0.00     0.002 A 
HETATM   31  C           1     -23.439 -10.565  -0.032  0.00  0.00     0.001 A 
HETATM   32  C           1     -22.964  -9.963  -1.204  0.00  0.00     0.014 A 
ENDBRANCH  22  23
ENDBRANCH  21  22
BRANCH  21  33
HETATM   33  C           1     -19.372  -9.167  -4.401  0.00  0.00     0.197 C 
HETATM   34  O           1     -18.248  -9.321  -3.876  0.00  0.00    -0.646 OA
HETATM   35  O           1     -19.534  -9.421  -5.615  0.00  0.00    -0.646 OA
ENDBRANCH  21  33
ENDBRANCH   1  21
TORSDOF 8
ENDMDL
MODEL 6
REMARK VINA RESULT:      -8.3      1.643      2.236
REMARK  8 active torsions:
REMARK  status: ('A' for Active; 'I' for Inactive)
REMARK    1  A    between atoms: C_4  and  C_7 
REMARK    2  A    between atoms: C_4  and  C_20 
REMARK    3  A    between atoms: C_5  and  C_11 
REMARK    4  A    between atoms: C_5  and  C_18 
REMARK    5  A    between atoms: C_7  and  C_12 
REMARK    6  A    between atoms: C_7  and  N_14 
REMARK    7  A    between atoms: C_11  and  C_31 
REMARK    8  A    between atoms: C_11  and  N_24 
REMARK       I    between atoms: N_14  and  C_31 
ROOT
HETATM    1  N           1     -20.719  -8.222  -5.613  0.00  0.00    -0.344 N 
HETATM    2  H           1     -21.247  -8.878  -6.174  0.00  0.00     0.163 HD
HETATM    3  C           1     -20.329  -7.024  -6.148  0.00  0.00     0.249 C 
HETATM    4  O           1     -19.266  -6.931  -6.713  0.00  0.00    -0.271 OA
ENDROOT
BRANCH   3   5
HETATM    5  C           1     -21.228  -5.817  -6.031  0.00  0.00     0.278 C 
BRANCH   5   6
HETATM    6  C           1     -20.510  -4.593  -6.583  0.00  0.00     0.083 C 
BRANCH   6   7
HETATM    7  C           1     -20.752  -4.494  -8.057  0.00  0.00    -0.028 A 
HETATM    8  C           1     -19.798  -4.595  -9.045  0.00  0.00     0.096 A 
HETATM    9  N           1     -20.429  -4.451 -10.253  0.00  0.00    -0.365 N 
HETATM   10  H           1     -19.951  -4.483 -11.187  0.00  0.00     0.165 HD
HETATM   11  C           1     -21.779  -4.258 -10.064  0.00  0.00     0.042 A 
HETATM   12  C           1     -22.805  -4.067 -10.999  0.00  0.00     0.030 A 
HETATM   13  C           1     -22.009  -4.282  -8.689  0.00  0.00    -0.002 A 
HETATM   14  C           1     -24.102  -3.895 -10.507  0.00  0.00     0.002 A 
HETATM   15  C           1     -24.361  -3.914  -9.139  0.00  0.00     0.001 A 
HETATM   16  C           1     -23.325  -4.106  -8.218  0.00  0.00     0.014 A 
ENDBRANCH   6   7
ENDBRANCH   5   6
BRANCH   5  17
HETATM   17  N           1     -21.570  -5.588  -4.589  0.00  0.00    -0.066 N 
HETATM   18  H           1     -22.199  -4.757  -4.508  0.00  0.00     0.275 HD
HETATM   19  H           1     -20.694  -5.414  -4.046  0.00  0.00     0.275 HD
HETATM   20  H           1     -22.055  -6.431  -4.208  0.00  0.00     0.275 HD
ENDBRANCH   5  17
ENDBRANCH   3   5
BRANCH   1  21
HETATM   21  C           1     -20.375  -8.551  -4.243  0.00  0.00     0.190 C 
BRANCH  21  22
HETATM   22  C           1     -21.607  -9.086  -3.526  0.00  0.00     0.077 C 
BRANCH  22  23
HETATM   23  C           1     -21.653  -8.535  -2.134  0.00  0.00    -0.028 A 
HETATM   24  C           1     -22.136  -7.301  -1.766  0.00  0.00     0.096 A 
HETATM   25  N           1     -21.998  -7.186  -0.407  0.00  0.00    -0.365 N 
HETATM   26  C           1     -21.432  -8.328   0.112  0.00  0.00     0.042 A 
HETATM   27  H           1     -22.284  -6.348   0.157  0.00  0.00     0.165 HD
HETATM   28  C           1     -21.109  -8.657   1.434  0.00  0.00     0.030 A 
HETATM   29  C           1     -21.205  -9.196  -0.956  0.00  0.00    -0.002 A 
HETATM   30  C           1     -20.534  -9.911   1.667  0.00  0.00     0.002 A 
HETATM   31  C           1     -20.295 -10.798   0.618  0.00  0.00     0.001 A 
HETATM   32  C           1     -20.625 -10.453  -0.698  0.00  0.00     0.014 A 
ENDBRANCH  22  23
ENDBRANCH  21  22
BRANCH  21  33
HETATM   33  C           1     -19.292  -9.602  -4.238  0.00  0.00     0.197 C 
HETATM   34  O           1     -19.589 -10.806  -4.088  0.00  0.00    -0.646 OA
HETATM   35  O           1     -18.096  -9.267  -4.384  0.00  0.00    -0.646 OA
ENDBRANCH  21  33
ENDBRANCH   1  21
TORSDOF 8
ENDMDL
MODEL 7
REMARK VINA RESULT:      -8.3      2.250      3.633
REMARK  8 active torsions:
REMARK  status: ('A' for Active; 'I' for Inactive)
REMARK    1  A    between atoms: C_4  and  C_7 
REMARK    2  A    between atoms: C_4  and  C_20 
REMARK    3  A    between atoms: C_5  and  C_11 
REMARK    4  A    between atoms: C_5  and  C_18 
REMARK    5  A    between atoms: C_7  and  C_12 
REMARK    6  A    between atoms: C_7  and  N_14 
REMARK    7  A    between atoms: C_11  and  C_31 
REMARK    8  A    between atoms: C_11  and  N_24 
REMARK       I    between atoms: N_14  and  C_31 
ROOT
HETATM    1  N           1     -21.010  -6.941  -3.059  0.00  0.00    -0.344 N 
HETATM    2  H           1     -20.573  -6.303  -2.406  0.00  0.00     0.163 HD
HETATM    3  C           1     -21.534  -6.466  -4.232  0.00  0.00     0.249 C 
HETATM    4  O           1     -22.686  -6.108  -4.278  0.00  0.00    -0.271 OA
ENDROOT
BRANCH   3   5
HETATM    5  C           1     -20.670  -6.391  -5.468  0.00  0.00     0.278 C 
BRANCH   5   6
HETATM    6  C           1     -20.552  -4.941  -5.918  0.00  0.00     0.083 C 
BRANCH   6   7
HETATM    7  C           1     -21.541  -4.675  -7.010  0.00  0.00    -0.028 A 
HETATM    8  C           1     -22.893  -4.477  -6.849  0.00  0.00     0.096 A 
HETATM    9  N           1     -23.436  -4.264  -8.089  0.00  0.00    -0.365 N 
HETATM   10  H           1     -24.453  -4.084  -8.277  0.00  0.00     0.165 HD
HETATM   11  C           1     -22.454  -4.321  -9.054  0.00  0.00     0.042 A 
HETATM   12  C           1     -22.542  -4.166 -10.443  0.00  0.00     0.030 A 
HETATM   13  C           1     -21.250  -4.578  -8.399  0.00  0.00    -0.002 A 
HETATM   14  C           1     -21.359  -4.277 -11.180  0.00  0.00     0.002 A 
HETATM   15  C           1     -20.142  -4.534 -10.553  0.00  0.00     0.001 A 
HETATM   16  C           1     -20.072  -4.687  -9.164  0.00  0.00     0.014 A 
ENDBRANCH   6   7
ENDBRANCH   5   6
BRANCH   5  17
HETATM   17  N           1     -21.294  -7.205  -6.562  0.00  0.00    -0.066 N 
HETATM   18  H           1     -21.903  -6.591  -7.149  0.00  0.00     0.275 HD
HETATM   19  H           1     -21.873  -7.968  -6.143  0.00  0.00     0.275 HD
HETATM   20  H           1     -20.544  -7.624  -7.156  0.00  0.00     0.275 HD
ENDBRANCH   5  17
ENDBRANCH   3   5
BRANCH   1  21
HETATM   21  C           1     -21.083  -8.356  -2.753  0.00  0.00     0.190 C 
BRANCH  21  22
HETATM   22  C           1     -19.715  -8.991  -2.966  0.00  0.00     0.077 C 
BRANCH  22  23
HETATM   23  C           1     -19.708  -9.739  -4.263  0.00  0.00    -0.028 A 
HETATM   24  C           1     -18.771  -9.617  -5.264  0.00  0.00     0.096 A 
HETATM   25  N           1     -19.126 -10.471  -6.275  0.00  0.00    -0.365 N 
HETATM   26  C           1     -20.280 -11.147  -5.945  0.00  0.00     0.042 A 
HETATM   27  H           1     -18.595 -10.594  -7.172  0.00  0.00     0.165 HD
HETATM   28  C           1     -21.002 -12.108  -6.662  0.00  0.00     0.030 A 
HETATM   29  C           1     -20.667 -10.704  -4.681  0.00  0.00    -0.002 A 
HETATM   30  C           1     -22.156 -12.628  -6.066  0.00  0.00     0.002 A 
HETATM   31  C           1     -22.566 -12.203  -4.805  0.00  0.00     0.001 A 
HETATM   32  C           1     -21.832 -11.242  -4.100  0.00  0.00     0.014 A 
ENDBRANCH  22  23
ENDBRANCH  21  22
BRANCH  21  33
HETATM   33  C           1     -21.505  -8.537  -1.316  0.00  0.00     0.197 C 
HETATM   34  O           1     -21.832  -7.545  -0.630  0.00  0.00    -0.646 OA
HETATM   35  O           1     -21.531  -9.681  -0.811  0.00  0.00    -0.646 OA
ENDBRANCH  21  33
ENDBRANCH   1  21
TORSDOF 8
ENDMDL
MODEL 8
REMARK VINA RESULT:      -8.3      1.619      8.928
REMARK  8 active torsions:
REMARK  status: ('A' for Active; 'I' for Inactive)
REMARK    1  A    between atoms: C_4  and  C_7 
REMARK    2  A    between atoms: C_4  and  C_20 
REMARK    3  A    between atoms: C_5  and  C_11 
REMARK    4  A    between atoms: C_5  and  C_18 
REMARK    5  A    between atoms: C_7  and  C_12 
REMARK    6  A    between atoms: C_7  and  N_14 
REMARK    7  A    between atoms: C_11  and  C_31 
REMARK    8  A    between atoms: C_11  and  N_24 
REMARK       I    between atoms: N_14  and  C_31 
ROOT
HETATM    1  N           1     -22.218  -5.994  -5.356  0.00  0.00    -0.344 N 
HETATM    2  H           1     -23.135  -5.686  -5.061  0.00  0.00     0.163 HD
HETATM    3  C           1     -21.485  -6.826  -4.552  0.00  0.00     0.249 C 
HETATM    4  O           1     -20.732  -6.363  -3.729  0.00  0.00    -0.271 OA
ENDROOT
BRANCH   3   5
HETATM    5  C           1     -21.617  -8.323  -4.696  0.00  0.00     0.278 C 
BRANCH   5   6
HETATM    6  C           1     -20.711  -9.012  -3.684  0.00  0.00     0.083 C 
BRANCH   6   7
HETATM    7  C           1     -21.546  -9.639  -2.611  0.00  0.00    -0.028 A 
HETATM    8  C           1     -21.943 -10.956  -2.558  0.00  0.00     0.096 A 
HETATM    9  N           1     -22.688 -11.122  -1.420  0.00  0.00    -0.365 N 
HETATM   10  H           1     -23.126 -12.027  -1.115  0.00  0.00     0.165 HD
HETATM   11  C           1     -22.782  -9.932  -0.734  0.00  0.00     0.042 A 
HETATM   12  C           1     -23.436  -9.629   0.467  0.00  0.00     0.030 A 
HETATM   13  C           1     -22.069  -8.981  -1.463  0.00  0.00    -0.002 A 
HETATM   14  C           1     -23.357  -8.313   0.930  0.00  0.00     0.002 A 
HETATM   15  C           1     -22.652  -7.342   0.222  0.00  0.00     0.001 A 
HETATM   16  C           1     -22.004  -7.661  -0.976  0.00  0.00     0.014 A 
ENDBRANCH   6   7
ENDBRANCH   5   6
BRANCH   5  17
HETATM   17  N           1     -21.217  -8.728  -6.083  0.00  0.00    -0.066 N 
HETATM   18  H           1     -22.009  -8.548  -6.740  0.00  0.00     0.275 HD
HETATM   19  H           1     -20.980  -9.747  -6.095  0.00  0.00     0.275 HD
HETATM   20  H           1     -20.383  -8.173  -6.381  0.00  0.00     0.275 HD
ENDBRANCH   5  17
ENDBRANCH   3   5
BRANCH   1  21
HETATM   21  C           1     -21.678  -5.555  -6.628  0.00  0.00     0.190 C 
BRANCH  21  22
HETATM   22  C           1     -22.199  -4.159  -6.944  0.00  0.00     0.077 C 
BRANCH  22  23
HETATM   23  C           1     -22.756  -4.137  -8.333  0.00  0.00    -0.028 A 
HETATM   24  C           1     -24.090  -4.152  -8.673  0.00  0.00     0.096 A 
HETATM   25  N           1     -24.174  -4.122 -10.040  0.00  0.00    -0.365 N 
HETATM   26  C           1     -22.914  -4.086 -10.594  0.00  0.00     0.042 A 
HETATM   27  H           1     -25.070  -4.124 -10.587  0.00  0.00     0.165 HD
HETATM   28  C           1     -22.516  -4.047 -11.936  0.00  0.00     0.030 A 
HETATM   29  C           1     -22.002  -4.094  -9.539  0.00  0.00    -0.002 A 
HETATM   30  C           1     -21.143  -4.016 -12.203  0.00  0.00     0.002 A 
HETATM   31  C           1     -20.210  -4.024 -11.169  0.00  0.00     0.001 A 
HETATM   32  C           1     -20.625  -4.063  -9.832  0.00  0.00     0.014 A 
ENDBRANCH  22  23
ENDBRANCH  21  22
BRANCH  21  33
HETATM   33  C           1     -20.172  -5.525  -6.550  0.00  0.00     0.197 C 
HETATM   34  O           1     -19.503  -6.475  -7.012  0.00  0.00    -0.646 OA
HETATM   35  O           1     -19.592  -4.549  -6.025  0.00  0.00    -0.646 OA
ENDBRANCH  21  33
ENDBRANCH   1  21
TORSDOF 8
ENDMDL
MODEL 9
REMARK VINA RESULT:      -8.2      5.171      6.740
REMARK  8 active torsions:
REMARK  status: ('A' for Active; 'I' for Inactive)
REMARK    1  A    between atoms: C_4  and  C_7 
REMARK    2  A    between atoms: C_4  and  C_20 
REMARK    3  A    between atoms: C_5  and  C_11 
REMARK    4  A    between atoms: C_5  and  C_18 
REMARK    5  A    between atoms: C_7  and  C_12 
REMARK    6  A    between atoms: C_7  and  N_14 
REMARK    7  A    between atoms: C_11  and  C_31 
REMARK    8  A    between atoms: C_11  and  N_24 
REMARK       I    between atoms: N_14  and  C_31 
ROOT
HETATM    1  N           1     -19.080 -10.605  -5.919  0.00  0.00    -0.344 N 
HETATM    2  H           1     -19.482  -9.796  -6.374  0.00  0.00     0.163 HD
HETATM    3  C           1     -17.889 -10.493  -5.253  0.00  0.00     0.249 C 
HETATM    4  O           1     -16.850 -10.683  -5.838  0.00  0.00    -0.271 OA
ENDROOT
BRANCH   3   5
HETATM    5  C           1     -17.875 -10.133  -3.787  0.00  0.00     0.278 C 
BRANCH   5   6
HETATM    6  C           1     -18.991  -9.139  -3.497  0.00  0.00     0.083 C 
BRANCH   6   7
HETATM    7  C           1     -19.658  -9.499  -2.207  0.00  0.00    -0.028 A 
HETATM    8  C           1     -19.416 -10.626  -1.455  0.00  0.00     0.096 A 
HETATM    9  N           1     -20.229 -10.577  -0.353  0.00  0.00    -0.365 N 
HETATM   10  H           1     -20.262 -11.307   0.402  0.00  0.00     0.165 HD
HETATM   11  C           1     -20.996  -9.434  -0.378  0.00  0.00     0.042 A 
HETATM   12  C           1     -21.956  -8.969   0.530  0.00  0.00     0.030 A 
HETATM   13  C           1     -20.654  -8.736  -1.536  0.00  0.00    -0.002 A 
HETATM   14  C           1     -22.584  -7.755   0.239  0.00  0.00     0.002 A 
HETATM   15  C           1     -22.263  -7.036  -0.911  0.00  0.00     0.001 A 
HETATM   16  C           1     -21.301  -7.515  -1.807  0.00  0.00     0.014 A 
ENDBRANCH   6   7
ENDBRANCH   5   6
BRANCH   5  17
HETATM   17  N           1     -16.553  -9.517  -3.438  0.00  0.00    -0.066 N 
HETATM   18  H           1     -16.696  -8.765  -2.727  0.00  0.00     0.275 HD
HETATM   19  H           1     -16.122  -9.106  -4.297  0.00  0.00     0.275 HD
HETATM   20  H           1     -15.919 -10.251  -3.047  0.00  0.00     0.275 HD
ENDBRANCH   5  17
ENDBRANCH   3   5
BRANCH   1  21
HETATM   21  C           1     -19.764 -11.883  -5.972  0.00  0.00     0.190 C 
BRANCH  21  22
HETATM   22  C           1     -21.175 -11.725  -5.421  0.00  0.00     0.077 C 
BRANCH  22  23
HETATM   23  C           1     -21.309 -12.515  -4.156  0.00  0.00    -0.028 A 
HETATM   24  C           1     -20.608 -13.655  -3.834  0.00  0.00     0.096 A 
HETATM   25  N           1     -21.024 -14.065  -2.594  0.00  0.00    -0.365 N 
HETATM   26  C           1     -21.985 -13.208  -2.107  0.00  0.00     0.042 A 
HETATM   27  H           1     -20.662 -14.911  -2.089  0.00  0.00     0.165 HD
HETATM   28  C           1     -22.686 -13.230  -0.896  0.00  0.00     0.030 A 
HETATM   29  C           1     -22.182 -12.221  -3.072  0.00  0.00    -0.002 A 
HETATM   30  C           1     -23.618 -12.212  -0.669  0.00  0.00     0.002 A 
HETATM   31  C           1     -23.836 -11.214  -1.616  0.00  0.00     0.001 A 
HETATM   32  C           1     -23.126 -11.206  -2.822  0.00  0.00     0.014 A 
ENDBRANCH  22  23
ENDBRANCH  21  22
BRANCH  21  33
HETATM   33  C           1     -19.830 -12.356  -7.403  0.00  0.00     0.197 C 
HETATM   34  O           1     -20.762 -13.103  -7.772  0.00  0.00    -0.646 OA
HETATM   35  O           1     -18.953 -12.001  -8.220  0.00  0.00    -0.646 OA
ENDBRANCH  21  33
ENDBRANCH   1  21
TORSDOF 8
ENDMDL
