MODEL 1
REMARK VINA RESULT:      -6.0      0.000      0.000
REMARK  10 active torsions:
REMARK  status: ('A' for Active; 'I' for Inactive)
REMARK    1  A    between atoms: C_2  and  S_16 
REMARK    2  A    between atoms: C_2  and  C_3 
REMARK    3  A    between atoms: C_3  and  C_10 
REMARK    4  A    between atoms: C_4  and  C_15 
REMARK    5  A    between atoms: C_4  and  C_22 
REMARK    6  A    between atoms: C_4  and  N_23 
REMARK    7  A    between atoms: C_9  and  C_10 
REMARK    8  A    between atoms: C_10  and  N_12 
REMARK       I    between atoms: N_12  and  C_15 
REMARK       I    between atoms: N_19  and  C_20 
REMARK    9  A    between atoms: C_20  and  C_21 
REMARK   10  A    between atoms: C_21  and  C_22 
ROOT
HETATM    1  C           1     -33.297  -2.885 -11.488  0.00  0.00     0.275 C 
ENDROOT
BRANCH   1   2
HETATM    2  C           1     -34.371  -2.510 -12.479  0.00  0.00     0.249 C 
HETATM    3  O           1     -34.735  -3.310 -13.308  0.00  0.00    -0.271 OA
HETATM    4  N           1     -34.936  -1.264 -12.437  0.00  0.00    -0.345 N 
HETATM    5  H           1     -34.633  -0.593 -11.742  0.00  0.00     0.163 HD
BRANCH   4   6
HETATM    6  C           1     -35.969  -0.904 -13.389  0.00  0.00     0.186 C 
BRANCH   6   7
HETATM    7  C           1     -37.050  -0.097 -12.682  0.00  0.00     0.046 C 
BRANCH   7   8
HETATM    8  C           1     -36.632   0.160 -11.240  0.00  0.00     0.076 C 
BRANCH   8   9
HETATM    9  S           1     -38.074  -0.007 -10.152  0.00  0.00    -0.173 SA
HETATM   10  C           1     -37.155   0.082  -8.589  0.00  0.00     0.089 C 
ENDBRANCH   8   9
ENDBRANCH   7   8
ENDBRANCH   6   7
BRANCH   6  11
HETATM   11  C           1     -35.365  -0.076 -14.496  0.00  0.00     0.196 C 
HETATM   12  O           1     -35.075  -0.609 -15.588  0.00  0.00    -0.646 OA
HETATM   13  O           1     -35.155   1.144 -14.321  0.00  0.00    -0.646 OA
ENDBRANCH   6  11
ENDBRANCH   4   6
ENDBRANCH   1   2
BRANCH   1  14
HETATM   14  C           1     -33.077  -4.392 -11.522  0.00  0.00     0.052 C 
BRANCH  14  15
HETATM   15  C           1     -33.993  -5.062 -10.507  0.00  0.00     0.105 C 
BRANCH  15  16
HETATM   16  C           1     -34.595  -6.306 -11.117  0.00  0.00     0.215 C 
HETATM   17  N           1     -34.985  -6.305 -12.429  0.00  0.00    -0.370 N 
HETATM   18  H           1     -35.388  -7.138 -12.837  0.00  0.00     0.159 HD
HETATM   19  H           1     -34.870  -5.470 -12.991  0.00  0.00     0.159 HD
HETATM   20  O           1     -34.732  -7.301 -10.447  0.00  0.00    -0.274 OA
ENDBRANCH  15  16
ENDBRANCH  14  15
ENDBRANCH   1  14
BRANCH   1  21
HETATM   21  N           1     -33.722  -2.474 -10.109  0.00  0.00    -0.066 N 
HETATM   22  H           1     -34.617  -2.953  -9.861  0.00  0.00     0.275 HD
HETATM   23  H           1     -32.981  -2.742  -9.422  0.00  0.00     0.275 HD
HETATM   24  H           1     -33.863  -1.438 -10.083  0.00  0.00     0.275 HD
ENDBRANCH   1  21
TORSDOF 10
ENDMDL
MODEL 2
REMARK VINA RESULT:      -6.0      2.606      3.522
REMARK  10 active torsions:
REMARK  status: ('A' for Active; 'I' for Inactive)
REMARK    1  A    between atoms: C_2  and  S_16 
REMARK    2  A    between atoms: C_2  and  C_3 
REMARK    3  A    between atoms: C_3  and  C_10 
REMARK    4  A    between atoms: C_4  and  C_15 
REMARK    5  A    between atoms: C_4  and  C_22 
REMARK    6  A    between atoms: C_4  and  N_23 
REMARK    7  A    between atoms: C_9  and  C_10 
REMARK    8  A    between atoms: C_10  and  N_12 
REMARK       I    between atoms: N_12  and  C_15 
REMARK       I    between atoms: N_19  and  C_20 
REMARK    9  A    between atoms: C_20  and  C_21 
REMARK   10  A    between atoms: C_21  and  C_22 
ROOT
HETATM    1  C           1     -34.554  -4.242 -11.801  0.00  0.00     0.275 C 
ENDROOT
BRANCH   1   2
HETATM    2  C           1     -34.582  -2.782 -11.425  0.00  0.00     0.249 C 
HETATM    3  O           1     -33.854  -2.367 -10.554  0.00  0.00    -0.271 OA
HETATM    4  N           1     -35.432  -1.925 -12.072  0.00  0.00    -0.345 N 
HETATM    5  H           1     -36.042  -2.271 -12.802  0.00  0.00     0.163 HD
BRANCH   4   6
HETATM    6  C           1     -35.459  -0.520 -11.711  0.00  0.00     0.186 C 
BRANCH   6   7
HETATM    7  C           1     -35.462   0.328 -12.976  0.00  0.00     0.046 C 
BRANCH   7   8
HETATM    8  C           1     -36.423  -0.278 -13.990  0.00  0.00     0.076 C 
BRANCH   8   9
HETATM    9  S           1     -36.211   0.548 -15.592  0.00  0.00    -0.173 SA
HETATM   10  C           1     -35.905  -0.959 -16.555  0.00  0.00     0.089 C 
ENDBRANCH   8   9
ENDBRANCH   7   8
ENDBRANCH   6   7
BRANCH   6  11
HETATM   11  C           1     -36.704  -0.232 -10.908  0.00  0.00     0.196 C 
HETATM   12  O           1     -37.697  -0.985 -11.003  0.00  0.00    -0.646 OA
HETATM   13  O           1     -36.741   0.759 -10.147  0.00  0.00    -0.646 OA
ENDBRANCH   6  11
ENDBRANCH   4   6
ENDBRANCH   1   2
BRANCH   1  14
HETATM   14  C           1     -34.348  -5.086 -10.549  0.00  0.00     0.052 C 
BRANCH  14  15
HETATM   15  C           1     -33.617  -6.370 -10.917  0.00  0.00     0.105 C 
BRANCH  15  16
HETATM   16  C           1     -34.255  -7.536 -10.202  0.00  0.00     0.215 C 
HETATM   17  N           1     -33.657  -8.768 -10.232  0.00  0.00    -0.370 N 
HETATM   18  H           1     -34.085  -9.549  -9.753  0.00  0.00     0.159 HD
HETATM   19  H           1     -32.787  -8.896 -10.733  0.00  0.00     0.159 HD
HETATM   20  O           1     -35.293  -7.383  -9.605  0.00  0.00    -0.274 OA
ENDBRANCH  15  16
ENDBRANCH  14  15
ENDBRANCH   1  14
BRANCH   1  21
HETATM   21  N           1     -33.428  -4.490 -12.760  0.00  0.00    -0.066 N 
HETATM   22  H           1     -33.734  -5.172 -13.490  0.00  0.00     0.275 HD
HETATM   23  H           1     -33.154  -3.590 -13.216  0.00  0.00     0.275 HD
HETATM   24  H           1     -32.609  -4.881 -12.241  0.00  0.00     0.275 HD
ENDBRANCH   1  21
TORSDOF 10
ENDMDL
MODEL 3
REMARK VINA RESULT:      -5.6      9.486     11.468
REMARK  10 active torsions:
REMARK  status: ('A' for Active; 'I' for Inactive)
REMARK    1  A    between atoms: C_2  and  S_16 
REMARK    2  A    between atoms: C_2  and  C_3 
REMARK    3  A    between atoms: C_3  and  C_10 
REMARK    4  A    between atoms: C_4  and  C_15 
REMARK    5  A    between atoms: C_4  and  C_22 
REMARK    6  A    between atoms: C_4  and  N_23 
REMARK    7  A    between atoms: C_9  and  C_10 
REMARK    8  A    between atoms: C_10  and  N_12 
REMARK       I    between atoms: N_12  and  C_15 
REMARK       I    between atoms: N_19  and  C_20 
REMARK    9  A    between atoms: C_20  and  C_21 
REMARK   10  A    between atoms: C_21  and  C_22 
ROOT
HETATM    1  C           1     -29.095  -4.695 -17.053  0.00  0.00     0.275 C 
ENDROOT
BRANCH   1   2
HETATM    2  C           1     -28.158  -5.875 -17.109  0.00  0.00     0.249 C 
HETATM    3  O           1     -28.553  -6.976 -16.807  0.00  0.00    -0.271 OA
HETATM    4  N           1     -26.858  -5.699 -17.503  0.00  0.00    -0.345 N 
HETATM    5  H           1     -26.527  -4.777 -17.756  0.00  0.00     0.163 HD
BRANCH   4   6
HETATM    6  C           1     -25.957  -6.834 -17.558  0.00  0.00     0.186 C 
BRANCH   6   7
HETATM    7  C           1     -25.043  -6.697 -18.767  0.00  0.00     0.046 C 
BRANCH   7   8
HETATM    8  C           1     -25.885  -6.569 -20.029  0.00  0.00     0.076 C 
BRANCH   8   9
HETATM    9  S           1     -25.567  -7.987 -21.116  0.00  0.00    -0.173 SA
HETATM   10  C           1     -27.285  -8.568 -21.194  0.00  0.00     0.089 C 
ENDBRANCH   8   9
ENDBRANCH   7   8
ENDBRANCH   6   7
BRANCH   6  11
HETATM   11  C           1     -25.125  -6.876 -16.299  0.00  0.00     0.196 C 
HETATM   12  O           1     -24.505  -7.917 -15.994  0.00  0.00    -0.646 OA
HETATM   13  O           1     -25.057  -5.868 -15.562  0.00  0.00    -0.646 OA
ENDBRANCH   6  11
ENDBRANCH   4   6
ENDBRANCH   1   2
BRANCH   1  14
HETATM   14  C           1     -30.337  -5.068 -16.252  0.00  0.00     0.052 C 
BRANCH  14  15
HETATM   15  C           1     -31.516  -5.248 -17.198  0.00  0.00     0.105 C 
BRANCH  15  16
HETATM   16  C           1     -32.501  -4.122 -16.995  0.00  0.00     0.215 C 
HETATM   17  N           1     -33.519  -4.259 -16.089  0.00  0.00    -0.370 N 
HETATM   18  H           1     -34.179  -3.504 -15.954  0.00  0.00     0.159 HD
HETATM   19  H           1     -33.611  -5.114 -15.556  0.00  0.00     0.159 HD
HETATM   20  O           1     -32.391  -3.102 -17.631  0.00  0.00    -0.274 OA
ENDBRANCH  15  16
ENDBRANCH  14  15
ENDBRANCH   1  14
BRANCH   1  21
HETATM   21  N           1     -29.497  -4.308 -18.445  0.00  0.00    -0.066 N 
HETATM   22  H           1     -28.643  -4.166 -19.029  0.00  0.00     0.275 HD
HETATM   23  H           1     -30.082  -5.069 -18.862  0.00  0.00     0.275 HD
HETATM   24  H           1     -30.050  -3.421 -18.414  0.00  0.00     0.275 HD
ENDBRANCH   1  21
TORSDOF 10
ENDMDL
MODEL 4
REMARK VINA RESULT:      -5.6      1.989      2.766
REMARK  10 active torsions:
REMARK  status: ('A' for Active; 'I' for Inactive)
REMARK    1  A    between atoms: C_2  and  S_16 
REMARK    2  A    between atoms: C_2  and  C_3 
REMARK    3  A    between atoms: C_3  and  C_10 
REMARK    4  A    between atoms: C_4  and  C_15 
REMARK    5  A    between atoms: C_4  and  C_22 
REMARK    6  A    between atoms: C_4  and  N_23 
REMARK    7  A    between atoms: C_9  and  C_10 
REMARK    8  A    between atoms: C_10  and  N_12 
REMARK       I    between atoms: N_12  and  C_15 
REMARK       I    between atoms: N_19  and  C_20 
REMARK    9  A    between atoms: C_20  and  C_21 
REMARK   10  A    between atoms: C_21  and  C_22 
ROOT
HETATM    1  C           1     -34.030  -3.541 -10.600  0.00  0.00     0.275 C 
ENDROOT
BRANCH   1   2
HETATM    2  C           1     -35.343  -2.830 -10.816  0.00  0.00     0.249 C 
HETATM    3  O           1     -36.384  -3.421 -10.651  0.00  0.00    -0.271 OA
HETATM    4  N           1     -35.355  -1.516 -11.197  0.00  0.00    -0.345 N 
HETATM    5  H           1     -34.483  -1.020 -11.334  0.00  0.00     0.163 HD
BRANCH   4   6
HETATM    6  C           1     -36.618  -0.832 -11.403  0.00  0.00     0.186 C 
BRANCH   6   7
HETATM    7  C           1     -36.711   0.356 -10.456  0.00  0.00     0.046 C 
BRANCH   7   8
HETATM    8  C           1     -37.468  -0.054  -9.200  0.00  0.00     0.076 C 
BRANCH   8   9
HETATM    9  S           1     -38.073   1.429  -8.345  0.00  0.00    -0.173 SA
HETATM   10  C           1     -37.171   1.147  -6.795  0.00  0.00     0.089 C 
ENDBRANCH   8   9
ENDBRANCH   7   8
ENDBRANCH   6   7
BRANCH   6  11
HETATM   11  C           1     -36.698  -0.347 -12.830  0.00  0.00     0.196 C 
HETATM   12  O           1     -37.614  -0.752 -13.577  0.00  0.00    -0.646 OA
HETATM   13  O           1     -35.848   0.461 -13.264  0.00  0.00    -0.646 OA
ENDBRANCH   6  11
ENDBRANCH   4   6
ENDBRANCH   1   2
BRANCH   1  14
HETATM   14  C           1     -33.199  -3.474 -11.876  0.00  0.00     0.052 C 
BRANCH  14  15
HETATM   15  C           1     -33.744  -4.471 -12.889  0.00  0.00     0.105 C 
BRANCH  15  16
HETATM   16  C           1     -34.066  -3.754 -14.178  0.00  0.00     0.215 C 
HETATM   17  N           1     -33.607  -4.249 -15.370  0.00  0.00    -0.370 N 
HETATM   18  H           1     -33.824  -3.769 -16.233  0.00  0.00     0.159 HD
HETATM   19  H           1     -33.052  -5.095 -15.386  0.00  0.00     0.159 HD
HETATM   20  O           1     -34.729  -2.745 -14.158  0.00  0.00    -0.274 OA
ENDBRANCH  15  16
ENDBRANCH  14  15
ENDBRANCH   1  14
BRANCH   1  21
HETATM   21  N           1     -34.288  -4.975 -10.248  0.00  0.00    -0.066 N 
HETATM   22  H           1     -35.133  -5.315 -10.759  0.00  0.00     0.275 HD
HETATM   23  H           1     -33.460  -5.555 -10.518  0.00  0.00     0.275 HD
HETATM   24  H           1     -34.448  -5.057  -9.218  0.00  0.00     0.275 HD
ENDBRANCH   1  21
TORSDOF 10
ENDMDL
MODEL 5
REMARK VINA RESULT:      -5.6     14.172     16.389
REMARK  10 active torsions:
REMARK  status: ('A' for Active; 'I' for Inactive)
REMARK    1  A    between atoms: C_2  and  S_16 
REMARK    2  A    between atoms: C_2  and  C_3 
REMARK    3  A    between atoms: C_3  and  C_10 
REMARK    4  A    between atoms: C_4  and  C_15 
REMARK    5  A    between atoms: C_4  and  C_22 
REMARK    6  A    between atoms: C_4  and  N_23 
REMARK    7  A    between atoms: C_9  and  C_10 
REMARK    8  A    between atoms: C_10  and  N_12 
REMARK       I    between atoms: N_12  and  C_15 
REMARK       I    between atoms: N_19  and  C_20 
REMARK    9  A    between atoms: C_20  and  C_21 
REMARK   10  A    between atoms: C_21  and  C_22 
ROOT
HETATM    1  C           1     -21.621  -4.742  -8.303  0.00  0.00     0.275 C 
ENDROOT
BRANCH   1   2
HETATM    2  C           1     -21.077  -5.139  -6.953  0.00  0.00     0.249 C 
HETATM    3  O           1     -20.385  -4.369  -6.329  0.00  0.00    -0.271 OA
HETATM    4  N           1     -21.369  -6.371  -6.433  0.00  0.00    -0.345 N 
HETATM    5  H           1     -21.950  -7.016  -6.954  0.00  0.00     0.163 HD
BRANCH   4   6
HETATM    6  C           1     -20.848  -6.752  -5.134  0.00  0.00     0.186 C 
BRANCH   6   7
HETATM    7  C           1     -21.954  -6.648  -4.093  0.00  0.00     0.046 C 
BRANCH   7   8
HETATM    8  C           1     -21.399  -6.016  -2.823  0.00  0.00     0.076 C 
BRANCH   8   9
HETATM    9  S           1     -22.177  -6.785  -1.375  0.00  0.00    -0.173 SA
HETATM   10  C           1     -20.971  -8.130  -1.192  0.00  0.00     0.089 C 
ENDBRANCH   8   9
ENDBRANCH   7   8
ENDBRANCH   6   7
BRANCH   6  11
HETATM   11  C           1     -20.344  -8.174  -5.193  0.00  0.00     0.196 C 
HETATM   12  O           1     -19.290  -8.437  -5.810  0.00  0.00    -0.646 OA
HETATM   13  O           1     -20.981  -9.086  -4.624  0.00  0.00    -0.646 OA
ENDBRANCH   6  11
ENDBRANCH   4   6
ENDBRANCH   1   2
BRANCH   1  14
HETATM   14  C           1     -20.569  -3.939  -9.059  0.00  0.00     0.052 C 
BRANCH  14  15
HETATM   15  C           1     -20.410  -4.506 -10.463  0.00  0.00     0.105 C 
BRANCH  15  16
HETATM   16  C           1     -21.463  -3.913 -11.368  0.00  0.00     0.215 C 
HETATM   17  N           1     -22.352  -4.733 -12.011  0.00  0.00    -0.370 N 
HETATM   18  H           1     -23.057  -4.335 -12.617  0.00  0.00     0.159 HD
HETATM   19  H           1     -22.303  -5.735 -11.879  0.00  0.00     0.159 HD
HETATM   20  O           1     -21.521  -2.718 -11.525  0.00  0.00    -0.274 OA
ENDBRANCH  15  16
ENDBRANCH  14  15
ENDBRANCH   1  14
BRANCH   1  21
HETATM   21  N           1     -22.852  -3.905  -8.121  0.00  0.00    -0.066 N 
HETATM   22  H           1     -22.733  -3.284  -7.289  0.00  0.00     0.275 HD
HETATM   23  H           1     -23.004  -3.320  -8.974  0.00  0.00     0.275 HD
HETATM   24  H           1     -23.678  -4.529  -7.974  0.00  0.00     0.275 HD
ENDBRANCH   1  21
TORSDOF 10
ENDMDL
MODEL 6
REMARK VINA RESULT:      -5.4     13.614     15.851
REMARK  10 active torsions:
REMARK  status: ('A' for Active; 'I' for Inactive)
REMARK    1  A    between atoms: C_2  and  S_16 
REMARK    2  A    between atoms: C_2  and  C_3 
REMARK    3  A    between atoms: C_3  and  C_10 
REMARK    4  A    between atoms: C_4  and  C_15 
REMARK    5  A    between atoms: C_4  and  C_22 
REMARK    6  A    between atoms: C_4  and  N_23 
REMARK    7  A    between atoms: C_9  and  C_10 
REMARK    8  A    between atoms: C_10  and  N_12 
REMARK       I    between atoms: N_12  and  C_15 
REMARK       I    between atoms: N_19  and  C_20 
REMARK    9  A    between atoms: C_20  and  C_21 
REMARK   10  A    between atoms: C_21  and  C_22 
ROOT
HETATM    1  C           1     -21.290  -3.983  -8.091  0.00  0.00     0.275 C 
ENDROOT
BRANCH   1   2
HETATM    2  C           1     -20.773  -4.708  -6.873  0.00  0.00     0.249 C 
HETATM    3  O           1     -19.654  -4.491  -6.470  0.00  0.00    -0.271 OA
HETATM    4  N           1     -21.571  -5.610  -6.224  0.00  0.00    -0.345 N 
HETATM    5  H           1     -22.508  -5.791  -6.560  0.00  0.00     0.163 HD
BRANCH   4   6
HETATM    6  C           1     -21.075  -6.306  -5.052  0.00  0.00     0.186 C 
BRANCH   6   7
HETATM    7  C           1     -22.197  -6.447  -4.032  0.00  0.00     0.046 C 
BRANCH   7   8
HETATM    8  C           1     -21.649  -6.185  -2.636  0.00  0.00     0.076 C 
BRANCH   8   9
HETATM    9  S           1     -21.377  -7.766  -1.786  0.00  0.00    -0.173 SA
HETATM   10  C           1     -22.455  -7.418  -0.368  0.00  0.00     0.089 C 
ENDBRANCH   8   9
ENDBRANCH   7   8
ENDBRANCH   6   7
BRANCH   6  11
HETATM   11  C           1     -20.584  -7.676  -5.454  0.00  0.00     0.196 C 
HETATM   12  O           1     -21.291  -8.404  -6.183  0.00  0.00    -0.646 OA
HETATM   13  O           1     -19.470  -8.082  -5.056  0.00  0.00    -0.646 OA
ENDBRANCH   6  11
ENDBRANCH   4   6
ENDBRANCH   1   2
BRANCH   1  14
HETATM   14  C           1     -22.566  -4.656  -8.581  0.00  0.00     0.052 C 
BRANCH  14  15
HETATM   15  C           1     -23.588  -3.594  -8.961  0.00  0.00     0.105 C 
BRANCH  15  16
HETATM   16  C           1     -24.154  -3.904 -10.325  0.00  0.00     0.215 C 
HETATM   17  N           1     -23.639  -4.938 -11.061  0.00  0.00    -0.370 N 
HETATM   18  H           1     -24.019  -5.146 -11.975  0.00  0.00     0.159 HD
HETATM   19  H           1     -22.879  -5.494 -10.690  0.00  0.00     0.159 HD
HETATM   20  O           1     -25.061  -3.241 -10.768  0.00  0.00    -0.274 OA
ENDBRANCH  15  16
ENDBRANCH  14  15
ENDBRANCH   1  14
BRANCH   1  21
HETATM   21  N           1     -20.256  -4.025  -9.176  0.00  0.00    -0.066 N 
HETATM   22  H           1     -20.233  -4.978  -9.602  0.00  0.00     0.275 HD
HETATM   23  H           1     -20.494  -3.320  -9.911  0.00  0.00     0.275 HD
HETATM   24  H           1     -19.318  -3.803  -8.771  0.00  0.00     0.275 HD
ENDBRANCH   1  21
TORSDOF 10
ENDMDL
MODEL 7
REMARK VINA RESULT:      -5.4     14.504     16.982
REMARK  10 active torsions:
REMARK  status: ('A' for Active; 'I' for Inactive)
REMARK    1  A    between atoms: C_2  and  S_16 
REMARK    2  A    between atoms: C_2  and  C_3 
REMARK    3  A    between atoms: C_3  and  C_10 
REMARK    4  A    between atoms: C_4  and  C_15 
REMARK    5  A    between atoms: C_4  and  C_22 
REMARK    6  A    between atoms: C_4  and  N_23 
REMARK    7  A    between atoms: C_9  and  C_10 
REMARK    8  A    between atoms: C_10  and  N_12 
REMARK       I    between atoms: N_12  and  C_15 
REMARK       I    between atoms: N_19  and  C_20 
REMARK    9  A    between atoms: C_20  and  C_21 
REMARK   10  A    between atoms: C_21  and  C_22 
ROOT
HETATM    1  C           1     -20.439  -5.023  -6.554  0.00  0.00     0.275 C 
ENDROOT
BRANCH   1   2
HETATM    2  C           1     -21.358  -5.795  -5.640  0.00  0.00     0.249 C 
HETATM    3  O           1     -22.549  -5.595  -5.670  0.00  0.00    -0.271 OA
HETATM    4  N           1     -20.842  -6.726  -4.778  0.00  0.00    -0.345 N 
HETATM    5  H           1     -19.845  -6.895  -4.753  0.00  0.00     0.163 HD
BRANCH   4   6
HETATM    6  C           1     -21.726  -7.469  -3.900  0.00  0.00     0.186 C 
BRANCH   6   7
HETATM    7  C           1     -21.298  -8.930  -3.870  0.00  0.00     0.046 C 
BRANCH   7   8
HETATM    8  C           1     -20.296  -9.189  -4.987  0.00  0.00     0.076 C 
BRANCH   8   9
HETATM    9  S           1     -19.080 -10.419  -4.437  0.00  0.00    -0.173 SA
HETATM   10  C           1     -18.311  -9.382  -3.161  0.00  0.00     0.089 C 
ENDBRANCH   8   9
ENDBRANCH   7   8
ENDBRANCH   6   7
BRANCH   6  11
HETATM   11  C           1     -21.650  -6.893  -2.507  0.00  0.00     0.196 C 
HETATM   12  O           1     -22.346  -5.901  -2.203  0.00  0.00    -0.646 OA
HETATM   13  O           1     -20.890  -7.409  -1.659  0.00  0.00    -0.646 OA
ENDBRANCH   6  11
ENDBRANCH   4   6
ENDBRANCH   1   2
BRANCH   1  14
HETATM   14  C           1     -21.181  -3.821  -7.124  0.00  0.00     0.052 C 
BRANCH  14  15
HETATM   15  C           1     -21.394  -4.018  -8.619  0.00  0.00     0.105 C 
BRANCH  15  16
HETATM   16  C           1     -22.857  -3.844  -8.947  0.00  0.00     0.215 C 
HETATM   17  N           1     -23.806  -4.067  -7.985  0.00  0.00    -0.370 N 
HETATM   18  H           1     -24.786  -3.951  -8.206  0.00  0.00     0.159 HD
HETATM   19  H           1     -23.526  -4.350  -7.054  0.00  0.00     0.159 HD
HETATM   20  O           1     -23.191  -3.507 -10.058  0.00  0.00    -0.274 OA
ENDBRANCH  15  16
ENDBRANCH  14  15
ENDBRANCH   1  14
BRANCH   1  21
HETATM   21  N           1     -19.988  -5.910  -7.676  0.00  0.00    -0.066 N 
HETATM   22  H           1     -20.192  -6.906  -7.439  0.00  0.00     0.275 HD
HETATM   23  H           1     -20.497  -5.648  -8.552  0.00  0.00     0.275 HD
HETATM   24  H           1     -18.959  -5.790  -7.822  0.00  0.00     0.275 HD
ENDBRANCH   1  21
TORSDOF 10
ENDMDL
MODEL 8
REMARK VINA RESULT:      -5.2     10.495     12.369
REMARK  10 active torsions:
REMARK  status: ('A' for Active; 'I' for Inactive)
REMARK    1  A    between atoms: C_2  and  S_16 
REMARK    2  A    between atoms: C_2  and  C_3 
REMARK    3  A    between atoms: C_3  and  C_10 
REMARK    4  A    between atoms: C_4  and  C_15 
REMARK    5  A    between atoms: C_4  and  C_22 
REMARK    6  A    between atoms: C_4  and  N_23 
REMARK    7  A    between atoms: C_9  and  C_10 
REMARK    8  A    between atoms: C_10  and  N_12 
REMARK       I    between atoms: N_12  and  C_15 
REMARK       I    between atoms: N_19  and  C_20 
REMARK    9  A    between atoms: C_20  and  C_21 
REMARK   10  A    between atoms: C_21  and  C_22 
ROOT
HETATM    1  C           1     -28.433  -6.263 -16.688  0.00  0.00     0.275 C 
ENDROOT
BRANCH   1   2
HETATM    2  C           1     -28.460  -6.348 -18.194  0.00  0.00     0.249 C 
HETATM    3  O           1     -29.448  -6.010 -18.801  0.00  0.00    -0.271 OA
HETATM    4  N           1     -27.363  -6.806 -18.873  0.00  0.00    -0.345 N 
HETATM    5  H           1     -26.534  -7.088 -18.365  0.00  0.00     0.163 HD
BRANCH   4   6
HETATM    6  C           1     -27.388  -6.887 -20.321  0.00  0.00     0.186 C 
BRANCH   6   7
HETATM    7  C           1     -26.012  -6.536 -20.872  0.00  0.00     0.046 C 
BRANCH   7   8
HETATM    8  C           1     -24.945  -6.921 -19.856  0.00  0.00     0.076 C 
BRANCH   8   9
HETATM    9  S           1     -23.763  -8.065 -20.623  0.00  0.00    -0.173 SA
HETATM   10  C           1     -24.105  -7.583 -22.340  0.00  0.00     0.089 C 
ENDBRANCH   8   9
ENDBRANCH   7   8
ENDBRANCH   6   7
BRANCH   6  11
HETATM   11  C           1     -27.755  -8.290 -20.739  0.00  0.00     0.196 C 
HETATM   12  O           1     -28.741  -8.858 -20.223  0.00  0.00    -0.646 OA
HETATM   13  O           1     -27.072  -8.883 -21.602  0.00  0.00    -0.646 OA
ENDBRANCH   6  11
ENDBRANCH   4   6
ENDBRANCH   1   2
BRANCH   1  14
HETATM   14  C           1     -29.130  -4.985 -16.238  0.00  0.00     0.052 C 
BRANCH  14  15
HETATM   15  C           1     -28.393  -3.778 -16.802  0.00  0.00     0.105 C 
BRANCH  15  16
HETATM   16  C           1     -29.391  -2.792 -17.359  0.00  0.00     0.215 C 
HETATM   17  N           1     -30.525  -3.243 -17.981  0.00  0.00    -0.370 N 
HETATM   18  H           1     -31.193  -2.582 -18.354  0.00  0.00     0.159 HD
HETATM   19  H           1     -30.692  -4.237 -18.068  0.00  0.00     0.159 HD
HETATM   20  O           1     -29.191  -1.606 -17.254  0.00  0.00    -0.274 OA
ENDBRANCH  15  16
ENDBRANCH  14  15
ENDBRANCH   1  14
BRANCH   1  21
HETATM   21  N           1     -27.010  -6.249 -16.212  0.00  0.00    -0.066 N 
HETATM   22  H           1     -26.970  -6.573 -15.220  0.00  0.00     0.275 HD
HETATM   23  H           1     -26.437  -6.885 -16.812  0.00  0.00     0.275 HD
HETATM   24  H           1     -26.632  -5.276 -16.276  0.00  0.00     0.275 HD
ENDBRANCH   1  21
TORSDOF 10
ENDMDL
MODEL 9
REMARK VINA RESULT:      -5.0      2.678      3.866
REMARK  10 active torsions:
REMARK  status: ('A' for Active; 'I' for Inactive)
REMARK    1  A    between atoms: C_2  and  S_16 
REMARK    2  A    between atoms: C_2  and  C_3 
REMARK    3  A    between atoms: C_3  and  C_10 
REMARK    4  A    between atoms: C_4  and  C_15 
REMARK    5  A    between atoms: C_4  and  C_22 
REMARK    6  A    between atoms: C_4  and  N_23 
REMARK    7  A    between atoms: C_9  and  C_10 
REMARK    8  A    between atoms: C_10  and  N_12 
REMARK       I    between atoms: N_12  and  C_15 
REMARK       I    between atoms: N_19  and  C_20 
REMARK    9  A    between atoms: C_20  and  C_21 
REMARK   10  A    between atoms: C_21  and  C_22 
ROOT
HETATM    1  C           1     -33.917  -3.769 -11.206  0.00  0.00     0.275 C 
ENDROOT
BRANCH   1   2
HETATM    2  C           1     -34.246  -2.313 -10.986  0.00  0.00     0.249 C 
HETATM    3  O           1     -33.584  -1.652 -10.222  0.00  0.00    -0.271 OA
HETATM    4  N           1     -35.295  -1.741 -11.655  0.00  0.00    -0.345 N 
HETATM    5  H           1     -35.849  -2.294 -12.296  0.00  0.00     0.163 HD
BRANCH   4   6
HETATM    6  C           1     -35.611  -0.341 -11.445  0.00  0.00     0.186 C 
BRANCH   6   7
HETATM    7  C           1     -35.374   0.431 -12.736  0.00  0.00     0.046 C 
BRANCH   7   8
HETATM    8  C           1     -35.510  -0.511 -13.924  0.00  0.00     0.076 C 
BRANCH   8   9
HETATM    9  S           1     -36.925  -0.003 -14.942  0.00  0.00    -0.173 SA
HETATM   10  C           1     -36.347  -0.769 -16.483  0.00  0.00     0.089 C 
ENDBRANCH   8   9
ENDBRANCH   7   8
ENDBRANCH   6   7
BRANCH   6  11
HETATM   11  C           1     -37.058  -0.209 -11.038  0.00  0.00     0.196 C 
HETATM   12  O           1     -37.877  -1.101 -11.346  0.00  0.00    -0.646 OA
HETATM   13  O           1     -37.437   0.792 -10.392  0.00  0.00    -0.646 OA
ENDBRANCH   6  11
ENDBRANCH   4   6
ENDBRANCH   1   2
BRANCH   1  14
HETATM   14  C           1     -33.485  -3.980 -12.652  0.00  0.00     0.052 C 
BRANCH  14  15
HETATM   15  C           1     -34.539  -4.803 -13.381  0.00  0.00     0.105 C 
BRANCH  15  16
HETATM   16  C           1     -34.474  -4.507 -14.860  0.00  0.00     0.215 C 
HETATM   17  N           1     -34.648  -5.517 -15.768  0.00  0.00    -0.370 N 
HETATM   18  H           1     -34.605  -5.318 -16.759  0.00  0.00     0.159 HD
HETATM   19  H           1     -34.819  -6.462 -15.448  0.00  0.00     0.159 HD
HETATM   20  O           1     -34.270  -3.380 -15.242  0.00  0.00    -0.274 OA
ENDBRANCH  15  16
ENDBRANCH  14  15
ENDBRANCH   1  14
BRANCH   1  21
HETATM   21  N           1     -35.128  -4.605 -10.919  0.00  0.00    -0.066 N 
HETATM   22  H           1     -35.591  -4.869 -11.817  0.00  0.00     0.275 HD
HETATM   23  H           1     -34.840  -5.471 -10.408  0.00  0.00     0.275 HD
HETATM   24  H           1     -35.797  -4.059 -10.330  0.00  0.00     0.275 HD
ENDBRANCH   1  21
TORSDOF 10
ENDMDL
