MODEL 1
REMARK VINA RESULT:      -5.4      0.000      0.000
REMARK  5 active torsions:
REMARK  status: ('A' for Active; 'I' for Inactive)
REMARK    1  A    between atoms: C_2  and  C_7 
REMARK    2  A    between atoms: C_7  and  C_8 
REMARK    3  A    between atoms: C_7  and  N_15 
REMARK    4  A    between atoms: C_8  and  Se_12 
REMARK       I    between atoms: C_9  and  N_15 
REMARK    5  A    between atoms: C_9  and  C_10 
ROOT
HETATM    1  C           1     -27.401  -6.221 -19.525  0.00  0.00     0.251 C 
HETATM    2  H           1     -26.288  -7.656 -18.533  0.00  0.00     0.163 HD
HETATM    3  N           1     -26.310  -7.022 -19.322  0.00  0.00    -0.345 N 
HETATM    4  O           1     -27.428  -5.463 -20.465  0.00  0.00    -0.271 OA
ENDROOT
BRANCH   3   5
HETATM    5  C           1     -25.187  -6.964 -20.236  0.00  0.00     0.185 C 
BRANCH   5   6
HETATM    6  C           1     -25.374  -7.989 -21.327  0.00  0.00     0.196 C 
HETATM    7  O           1     -24.479  -8.160 -22.184  0.00  0.00    -0.646 OA
HETATM    8  O           1     -26.423  -8.667 -21.375  0.00  0.00    -0.646 OA
ENDBRANCH   5   6
BRANCH   5   9
HETATM    9  C           1     -23.899  -7.260 -19.478  0.00  0.00     0.039 C 
BRANCH   9  10
HETATM   10 Se           1     -24.243  -7.196 -17.560  0.00  0.00     0.000 Se
HETATM   11  H           1     -22.858  -7.528 -17.184  0.00  0.00     0.000 HD
ENDBRANCH   9  10
ENDBRANCH   5   9
ENDBRANCH   3   5
BRANCH   1  12
HETATM   12  C           1     -28.570  -6.281 -18.572  0.00  0.00     0.311 C 
HETATM   13  C           1     -29.229  -4.919 -18.439  0.00  0.00     0.047 C 
HETATM   14  C           1     -28.586  -4.285 -17.210  0.00  0.00     0.033 C 
HETATM   15  C           1     -27.599  -5.321 -16.701  0.00  0.00     0.271 C 
HETATM   16  N           1     -28.121  -6.584 -17.216  0.00  0.00     0.097 N 
HETATM   17  H           1     -28.902  -6.891 -16.637  0.00  0.00     0.317 HD
ENDBRANCH   1  12
TORSDOF 5
ENDMDL
MODEL 2
REMARK VINA RESULT:      -5.1      2.751      3.366
REMARK  5 active torsions:
REMARK  status: ('A' for Active; 'I' for Inactive)
REMARK    1  A    between atoms: C_2  and  C_7 
REMARK    2  A    between atoms: C_7  and  C_8 
REMARK    3  A    between atoms: C_7  and  N_15 
REMARK    4  A    between atoms: C_8  and  Se_12 
REMARK       I    between atoms: C_9  and  N_15 
REMARK    5  A    between atoms: C_9  and  C_10 
ROOT
HETATM    1  C           1     -27.965  -5.033 -17.555  0.00  0.00     0.251 C 
HETATM    2  H           1     -27.406  -6.910 -18.220  0.00  0.00     0.163 HD
HETATM    3  N           1     -27.160  -6.138 -17.614  0.00  0.00    -0.345 N 
HETATM    4  O           1     -27.673  -4.111 -16.831  0.00  0.00    -0.271 OA
ENDROOT
BRANCH   3   5
HETATM    5  C           1     -25.956  -6.203 -16.811  0.00  0.00     0.185 C 
BRANCH   5   6
HETATM    6  C           1     -24.849  -6.840 -17.614  0.00  0.00     0.196 C 
HETATM    7  O           1     -24.752  -6.607 -18.839  0.00  0.00    -0.646 OA
HETATM    8  O           1     -24.029  -7.601 -17.055  0.00  0.00    -0.646 OA
ENDBRANCH   5   6
BRANCH   5   9
HETATM    9  C           1     -26.222  -7.036 -15.564  0.00  0.00     0.039 C 
BRANCH   9  10
HETATM   10 Se           1     -28.107  -7.531 -15.500  0.00  0.00     0.000 Se
HETATM   11  H           1     -28.040  -8.391 -16.693  0.00  0.00     0.000 HD
ENDBRANCH   9  10
ENDBRANCH   5   9
ENDBRANCH   3   5
BRANCH   1  12
HETATM   12  C           1     -29.220  -4.966 -18.391  0.00  0.00     0.311 C 
HETATM   13  C           1     -30.135  -3.855 -17.904  0.00  0.00     0.047 C 
HETATM   14  C           1     -31.111  -4.536 -16.950  0.00  0.00     0.033 C 
HETATM   15  C           1     -30.707  -6.000 -16.948  0.00  0.00     0.271 C 
HETATM   16  N           1     -30.021  -6.175 -18.225  0.00  0.00     0.097 N 
HETATM   17  H           1     -30.709  -6.258 -18.973  0.00  0.00     0.317 HD
ENDBRANCH   1  12
TORSDOF 5
ENDMDL
MODEL 3
REMARK VINA RESULT:      -4.9     14.308     15.581
REMARK  5 active torsions:
REMARK  status: ('A' for Active; 'I' for Inactive)
REMARK    1  A    between atoms: C_2  and  C_7 
REMARK    2  A    between atoms: C_7  and  C_8 
REMARK    3  A    between atoms: C_7  and  N_15 
REMARK    4  A    between atoms: C_8  and  Se_12 
REMARK       I    between atoms: C_9  and  N_15 
REMARK    5  A    between atoms: C_9  and  C_10 
ROOT
HETATM    1  C           1     -21.453  -5.338  -5.744  0.00  0.00     0.251 C 
HETATM    2  H           1     -19.723  -5.964  -4.799  0.00  0.00     0.163 HD
HETATM    3  N           1     -20.714  -6.133  -4.911  0.00  0.00    -0.345 N 
HETATM    4  O           1     -22.637  -5.540  -5.880  0.00  0.00    -0.271 OA
ENDROOT
BRANCH   3   5
HETATM    5  C           1     -21.349  -7.217  -4.190  0.00  0.00     0.185 C 
BRANCH   5   6
HETATM    6  C           1     -21.542  -6.817  -2.748  0.00  0.00     0.196 C 
HETATM    7  O           1     -20.808  -7.304  -1.860  0.00  0.00    -0.646 OA
HETATM    8  O           1     -22.434  -5.997  -2.441  0.00  0.00    -0.646 OA
ENDBRANCH   5   6
BRANCH   5   9
HETATM    9  C           1     -20.469  -8.459  -4.258  0.00  0.00     0.039 C 
BRANCH   9  10
HETATM   10 Se           1     -21.576 -10.053  -4.075  0.00  0.00     0.000 Se
HETATM   11  H           1     -20.735 -10.879  -4.957  0.00  0.00     0.000 HD
ENDBRANCH   9  10
ENDBRANCH   5   9
ENDBRANCH   3   5
BRANCH   1  12
HETATM   12  C           1     -20.791  -4.209  -6.496  0.00  0.00     0.311 C 
HETATM   13  C           1     -21.683  -3.712  -7.621  0.00  0.00     0.047 C 
HETATM   14  C           1     -21.221  -4.472  -8.859  0.00  0.00     0.033 C 
HETATM   15  C           1     -20.084  -5.357  -8.380  0.00  0.00     0.271 C 
HETATM   16  N           1     -19.591  -4.677  -7.185  0.00  0.00     0.097 N 
HETATM   17  H           1     -19.002  -3.891  -7.459  0.00  0.00     0.317 HD
ENDBRANCH   1  12
TORSDOF 5
ENDMDL
MODEL 4
REMARK VINA RESULT:      -4.7      3.173      3.864
REMARK  5 active torsions:
REMARK  status: ('A' for Active; 'I' for Inactive)
REMARK    1  A    between atoms: C_2  and  C_7 
REMARK    2  A    between atoms: C_7  and  C_8 
REMARK    3  A    between atoms: C_7  and  N_15 
REMARK    4  A    between atoms: C_8  and  Se_12 
REMARK       I    between atoms: C_9  and  N_15 
REMARK    5  A    between atoms: C_9  and  C_10 
ROOT
HETATM    1  C           1     -27.906  -5.972 -16.485  0.00  0.00     0.251 C 
HETATM    2  H           1     -26.318  -4.866 -17.218  0.00  0.00     0.163 HD
HETATM    3  N           1     -26.657  -5.798 -17.019  0.00  0.00    -0.345 N 
HETATM    4  O           1     -28.312  -7.084 -16.247  0.00  0.00    -0.271 OA
ENDROOT
BRANCH   3   5
HETATM    5  C           1     -25.821  -6.949 -17.297  0.00  0.00     0.185 C 
BRANCH   5   6
HETATM    6  C           1     -24.922  -7.215 -16.116  0.00  0.00     0.196 C 
HETATM    7  O           1     -25.014  -6.507 -15.088  0.00  0.00    -0.646 OA
HETATM    8  O           1     -24.085  -8.143 -16.164  0.00  0.00    -0.646 OA
ENDBRANCH   5   6
BRANCH   5   9
HETATM    9  C           1     -24.971  -6.672 -18.530  0.00  0.00     0.039 C 
BRANCH   9  10
HETATM   10 Se           1     -26.085  -6.774 -20.127  0.00  0.00     0.000 Se
HETATM   11  H           1     -26.278  -8.231 -20.039  0.00  0.00     0.000 HD
ENDBRANCH   9  10
ENDBRANCH   5   9
ENDBRANCH   3   5
BRANCH   1  12
HETATM   12  C           1     -28.776  -4.773 -16.195  0.00  0.00     0.311 C 
HETATM   13  C           1     -30.239  -5.176 -16.109  0.00  0.00     0.047 C 
HETATM   14  C           1     -30.800  -4.929 -17.505  0.00  0.00     0.033 C 
HETATM   15  C           1     -29.632  -4.391 -18.313  0.00  0.00     0.271 C 
HETATM   16  N           1     -28.741  -3.824 -17.304  0.00  0.00     0.097 N 
HETATM   17  H           1     -29.094  -2.913 -17.012  0.00  0.00     0.317 HD
ENDBRANCH   1  12
TORSDOF 5
ENDMDL
MODEL 5
REMARK VINA RESULT:      -4.7     16.954     18.188
REMARK  5 active torsions:
REMARK  status: ('A' for Active; 'I' for Inactive)
REMARK    1  A    between atoms: C_2  and  C_7 
REMARK    2  A    between atoms: C_7  and  C_8 
REMARK    3  A    between atoms: C_7  and  N_15 
REMARK    4  A    between atoms: C_8  and  Se_12 
REMARK       I    between atoms: C_9  and  N_15 
REMARK    5  A    between atoms: C_9  and  C_10 
ROOT
HETATM    1  C           1     -20.840  -8.760  -1.626  0.00  0.00     0.251 C 
HETATM    2  H           1     -22.500  -9.044  -2.827  0.00  0.00     0.163 HD
HETATM    3  N           1     -21.600  -8.589  -2.752  0.00  0.00    -0.345 N 
HETATM    4  O           1     -19.764  -8.218  -1.535  0.00  0.00    -0.271 OA
ENDROOT
BRANCH   3   5
HETATM    5  C           1     -21.115  -7.757  -3.834  0.00  0.00     0.185 C 
BRANCH   5   6
HETATM    6  C           1     -21.918  -6.481  -3.886  0.00  0.00     0.196 C 
HETATM    7  O           1     -22.156  -5.936  -4.987  0.00  0.00    -0.646 OA
HETATM    8  O           1     -22.347  -5.969  -2.829  0.00  0.00    -0.646 OA
ENDBRANCH   5   6
BRANCH   5   9
HETATM    9  C           1     -21.263  -8.503  -5.154  0.00  0.00     0.039 C 
BRANCH   9  10
HETATM   10 Se           1     -20.366 -10.230  -5.030  0.00  0.00     0.000 Se
HETATM   11  H           1     -19.094  -9.739  -5.587  0.00  0.00     0.000 HD
ENDBRANCH   9  10
ENDBRANCH   5   9
ENDBRANCH   3   5
BRANCH   1  12
HETATM   12  C           1     -21.345  -9.627  -0.499  0.00  0.00     0.311 C 
HETATM   13  C           1     -22.862  -9.707  -0.515  0.00  0.00     0.047 C 
HETATM   14  C           1     -23.326  -8.621   0.450  0.00  0.00     0.033 C 
HETATM   15  C           1     -22.050  -7.984   0.973  0.00  0.00     0.271 C 
HETATM   16  N           1     -21.041  -9.025   0.797  0.00  0.00     0.097 N 
HETATM   17  H           1     -21.128  -9.714   1.544  0.00  0.00     0.317 HD
ENDBRANCH   1  12
TORSDOF 5
ENDMDL
MODEL 6
REMARK VINA RESULT:      -4.5      2.397      2.757
REMARK  5 active torsions:
REMARK  status: ('A' for Active; 'I' for Inactive)
REMARK    1  A    between atoms: C_2  and  C_7 
REMARK    2  A    between atoms: C_7  and  C_8 
REMARK    3  A    between atoms: C_7  and  N_15 
REMARK    4  A    between atoms: C_8  and  Se_12 
REMARK       I    between atoms: C_9  and  N_15 
REMARK    5  A    between atoms: C_9  and  C_10 
ROOT
HETATM    1  C           1     -27.718  -6.177 -18.869  0.00  0.00     0.251 C 
HETATM    2  H           1     -26.148  -5.445 -17.739  0.00  0.00     0.163 HD
HETATM    3  N           1     -26.418  -6.115 -18.447  0.00  0.00    -0.345 N 
HETATM    4  O           1     -28.042  -6.976 -19.715  0.00  0.00    -0.271 OA
ENDROOT
BRANCH   3   5
HETATM    5  C           1     -25.428  -7.010 -19.013  0.00  0.00     0.185 C 
BRANCH   5   6
HETATM    6  C           1     -24.240  -7.095 -18.088  0.00  0.00     0.196 C 
HETATM    7  O           1     -24.400  -7.430 -16.894  0.00  0.00    -0.646 OA
HETATM    8  O           1     -23.095  -6.831 -18.515  0.00  0.00    -0.646 OA
ENDBRANCH   5   6
BRANCH   5   9
HETATM    9  C           1     -24.979  -6.478 -20.368  0.00  0.00     0.039 C 
BRANCH   9  10
HETATM   10 Se           1     -24.634  -7.973 -21.572  0.00  0.00     0.000 Se
HETATM   11  H           1     -26.042  -8.400 -21.631  0.00  0.00     0.000 HD
ENDBRANCH   9  10
ENDBRANCH   5   9
ENDBRANCH   3   5
BRANCH   1  12
HETATM   12  C           1     -28.749  -5.244 -18.280  0.00  0.00     0.311 C 
HETATM   13  C           1     -28.208  -4.558 -17.037  0.00  0.00     0.047 C 
HETATM   14  C           1     -28.687  -5.415 -15.871  0.00  0.00     0.033 C 
HETATM   15  C           1     -29.482  -6.542 -16.507  0.00  0.00     0.271 C 
HETATM   16  N           1     -29.905  -5.989 -17.791  0.00  0.00     0.097 N 
HETATM   17  H           1     -30.702  -5.368 -17.648  0.00  0.00     0.317 HD
ENDBRANCH   1  12
TORSDOF 5
ENDMDL
MODEL 7
REMARK VINA RESULT:      -4.4     16.677     17.866
REMARK  5 active torsions:
REMARK  status: ('A' for Active; 'I' for Inactive)
REMARK    1  A    between atoms: C_2  and  C_7 
REMARK    2  A    between atoms: C_7  and  C_8 
REMARK    3  A    between atoms: C_7  and  N_15 
REMARK    4  A    between atoms: C_8  and  Se_12 
REMARK       I    between atoms: C_9  and  N_15 
REMARK    5  A    between atoms: C_9  and  C_10 
ROOT
HETATM    1  C           1     -21.243  -8.111  -1.825  0.00  0.00     0.251 C 
HETATM    2  H           1     -22.604  -8.528  -3.326  0.00  0.00     0.163 HD
HETATM    3  N           1     -21.662  -8.220  -3.123  0.00  0.00    -0.345 N 
HETATM    4  O           1     -20.118  -7.744  -1.581  0.00  0.00    -0.271 OA
ENDROOT
BRANCH   3   5
HETATM    5  C           1     -20.757  -7.893  -4.207  0.00  0.00     0.185 C 
BRANCH   5   6
HETATM    6  C           1     -21.472  -7.029  -5.216  0.00  0.00     0.196 C 
HETATM    7  O           1     -22.363  -6.236  -4.840  0.00  0.00    -0.646 OA
HETATM    8  O           1     -21.174  -7.106  -6.428  0.00  0.00    -0.646 OA
ENDBRANCH   5   6
BRANCH   5   9
HETATM    9  C           1     -20.286  -9.176  -4.881  0.00  0.00     0.039 C 
BRANCH   9  10
HETATM   10 Se           1     -18.448  -9.553  -4.350  0.00  0.00     0.000 Se
HETATM   11  H           1     -17.983  -8.172  -4.560  0.00  0.00     0.000 HD
ENDBRANCH   9  10
ENDBRANCH   5   9
ENDBRANCH   3   5
BRANCH   1  12
HETATM   12  C           1     -22.186  -8.453  -0.696  0.00  0.00     0.311 C 
HETATM   13  C           1     -21.447  -8.495   0.631  0.00  0.00     0.047 C 
HETATM   14  C           1     -21.078  -9.961   0.832  0.00  0.00     0.033 C 
HETATM   15  C           1     -21.632 -10.680  -0.385  0.00  0.00     0.271 C 
HETATM   16  N           1     -22.709  -9.807  -0.847  0.00  0.00     0.097 N 
HETATM   17  H           1     -23.533  -9.944  -0.262  0.00  0.00     0.317 HD
ENDBRANCH   1  12
TORSDOF 5
ENDMDL
MODEL 8
REMARK VINA RESULT:      -4.4     16.719     17.821
REMARK  5 active torsions:
REMARK  status: ('A' for Active; 'I' for Inactive)
REMARK    1  A    between atoms: C_2  and  C_7 
REMARK    2  A    between atoms: C_7  and  C_8 
REMARK    3  A    between atoms: C_7  and  N_15 
REMARK    4  A    between atoms: C_8  and  Se_12 
REMARK       I    between atoms: C_9  and  N_15 
REMARK    5  A    between atoms: C_9  and  C_10 
ROOT
HETATM    1  C           1     -21.835  -9.963  -2.587  0.00  0.00     0.251 C 
HETATM    2  H           1     -20.675  -8.346  -2.024  0.00  0.00     0.163 HD
HETATM    3  N           1     -21.216  -8.757  -2.774  0.00  0.00    -0.345 N 
HETATM    4  O           1     -22.482 -10.455  -3.481  0.00  0.00    -0.271 OA
ENDROOT
BRANCH   3   5
HETATM    5  C           1     -21.334  -8.069  -4.044  0.00  0.00     0.185 C 
BRANCH   5   6
HETATM    6  C           1     -20.031  -8.176  -4.796  0.00  0.00     0.196 C 
HETATM    7  O           1     -19.920  -7.661  -5.931  0.00  0.00    -0.646 OA
HETATM    8  O           1     -19.061  -8.778  -4.285  0.00  0.00    -0.646 OA
ENDBRANCH   5   6
BRANCH   5   9
HETATM    9  C           1     -21.659  -6.601  -3.799  0.00  0.00     0.039 C 
BRANCH   9  10
HETATM   10 Se           1     -22.095  -6.337  -1.917  0.00  0.00     0.000 Se
HETATM   11  H           1     -20.986  -5.399  -1.673  0.00  0.00     0.000 HD
ENDBRANCH   9  10
ENDBRANCH   5   9
ENDBRANCH   3   5
BRANCH   1  12
HETATM   12  C           1     -21.712 -10.679  -1.264  0.00  0.00     0.311 C 
HETATM   13  C           1     -22.869 -11.643  -1.062  0.00  0.00     0.047 C 
HETATM   14  C           1     -23.900 -10.861  -0.256  0.00  0.00     0.033 C 
HETATM   15  C           1     -23.276  -9.494  -0.033  0.00  0.00     0.271 C 
HETATM   16  N           1     -21.841  -9.742  -0.152  0.00  0.00     0.097 N 
HETATM   17  H           1     -21.495 -10.157   0.713  0.00  0.00     0.317 HD
ENDBRANCH   1  12
TORSDOF 5
ENDMDL
MODEL 9
REMARK VINA RESULT:      -4.2      4.633      6.362
REMARK  5 active torsions:
REMARK  status: ('A' for Active; 'I' for Inactive)
REMARK    1  A    between atoms: C_2  and  C_7 
REMARK    2  A    between atoms: C_7  and  C_8 
REMARK    3  A    between atoms: C_7  and  N_15 
REMARK    4  A    between atoms: C_8  and  Se_12 
REMARK       I    between atoms: C_9  and  N_15 
REMARK    5  A    between atoms: C_9  and  C_10 
ROOT
HETATM    1  C           1     -29.435  -6.036 -16.054  0.00  0.00     0.251 C 
HETATM    2  H           1     -30.366  -5.917 -17.897  0.00  0.00     0.163 HD
HETATM    3  N           1     -30.316  -5.523 -16.967  0.00  0.00    -0.345 N 
HETATM    4  O           1     -29.373  -5.565 -14.943  0.00  0.00    -0.271 OA
ENDROOT
BRANCH   3   5
HETATM    5  C           1     -31.175  -4.415 -16.602  0.00  0.00     0.185 C 
BRANCH   5   6
HETATM    6  C           1     -32.617  -4.855 -16.666  0.00  0.00     0.196 C 
HETATM    7  O           1     -32.906  -5.985 -17.117  0.00  0.00    -0.646 OA
HETATM    8  O           1     -33.522  -4.090 -16.266  0.00  0.00    -0.646 OA
ENDBRANCH   5   6
BRANCH   5   9
HETATM    9  C           1     -30.955  -3.260 -17.571  0.00  0.00     0.039 C 
BRANCH   9  10
HETATM   10 Se           1     -29.177  -2.509 -17.294  0.00  0.00     0.000 Se
HETATM   11  H           1     -28.651  -2.980 -18.586  0.00  0.00     0.000 HD
ENDBRANCH   9  10
ENDBRANCH   5   9
ENDBRANCH   3   5
BRANCH   1  12
HETATM   12  C           1     -28.539  -7.190 -16.434  0.00  0.00     0.311 C 
HETATM   13  C           1     -27.420  -7.361 -15.421  0.00  0.00     0.047 C 
HETATM   14  C           1     -26.241  -6.586 -15.998  0.00  0.00     0.033 C 
HETATM   15  C           1     -26.746  -6.018 -17.314  0.00  0.00     0.271 C 
HETATM   16  N           1     -27.838  -6.914 -17.685  0.00  0.00     0.097 N 
HETATM   17  H           1     -27.455  -7.772 -18.082  0.00  0.00     0.317 HD
ENDBRANCH   1  12
TORSDOF 5
ENDMDL
