MODEL 1
REMARK VINA RESULT:      -5.8      0.000      0.000
REMARK  8 active torsions:
REMARK  status: ('A' for Active; 'I' for Inactive)
REMARK    1  A    between atoms: O_2  and  P_4 
REMARK    2  A    between atoms: C_3  and  C_7 
REMARK    3  A    between atoms: P_4  and  O_5 
REMARK    4  A    between atoms: O_5  and  C_6 
REMARK    5  A    between atoms: C_6  and  C_7 
REMARK    6  A    between atoms: C_7  and  N_10 
REMARK       I    between atoms: N_10  and  C_11 
REMARK    7  A    between atoms: C_11  and  C_12 
REMARK    8  A    between atoms: C_12  and  N_13 
ROOT
HETATM    1  C           1     -36.482  -0.906 -11.422  0.00  0.00     0.210 C 
ENDROOT
BRANCH   1   2
HETATM    2  C           1     -36.918   0.080 -10.366  0.00  0.00     0.198 C 
HETATM    3  O           1     -36.217   0.253  -9.345  0.00  0.00    -0.646 OA
HETATM    4  O           1     -37.979   0.723 -10.512  0.00  0.00    -0.646 OA
ENDBRANCH   1   2
BRANCH   1   5
HETATM    5  C           1     -35.437  -1.848 -10.838  0.00  0.00     0.217 C 
BRANCH   5   6
HETATM    6  O           1     -35.592  -3.124 -11.400  0.00  0.00    -0.287 OA
BRANCH   6   7
HETATM    7  P           1     -34.397  -3.623 -12.364  0.00  0.00     0.406 P 
HETATM    8  O           1     -34.486  -2.920 -13.663  0.00  0.00    -0.624 OA
HETATM    9  O           1     -33.094  -3.324 -11.730  0.00  0.00    -0.624 OA
BRANCH   7  10
HETATM   10  O           1     -34.528  -5.215 -12.602  0.00  0.00    -0.300 OA
HETATM   11  H           1     -34.113  -5.372 -13.433  0.00  0.00     0.223 HD
ENDBRANCH   7  10
ENDBRANCH   6   7
ENDBRANCH   5   6
ENDBRANCH   1   5
BRANCH   1  12
HETATM   12  N           1     -35.910  -0.188 -12.545  0.00  0.00    -0.343 N 
HETATM   13  C           1     -36.570  -0.156 -13.744  0.00  0.00     0.243 C 
HETATM   14  O           1     -37.629  -0.726 -13.867  0.00  0.00    -0.272 OA
HETATM   15  H           1     -35.024   0.290 -12.444  0.00  0.00     0.163 HD
BRANCH  13  16
HETATM   16  C           1     -35.977   0.591 -14.913  0.00  0.00     0.332 C 
BRANCH  16  17
HETATM   17  N           1     -37.079   1.113 -15.787  0.00  0.00    -0.071 N 
HETATM   18  H           1     -37.362   2.065 -15.460  0.00  0.00     0.274 HD
HETATM   19  H           1     -36.743   1.169 -16.774  0.00  0.00     0.274 HD
HETATM   20  H           1     -37.899   0.469 -15.734  0.00  0.00     0.274 HD
ENDBRANCH  16  17
ENDBRANCH  13  16
ENDBRANCH   1  12
TORSDOF 8
ENDMDL
MODEL 2
REMARK VINA RESULT:      -5.8      2.504      4.910
REMARK  8 active torsions:
REMARK  status: ('A' for Active; 'I' for Inactive)
REMARK    1  A    between atoms: O_2  and  P_4 
REMARK    2  A    between atoms: C_3  and  C_7 
REMARK    3  A    between atoms: P_4  and  O_5 
REMARK    4  A    between atoms: O_5  and  C_6 
REMARK    5  A    between atoms: C_6  and  C_7 
REMARK    6  A    between atoms: C_7  and  N_10 
REMARK       I    between atoms: N_10  and  C_11 
REMARK    7  A    between atoms: C_11  and  C_12 
REMARK    8  A    between atoms: C_12  and  N_13 
ROOT
HETATM    1  C           1     -35.803  -1.204 -12.249  0.00  0.00     0.210 C 
ENDROOT
BRANCH   1   2
HETATM    2  C           1     -34.668  -2.175 -12.458  0.00  0.00     0.198 C 
HETATM    3  O           1     -33.820  -2.348 -11.555  0.00  0.00    -0.646 OA
HETATM    4  O           1     -34.574  -2.806 -13.532  0.00  0.00    -0.646 OA
ENDBRANCH   1   2
BRANCH   1   5
HETATM    5  C           1     -35.623  -0.004 -13.169  0.00  0.00     0.217 C 
BRANCH   5   6
HETATM    6  O           1     -36.706   0.073 -14.056  0.00  0.00    -0.287 OA
BRANCH   6   7
HETATM    7  P           1     -36.331   0.188 -15.623  0.00  0.00     0.406 P 
HETATM    8  O           1     -35.032  -0.478 -15.868  0.00  0.00    -0.624 OA
HETATM    9  O           1     -37.382  -0.468 -16.431  0.00  0.00    -0.624 OA
BRANCH   7  10
HETATM   10  O           1     -36.226   1.745 -16.038  0.00  0.00    -0.300 OA
HETATM   11  H           1     -35.482   2.074 -15.563  0.00  0.00     0.223 HD
ENDBRANCH   7  10
ENDBRANCH   6   7
ENDBRANCH   5   6
ENDBRANCH   1   5
BRANCH   1  12
HETATM   12  N           1     -35.809  -0.758 -10.869  0.00  0.00    -0.343 N 
HETATM   13  C           1     -36.996  -0.607 -10.204  0.00  0.00     0.243 C 
HETATM   14  O           1     -38.039  -0.845 -10.766  0.00  0.00    -0.272 OA
HETATM   15  H           1     -34.937  -0.559 -10.397  0.00  0.00     0.163 HD
BRANCH  13  16
HETATM   16  C           1     -37.003  -0.143  -8.767  0.00  0.00     0.332 C 
BRANCH  16  17
HETATM   17  N           1     -36.415   1.235  -8.683  0.00  0.00    -0.071 N 
HETATM   18  H           1     -35.443   1.223  -9.066  0.00  0.00     0.274 HD
HETATM   19  H           1     -37.000   1.897  -9.241  0.00  0.00     0.274 HD
HETATM   20  H           1     -36.394   1.544  -7.686  0.00  0.00     0.274 HD
ENDBRANCH  16  17
ENDBRANCH  13  16
ENDBRANCH   1  12
TORSDOF 8
ENDMDL
MODEL 3
REMARK VINA RESULT:      -5.5     13.514     15.785
REMARK  8 active torsions:
REMARK  status: ('A' for Active; 'I' for Inactive)
REMARK    1  A    between atoms: O_2  and  P_4 
REMARK    2  A    between atoms: C_3  and  C_7 
REMARK    3  A    between atoms: P_4  and  O_5 
REMARK    4  A    between atoms: O_5  and  C_6 
REMARK    5  A    between atoms: C_6  and  C_7 
REMARK    6  A    between atoms: C_7  and  N_10 
REMARK       I    between atoms: N_10  and  C_11 
REMARK    7  A    between atoms: C_11  and  C_12 
REMARK    8  A    between atoms: C_12  and  N_13 
ROOT
HETATM    1  C           1     -21.586  -4.969  -8.085  0.00  0.00     0.210 C 
ENDROOT
BRANCH   1   2
HETATM    2  C           1     -20.331  -4.476  -8.762  0.00  0.00     0.198 C 
HETATM    3  O           1     -19.441  -3.911  -8.091  0.00  0.00    -0.646 OA
HETATM    4  O           1     -20.183  -4.633  -9.993  0.00  0.00    -0.646 OA
ENDBRANCH   1   2
BRANCH   1   5
HETATM    5  C           1     -22.762  -4.088  -8.488  0.00  0.00     0.217 C 
BRANCH   5   6
HETATM    6  O           1     -23.528  -4.746  -9.460  0.00  0.00    -0.287 OA
BRANCH   6   7
HETATM    7  P           1     -23.709  -3.968 -10.864  0.00  0.00     0.406 P 
HETATM    8  O           1     -23.719  -4.947 -11.973  0.00  0.00    -0.624 OA
HETATM    9  O           1     -24.986  -3.221 -10.853  0.00  0.00    -0.624 OA
BRANCH   7  10
HETATM   10  O           1     -22.483  -2.935 -11.068  0.00  0.00    -0.300 OA
HETATM   11  H           1     -22.721  -2.420 -11.820  0.00  0.00     0.223 HD
ENDBRANCH   7  10
ENDBRANCH   6   7
ENDBRANCH   5   6
ENDBRANCH   1   5
BRANCH   1  12
HETATM   12  N           1     -21.412  -4.914  -6.646  0.00  0.00    -0.343 N 
HETATM   13  C           1     -21.176  -6.063  -5.941  0.00  0.00     0.243 C 
HETATM   14  O           1     -21.114  -7.124  -6.517  0.00  0.00    -0.272 OA
HETATM   15  H           1     -21.464  -4.027  -6.163  0.00  0.00     0.163 HD
BRANCH  13  16
HETATM   16  C           1     -20.994  -6.006  -4.444  0.00  0.00     0.332 C 
BRANCH  16  17
HETATM   17  N           1     -22.316  -6.233  -3.770  0.00  0.00    -0.071 N 
HETATM   18  H           1     -22.299  -7.151  -3.270  0.00  0.00     0.274 HD
HETATM   19  H           1     -22.491  -5.466  -3.082  0.00  0.00     0.274 HD
HETATM   20  H           1     -23.075  -6.240  -4.486  0.00  0.00     0.274 HD
ENDBRANCH  16  17
ENDBRANCH  13  16
ENDBRANCH   1  12
TORSDOF 8
ENDMDL
MODEL 4
REMARK VINA RESULT:      -5.1      3.045      4.839
REMARK  8 active torsions:
REMARK  status: ('A' for Active; 'I' for Inactive)
REMARK    1  A    between atoms: O_2  and  P_4 
REMARK    2  A    between atoms: C_3  and  C_7 
REMARK    3  A    between atoms: P_4  and  O_5 
REMARK    4  A    between atoms: O_5  and  C_6 
REMARK    5  A    between atoms: C_6  and  C_7 
REMARK    6  A    between atoms: C_7  and  N_10 
REMARK       I    between atoms: N_10  and  C_11 
REMARK    7  A    between atoms: C_11  and  C_12 
REMARK    8  A    between atoms: C_12  and  N_13 
ROOT
HETATM    1  C           1     -35.103  -2.045 -11.254  0.00  0.00     0.210 C 
ENDROOT
BRANCH   1   2
HETATM    2  C           1     -36.211  -1.289 -10.563  0.00  0.00     0.198 C 
HETATM    3  O           1     -35.968  -0.632  -9.527  0.00  0.00    -0.646 OA
HETATM    4  O           1     -37.372  -1.321 -11.025  0.00  0.00    -0.646 OA
ENDBRANCH   1   2
BRANCH   1   5
HETATM    5  C           1     -35.216  -1.849 -12.760  0.00  0.00     0.217 C 
BRANCH   5   6
HETATM    6  O           1     -34.729  -0.580 -13.105  0.00  0.00    -0.287 OA
BRANCH   6   7
HETATM    7  P           1     -35.484   0.160 -14.327  0.00  0.00     0.406 P 
HETATM    8  O           1     -36.948   0.086 -14.118  0.00  0.00    -0.624 OA
HETATM    9  O           1     -35.064   1.577 -14.381  0.00  0.00    -0.624 OA
BRANCH   7  10
HETATM   10  O           1     -35.100  -0.570 -15.716  0.00  0.00    -0.300 OA
HETATM   11  H           1     -35.283   0.069 -16.384  0.00  0.00     0.223 HD
ENDBRANCH   7  10
ENDBRANCH   6   7
ENDBRANCH   5   6
ENDBRANCH   1   5
BRANCH   1  12
HETATM   12  N           1     -35.213  -3.456 -10.940  0.00  0.00    -0.343 N 
HETATM   13  C           1     -34.085  -4.227 -10.854  0.00  0.00     0.243 C 
HETATM   14  O           1     -32.998  -3.732 -11.038  0.00  0.00    -0.272 OA
HETATM   15  H           1     -36.122  -3.872 -10.786  0.00  0.00     0.163 HD
BRANCH  13  16
HETATM   16  C           1     -34.199  -5.697 -10.528  0.00  0.00     0.332 C 
BRANCH  16  17
HETATM   17  N           1     -34.592  -6.455 -11.761  0.00  0.00    -0.071 N 
HETATM   18  H           1     -35.175  -7.280 -11.492  0.00  0.00     0.274 HD
HETATM   19  H           1     -35.143  -5.830 -12.392  0.00  0.00     0.274 HD
HETATM   20  H           1     -33.733  -6.782 -12.257  0.00  0.00     0.274 HD
ENDBRANCH  16  17
ENDBRANCH  13  16
ENDBRANCH   1  12
TORSDOF 8
ENDMDL
MODEL 5
REMARK VINA RESULT:      -5.1     26.202     27.560
REMARK  8 active torsions:
REMARK  status: ('A' for Active; 'I' for Inactive)
REMARK    1  A    between atoms: O_2  and  P_4 
REMARK    2  A    between atoms: C_3  and  C_7 
REMARK    3  A    between atoms: P_4  and  O_5 
REMARK    4  A    between atoms: O_5  and  C_6 
REMARK    5  A    between atoms: C_6  and  C_7 
REMARK    6  A    between atoms: C_7  and  N_10 
REMARK       I    between atoms: N_10  and  C_11 
REMARK    7  A    between atoms: C_11  and  C_12 
REMARK    8  A    between atoms: C_12  and  N_13 
ROOT
HETATM    1  C           1     -10.309   5.499 -20.686  0.00  0.00     0.210 C 
ENDROOT
BRANCH   1   2
HETATM    2  C           1     -10.653   5.373 -19.222  0.00  0.00     0.198 C 
HETATM    3  O           1     -11.787   4.976 -18.879  0.00  0.00    -0.646 OA
HETATM    4  O           1      -9.803   5.664 -18.354  0.00  0.00    -0.646 OA
ENDBRANCH   1   2
BRANCH   1   5
HETATM    5  C           1      -9.787   6.902 -20.967  0.00  0.00     0.217 C 
BRANCH   5   6
HETATM    6  O           1     -10.842   7.820 -20.881  0.00  0.00    -0.287 OA
BRANCH   6   7
HETATM    7  P           1     -10.583   9.112 -19.945  0.00  0.00     0.406 P 
HETATM    8  O           1      -9.430   9.877 -20.471  0.00  0.00    -0.624 OA
HETATM    9  O           1     -11.787   9.970 -19.944  0.00  0.00    -0.624 OA
BRANCH   7  10
HETATM   10  O           1     -10.265   8.627 -18.437  0.00  0.00    -0.300 OA
HETATM   11  H           1     -10.101   9.420 -17.956  0.00  0.00     0.223 HD
ENDBRANCH   7  10
ENDBRANCH   6   7
ENDBRANCH   5   6
ENDBRANCH   1   5
BRANCH   1  12
HETATM   12  N           1     -11.497   5.258 -21.483  0.00  0.00    -0.343 N 
HETATM   13  C           1     -11.690   4.037 -22.070  0.00  0.00     0.243 C 
HETATM   14  O           1     -10.872   3.160 -21.925  0.00  0.00    -0.272 OA
HETATM   15  H           1     -12.183   5.991 -21.605  0.00  0.00     0.163 HD
BRANCH  13  16
HETATM   16  C           1     -12.926   3.785 -22.899  0.00  0.00     0.332 C 
BRANCH  16  17
HETATM   17  N           1     -13.801   2.784 -22.203  0.00  0.00    -0.071 N 
HETATM   18  H           1     -14.528   2.434 -22.867  0.00  0.00     0.274 HD
HETATM   19  H           1     -13.218   1.983 -21.871  0.00  0.00     0.274 HD
HETATM   20  H           1     -14.267   3.238 -21.386  0.00  0.00     0.274 HD
ENDBRANCH  16  17
ENDBRANCH  13  16
ENDBRANCH   1  12
TORSDOF 8
ENDMDL
MODEL 6
REMARK VINA RESULT:      -5.0      1.886      3.741
REMARK  8 active torsions:
REMARK  status: ('A' for Active; 'I' for Inactive)
REMARK    1  A    between atoms: O_2  and  P_4 
REMARK    2  A    between atoms: C_3  and  C_7 
REMARK    3  A    between atoms: P_4  and  O_5 
REMARK    4  A    between atoms: O_5  and  C_6 
REMARK    5  A    between atoms: C_6  and  C_7 
REMARK    6  A    between atoms: C_7  and  N_10 
REMARK       I    between atoms: N_10  and  C_11 
REMARK    7  A    between atoms: C_11  and  C_12 
REMARK    8  A    between atoms: C_12  and  N_13 
ROOT
HETATM    1  C           1     -35.507  -0.598 -11.787  0.00  0.00     0.210 C 
ENDROOT
BRANCH   1   2
HETATM    2  C           1     -35.300  -0.206 -13.229  0.00  0.00     0.198 C 
HETATM    3  O           1     -35.778  -0.912 -14.143  0.00  0.00    -0.646 OA
HETATM    4  O           1     -34.650   0.824 -13.510  0.00  0.00    -0.646 OA
ENDBRANCH   1   2
BRANCH   1   5
HETATM    5  C           1     -35.669  -2.109 -11.689  0.00  0.00     0.217 C 
BRANCH   5   6
HETATM    6  O           1     -34.417  -2.702 -11.473  0.00  0.00    -0.287 OA
BRANCH   6   7
HETATM    7  P           1     -34.032  -3.922 -12.458  0.00  0.00     0.406 P 
HETATM    8  O           1     -32.605  -4.270 -12.278  0.00  0.00    -0.624 OA
HETATM    9  O           1     -34.871  -5.098 -12.139  0.00  0.00    -0.624 OA
BRANCH   7  10
HETATM   10  O           1     -34.289  -3.477 -13.990  0.00  0.00    -0.300 OA
HETATM   11  H           1     -35.185  -3.708 -14.163  0.00  0.00     0.223 HD
ENDBRANCH   7  10
ENDBRANCH   6   7
ENDBRANCH   5   6
ENDBRANCH   1   5
BRANCH   1  12
HETATM   12  N           1     -36.700   0.050 -11.277  0.00  0.00    -0.343 N 
HETATM   13  C           1     -36.832   0.280  -9.935  0.00  0.00     0.243 C 
HETATM   14  O           1     -35.956  -0.057  -9.174  0.00  0.00    -0.272 OA
HETATM   15  H           1     -37.434   0.333 -11.913  0.00  0.00     0.163 HD
BRANCH  13  16
HETATM   16  C           1     -38.074   0.955  -9.404  0.00  0.00     0.332 C 
BRANCH  16  17
HETATM   17  N           1     -37.681   2.078  -8.490  0.00  0.00    -0.071 N 
HETATM   18  H           1     -38.531   2.627  -8.227  0.00  0.00     0.274 HD
HETATM   19  H           1     -37.239   1.687  -7.628  0.00  0.00     0.274 HD
HETATM   20  H           1     -37.002   2.703  -8.978  0.00  0.00     0.274 HD
ENDBRANCH  16  17
ENDBRANCH  13  16
ENDBRANCH   1  12
TORSDOF 8
ENDMDL
MODEL 7
REMARK VINA RESULT:      -4.5     15.721     17.300
REMARK  8 active torsions:
REMARK  status: ('A' for Active; 'I' for Inactive)
REMARK    1  A    between atoms: O_2  and  P_4 
REMARK    2  A    between atoms: C_3  and  C_7 
REMARK    3  A    between atoms: P_4  and  O_5 
REMARK    4  A    between atoms: O_5  and  C_6 
REMARK    5  A    between atoms: C_6  and  C_7 
REMARK    6  A    between atoms: C_7  and  N_10 
REMARK       I    between atoms: N_10  and  C_11 
REMARK    7  A    between atoms: C_11  and  C_12 
REMARK    8  A    between atoms: C_12  and  N_13 
ROOT
HETATM    1  C           1     -21.201  -5.976  -5.379  0.00  0.00     0.210 C 
ENDROOT
BRANCH   1   2
HETATM    2  C           1     -20.606  -7.260  -5.903  0.00  0.00     0.198 C 
HETATM    3  O           1     -19.515  -7.240  -6.512  0.00  0.00    -0.646 OA
HETATM    4  O           1     -21.205  -8.343  -5.729  0.00  0.00    -0.646 OA
ENDBRANCH   1   2
BRANCH   1   5
HETATM    5  C           1     -22.006  -6.265  -4.119  0.00  0.00     0.217 C 
BRANCH   5   6
HETATM    6  O           1     -21.141  -6.334  -3.018  0.00  0.00    -0.287 OA
BRANCH   6   7
HETATM    7  P           1     -21.378  -7.575  -2.010  0.00  0.00     0.406 P 
HETATM    8  O           1     -20.122  -7.866  -1.284  0.00  0.00    -0.624 OA
HETATM    9  O           1     -22.440  -7.227  -1.041  0.00  0.00    -0.624 OA
BRANCH   7  10
HETATM   10  O           1     -21.826  -8.876  -2.856  0.00  0.00    -0.300 OA
HETATM   11  H           1     -22.686  -9.089  -2.537  0.00  0.00     0.223 HD
ENDBRANCH   7  10
ENDBRANCH   6   7
ENDBRANCH   5   6
ENDBRANCH   1   5
BRANCH   1  12
HETATM   12  N           1     -22.071  -5.401  -6.388  0.00  0.00    -0.343 N 
HETATM   13  C           1     -21.592  -4.442  -7.239  0.00  0.00     0.243 C 
HETATM   14  O           1     -20.444  -4.074  -7.150  0.00  0.00    -0.272 OA
HETATM   15  H           1     -23.032  -5.708  -6.462  0.00  0.00     0.163 HD
BRANCH  13  16
HETATM   16  C           1     -22.497  -3.843  -8.288  0.00  0.00     0.332 C 
BRANCH  16  17
HETATM   17  N           1     -23.927  -4.143  -7.946  0.00  0.00    -0.071 N 
HETATM   18  H           1     -24.008  -4.334  -6.921  0.00  0.00     0.274 HD
HETATM   19  H           1     -24.523  -3.322  -8.195  0.00  0.00     0.274 HD
HETATM   20  H           1     -24.245  -4.980  -8.482  0.00  0.00     0.274 HD
ENDBRANCH  16  17
ENDBRANCH  13  16
ENDBRANCH   1  12
TORSDOF 8
ENDMDL
MODEL 8
REMARK VINA RESULT:      -4.5      1.962      3.467
REMARK  8 active torsions:
REMARK  status: ('A' for Active; 'I' for Inactive)
REMARK    1  A    between atoms: O_2  and  P_4 
REMARK    2  A    between atoms: C_3  and  C_7 
REMARK    3  A    between atoms: P_4  and  O_5 
REMARK    4  A    between atoms: O_5  and  C_6 
REMARK    5  A    between atoms: C_6  and  C_7 
REMARK    6  A    between atoms: C_7  and  N_10 
REMARK       I    between atoms: N_10  and  C_11 
REMARK    7  A    between atoms: C_11  and  C_12 
REMARK    8  A    between atoms: C_12  and  N_13 
ROOT
HETATM    1  C           1     -34.706  -0.473 -12.756  0.00  0.00     0.210 C 
ENDROOT
BRANCH   1   2
HETATM    2  C           1     -34.769   0.558 -13.856  0.00  0.00     0.198 C 
HETATM    3  O           1     -34.694   1.774 -13.577  0.00  0.00    -0.646 OA
HETATM    4  O           1     -34.897   0.196 -15.045  0.00  0.00    -0.646 OA
ENDBRANCH   1   2
BRANCH   1   5
HETATM    5  C           1     -35.350  -1.768 -13.235  0.00  0.00     0.217 C 
BRANCH   5   6
HETATM    6  O           1     -34.444  -2.826 -13.081  0.00  0.00    -0.287 OA
BRANCH   6   7
HETATM    7  P           1     -34.676  -3.775 -11.794  0.00  0.00     0.406 P 
HETATM    8  O           1     -35.863  -3.308 -11.045  0.00  0.00    -0.624 OA
HETATM    9  O           1     -34.891  -5.169 -12.242  0.00  0.00    -0.624 OA
BRANCH   7  10
HETATM   10  O           1     -33.375  -3.712 -10.838  0.00  0.00    -0.300 OA
HETATM   11  H           1     -33.519  -4.377 -10.187  0.00  0.00     0.223 HD
ENDBRANCH   7  10
ENDBRANCH   6   7
ENDBRANCH   5   6
ENDBRANCH   1   5
BRANCH   1  12
HETATM   12  N           1     -35.417   0.019 -11.592  0.00  0.00    -0.343 N 
HETATM   13  C           1     -36.782  -0.063 -11.540  0.00  0.00     0.243 C 
HETATM   14  O           1     -37.395  -0.545 -12.463  0.00  0.00    -0.272 OA
HETATM   15  H           1     -34.905   0.423 -10.819  0.00  0.00     0.163 HD
BRANCH  13  16
HETATM   16  C           1     -37.523   0.449 -10.329  0.00  0.00     0.332 C 
BRANCH  16  17
HETATM   17  N           1     -36.566   1.164  -9.421  0.00  0.00    -0.071 N 
HETATM   18  H           1     -37.080   1.520  -8.583  0.00  0.00     0.274 HD
HETATM   19  H           1     -35.817   0.502  -9.115  0.00  0.00     0.274 HD
HETATM   20  H           1     -36.135   1.966  -9.932  0.00  0.00     0.274 HD
ENDBRANCH  16  17
ENDBRANCH  13  16
ENDBRANCH   1  12
TORSDOF 8
ENDMDL
MODEL 9
REMARK VINA RESULT:      -4.4     17.489     19.216
REMARK  8 active torsions:
REMARK  status: ('A' for Active; 'I' for Inactive)
REMARK    1  A    between atoms: O_2  and  P_4 
REMARK    2  A    between atoms: C_3  and  C_7 
REMARK    3  A    between atoms: P_4  and  O_5 
REMARK    4  A    between atoms: O_5  and  C_6 
REMARK    5  A    between atoms: C_6  and  C_7 
REMARK    6  A    between atoms: C_7  and  N_10 
REMARK       I    between atoms: N_10  and  C_11 
REMARK    7  A    between atoms: C_11  and  C_12 
REMARK    8  A    between atoms: C_12  and  N_13 
ROOT
HETATM    1  C           1     -21.248  -7.830  -2.284  0.00  0.00     0.210 C 
ENDROOT
BRANCH   1   2
HETATM    2  C           1     -22.156  -6.781  -1.692  0.00  0.00     0.198 C 
HETATM    3  O           1     -22.749  -7.004  -0.615  0.00  0.00    -0.646 OA
HETATM    4  O           1     -22.315  -5.689  -2.278  0.00  0.00    -0.646 OA
ENDBRANCH   1   2
BRANCH   1   5
HETATM    5  C           1     -21.553  -7.989  -3.767  0.00  0.00     0.217 C 
BRANCH   5   6
HETATM    6  O           1     -20.557  -7.351  -4.521  0.00  0.00    -0.287 OA
BRANCH   6   7
HETATM    7  P           1     -21.067  -6.213  -5.548  0.00  0.00     0.406 P 
HETATM    8  O           1     -20.302  -4.967  -5.323  0.00  0.00    -0.624 OA
HETATM    9  O           1     -20.860  -6.675  -6.938  0.00  0.00    -0.624 OA
BRANCH   7  10
HETATM   10  O           1     -22.639  -5.933  -5.302  0.00  0.00    -0.300 OA
HETATM   11  H           1     -22.904  -6.575  -4.666  0.00  0.00     0.223 HD
ENDBRANCH   7  10
ENDBRANCH   6   7
ENDBRANCH   5   6
ENDBRANCH   1   5
BRANCH   1  12
HETATM   12  N           1     -21.466  -9.095  -1.608  0.00  0.00    -0.343 N 
HETATM   13  C           1     -20.440  -9.992  -1.487  0.00  0.00     0.243 C 
HETATM   14  O           1     -19.352  -9.731  -1.943  0.00  0.00    -0.272 OA
HETATM   15  H           1     -22.377  -9.314  -1.225  0.00  0.00     0.163 HD
BRANCH  13  16
HETATM   16  C           1     -20.667 -11.308  -0.783  0.00  0.00     0.332 C 
BRANCH  16  17
HETATM   17  N           1     -21.251 -11.055   0.576  0.00  0.00    -0.071 N 
HETATM   18  H           1     -20.876 -10.157   0.955  0.00  0.00     0.274 HD
HETATM   19  H           1     -22.291 -10.995   0.501  0.00  0.00     0.274 HD
HETATM   20  H           1     -20.993 -11.838   1.216  0.00  0.00     0.274 HD
ENDBRANCH  16  17
ENDBRANCH  13  16
ENDBRANCH   1  12
TORSDOF 8
ENDMDL
