MODEL 1
REMARK VINA RESULT:      -6.3      0.000      0.000
REMARK  10 active torsions:
REMARK  status: ('A' for Active; 'I' for Inactive)
REMARK    1  A    between atoms: C_6  and  C_25 
REMARK    2  A    between atoms: C_6  and  C_7 
REMARK    3  A    between atoms: C_7  and  C_8 
REMARK    4  A    between atoms: C_7  and  N_11 
REMARK       I    between atoms: N_11  and  C_12 
REMARK    5  A    between atoms: C_12  and  C_13 
REMARK    6  A    between atoms: C_13  and  C_14 
REMARK    7  A    between atoms: C_13  and  N_18 
REMARK    8  A    between atoms: C_14  and  C_15 
REMARK       I    between atoms: C_15  and  N_16 
REMARK    9  A    between atoms: N_23  and  C_24 
REMARK   10  A    between atoms: C_24  and  C_25 
ROOT
HETATM    1  N           1     -35.306  -3.251 -11.284  0.00  0.00    -0.345 N 
HETATM    2  C           1     -35.125  -2.007 -10.742  0.00  0.00     0.249 C 
HETATM    3  O           1     -34.091  -1.738 -10.178  0.00  0.00    -0.271 OA
HETATM    4  H           1     -36.171  -3.476 -11.757  0.00  0.00     0.163 HD
ENDROOT
BRANCH   1   5
HETATM    5  C           1     -34.256  -4.245 -11.181  0.00  0.00     0.185 C 
BRANCH   5   6
HETATM    6  C           1     -34.873  -5.637 -11.194  0.00  0.00     0.038 C 
BRANCH   6   7
HETATM    7  C           1     -34.273  -6.471 -10.069  0.00  0.00     0.030 C 
BRANCH   7   8
HETATM    8  C           1     -34.761  -7.909 -10.186  0.00  0.00     0.230 C 
BRANCH   8   9
HETATM    9  N           1     -33.583  -8.836 -10.237  0.00  0.00    -0.079 N 
HETATM   10  H           1     -32.741  -8.311 -10.564  0.00  0.00     0.274 HD
HETATM   11  H           1     -33.404  -9.222  -9.283  0.00  0.00     0.274 HD
HETATM   12  H           1     -33.784  -9.618 -10.899  0.00  0.00     0.274 HD
ENDBRANCH   8   9
ENDBRANCH   7   8
ENDBRANCH   6   7
ENDBRANCH   5   6
BRANCH   5  13
HETATM   13  C           1     -33.310  -4.102 -12.348  0.00  0.00     0.196 C 
HETATM   14  O           1     -33.736  -3.694 -13.451  0.00  0.00    -0.646 OA
HETATM   15  O           1     -32.102  -4.391 -12.213  0.00  0.00    -0.646 OA
ENDBRANCH   5  13
ENDBRANCH   1   5
BRANCH   2  16
HETATM   16  C           1     -36.217  -0.971 -10.849  0.00  0.00     0.283 C 
BRANCH  16  17
HETATM   17  C           1     -35.868   0.025 -11.947  0.00  0.00     0.145 C 
BRANCH  17  18
HETATM   18  C           1     -36.136  -0.598 -13.296  0.00  0.00     0.217 C 
HETATM   19  N           1     -35.092  -0.929 -14.117  0.00  0.00    -0.370 N 
HETATM   20  H           1     -34.140  -0.758 -13.819  0.00  0.00     0.159 HD
HETATM   21  H           1     -35.272  -1.346 -15.021  0.00  0.00     0.159 HD
HETATM   22  O           1     -37.272  -0.803 -13.652  0.00  0.00    -0.274 OA
ENDBRANCH  17  18
ENDBRANCH  16  17
BRANCH  16  23
HETATM   23  N           1     -36.348  -0.247  -9.542  0.00  0.00    -0.066 N 
HETATM   24  H           1     -36.450   0.778  -9.721  0.00  0.00     0.275 HD
HETATM   25  H           1     -35.495  -0.415  -8.963  0.00  0.00     0.275 HD
HETATM   26  H           1     -37.189  -0.598  -9.032  0.00  0.00     0.275 HD
ENDBRANCH  16  23
ENDBRANCH   2  16
TORSDOF 10
ENDMDL
MODEL 2
REMARK VINA RESULT:      -6.3     10.208     12.671
REMARK  10 active torsions:
REMARK  status: ('A' for Active; 'I' for Inactive)
REMARK    1  A    between atoms: C_6  and  C_25 
REMARK    2  A    between atoms: C_6  and  C_7 
REMARK    3  A    between atoms: C_7  and  C_8 
REMARK    4  A    between atoms: C_7  and  N_11 
REMARK       I    between atoms: N_11  and  C_12 
REMARK    5  A    between atoms: C_12  and  C_13 
REMARK    6  A    between atoms: C_13  and  C_14 
REMARK    7  A    between atoms: C_13  and  N_18 
REMARK    8  A    between atoms: C_14  and  C_15 
REMARK       I    between atoms: C_15  and  N_16 
REMARK    9  A    between atoms: N_23  and  C_24 
REMARK   10  A    between atoms: C_24  and  C_25 
ROOT
HETATM    1  N           1     -27.882  -6.807 -19.468  0.00  0.00    -0.345 N 
HETATM    2  C           1     -26.523  -6.661 -19.391  0.00  0.00     0.249 C 
HETATM    3  O           1     -26.013  -6.292 -18.360  0.00  0.00    -0.271 OA
HETATM    4  H           1     -28.309  -7.117 -20.332  0.00  0.00     0.163 HD
ENDROOT
BRANCH   1   5
HETATM    5  C           1     -28.708  -6.521 -18.312  0.00  0.00     0.185 C 
BRANCH   5   6
HETATM    6  C           1     -29.219  -5.089 -18.395  0.00  0.00     0.038 C 
BRANCH   6   7
HETATM    7  C           1     -28.633  -4.273 -17.250  0.00  0.00     0.030 C 
BRANCH   7   8
HETATM    8  C           1     -29.210  -2.864 -17.283  0.00  0.00     0.230 C 
BRANCH   8   9
HETATM    9  N           1     -30.665  -2.927 -17.642  0.00  0.00    -0.079 N 
HETATM   10  H           1     -30.985  -3.921 -17.625  0.00  0.00     0.274 HD
HETATM   11  H           1     -31.217  -2.371 -16.950  0.00  0.00     0.274 HD
HETATM   12  H           1     -30.805  -2.532 -18.599  0.00  0.00     0.274 HD
ENDBRANCH   8   9
ENDBRANCH   7   8
ENDBRANCH   6   7
ENDBRANCH   5   6
BRANCH   5  13
HETATM   13  C           1     -29.879  -7.473 -18.282  0.00  0.00     0.196 C 
HETATM   14  O           1     -29.905  -8.457 -19.054  0.00  0.00    -0.646 OA
HETATM   15  O           1     -30.824  -7.277 -17.487  0.00  0.00    -0.646 OA
ENDBRANCH   5  13
ENDBRANCH   1   5
BRANCH   2  16
HETATM   16  C           1     -25.662  -6.959 -20.594  0.00  0.00     0.283 C 
BRANCH  16  17
HETATM   17  C           1     -24.389  -7.663 -20.147  0.00  0.00     0.145 C 
BRANCH  17  18
HETATM   18  C           1     -23.724  -8.309 -21.338  0.00  0.00     0.217 C 
HETATM   19  N           1     -22.568  -9.023 -21.175  0.00  0.00    -0.370 N 
HETATM   20  H           1     -22.159  -9.119 -20.254  0.00  0.00     0.159 HD
HETATM   21  H           1     -22.123  -9.455 -21.973  0.00  0.00     0.159 HD
HETATM   22  O           1     -24.212  -8.194 -22.438  0.00  0.00    -0.274 OA
ENDBRANCH  17  18
ENDBRANCH  16  17
BRANCH  16  23
HETATM   23  N           1     -25.307  -5.675 -21.284  0.00  0.00    -0.066 N 
HETATM   24  H           1     -24.319  -5.725 -21.624  0.00  0.00     0.275 HD
HETATM   25  H           1     -25.403  -4.881 -20.613  0.00  0.00     0.275 HD
HETATM   26  H           1     -25.949  -5.526 -22.095  0.00  0.00     0.275 HD
ENDBRANCH  16  23
ENDBRANCH   2  16
TORSDOF 10
ENDMDL
MODEL 3
REMARK VINA RESULT:      -6.2      2.207      6.440
REMARK  10 active torsions:
REMARK  status: ('A' for Active; 'I' for Inactive)
REMARK    1  A    between atoms: C_6  and  C_25 
REMARK    2  A    between atoms: C_6  and  C_7 
REMARK    3  A    between atoms: C_7  and  C_8 
REMARK    4  A    between atoms: C_7  and  N_11 
REMARK       I    between atoms: N_11  and  C_12 
REMARK    5  A    between atoms: C_12  and  C_13 
REMARK    6  A    between atoms: C_13  and  C_14 
REMARK    7  A    between atoms: C_13  and  N_18 
REMARK    8  A    between atoms: C_14  and  C_15 
REMARK       I    between atoms: C_15  and  N_16 
REMARK    9  A    between atoms: N_23  and  C_24 
REMARK   10  A    between atoms: C_24  and  C_25 
ROOT
HETATM    1  N           1     -35.025  -1.638 -12.861  0.00  0.00    -0.345 N 
HETATM    2  C           1     -34.314  -2.566 -12.149  0.00  0.00     0.249 C 
HETATM    3  O           1     -33.738  -2.240 -11.138  0.00  0.00    -0.271 OA
HETATM    4  H           1     -35.508  -1.911 -13.707  0.00  0.00     0.163 HD
ENDROOT
BRANCH   1   5
HETATM    5  C           1     -35.086  -0.264 -12.402  0.00  0.00     0.185 C 
BRANCH   5   6
HETATM    6  C           1     -35.041   0.673 -13.601  0.00  0.00     0.038 C 
BRANCH   6   7
HETATM    7  C           1     -35.383  -0.102 -14.867  0.00  0.00     0.030 C 
BRANCH   7   8
HETATM    8  C           1     -36.695   0.416 -15.441  0.00  0.00     0.230 C 
BRANCH   8   9
HETATM    9  N           1     -36.465   1.745 -16.097  0.00  0.00    -0.079 N 
HETATM   10  H           1     -36.806   1.710 -17.084  0.00  0.00     0.274 HD
HETATM   11  H           1     -36.987   2.485 -15.574  0.00  0.00     0.274 HD
HETATM   12  H           1     -35.444   1.966 -16.088  0.00  0.00     0.274 HD
ENDBRANCH   8   9
ENDBRANCH   7   8
ENDBRANCH   6   7
ENDBRANCH   5   6
BRANCH   5  13
HETATM   13  C           1     -36.369  -0.045 -11.639  0.00  0.00     0.196 C 
HETATM   14  O           1     -37.447  -0.500 -12.083  0.00  0.00    -0.646 OA
HETATM   15  O           1     -36.357   0.593 -10.564  0.00  0.00    -0.646 OA
ENDBRANCH   5  13
ENDBRANCH   1   5
BRANCH   2  16
HETATM   16  C           1     -34.250  -3.996 -12.625  0.00  0.00     0.283 C 
BRANCH  16  17
HETATM   17  C           1     -33.469  -4.833 -11.621  0.00  0.00     0.145 C 
BRANCH  17  18
HETATM   18  C           1     -34.311  -6.003 -11.176  0.00  0.00     0.217 C 
HETATM   19  N           1     -34.989  -6.752 -12.101  0.00  0.00    -0.370 N 
HETATM   20  H           1     -34.924  -6.520 -13.084  0.00  0.00     0.159 HD
HETATM   21  H           1     -35.553  -7.535 -11.802  0.00  0.00     0.159 HD
HETATM   22  O           1     -34.389  -6.280 -10.002  0.00  0.00    -0.274 OA
ENDBRANCH  17  18
ENDBRANCH  16  17
BRANCH  16  23
HETATM   23  N           1     -33.565  -4.048 -13.959  0.00  0.00    -0.066 N 
HETATM   24  H           1     -33.112  -3.125 -14.153  0.00  0.00     0.275 HD
HETATM   25  H           1     -34.268  -4.254 -14.703  0.00  0.00     0.275 HD
HETATM   26  H           1     -32.839  -4.799 -13.948  0.00  0.00     0.275 HD
ENDBRANCH  16  23
ENDBRANCH   2  16
TORSDOF 10
ENDMDL
MODEL 4
REMARK VINA RESULT:      -6.2     10.124     12.580
REMARK  10 active torsions:
REMARK  status: ('A' for Active; 'I' for Inactive)
REMARK    1  A    between atoms: C_6  and  C_25 
REMARK    2  A    between atoms: C_6  and  C_7 
REMARK    3  A    between atoms: C_7  and  C_8 
REMARK    4  A    between atoms: C_7  and  N_11 
REMARK       I    between atoms: N_11  and  C_12 
REMARK    5  A    between atoms: C_12  and  C_13 
REMARK    6  A    between atoms: C_13  and  C_14 
REMARK    7  A    between atoms: C_13  and  N_18 
REMARK    8  A    between atoms: C_14  and  C_15 
REMARK       I    between atoms: C_15  and  N_16 
REMARK    9  A    between atoms: N_23  and  C_24 
REMARK   10  A    between atoms: C_24  and  C_25 
ROOT
HETATM    1  N           1     -26.993  -6.554 -18.104  0.00  0.00    -0.345 N 
HETATM    2  C           1     -25.860  -6.788 -18.835  0.00  0.00     0.249 C 
HETATM    3  O           1     -24.784  -6.432 -18.414  0.00  0.00    -0.271 OA
HETATM    4  H           1     -27.893  -6.853 -18.456  0.00  0.00     0.163 HD
ENDROOT
BRANCH   1   5
HETATM    5  C           1     -26.903  -5.881 -16.823  0.00  0.00     0.185 C 
BRANCH   5   6
HETATM    6  C           1     -28.145  -5.027 -16.610  0.00  0.00     0.038 C 
BRANCH   6   7
HETATM    7  C           1     -28.894  -4.881 -17.929  0.00  0.00     0.030 C 
BRANCH   7   8
HETATM    8  C           1     -30.086  -3.953 -17.735  0.00  0.00     0.230 C 
BRANCH   8   9
HETATM    9  N           1     -29.608  -2.534 -17.647  0.00  0.00    -0.079 N 
HETATM   10  H           1     -29.672  -2.086 -18.589  0.00  0.00     0.274 HD
HETATM   11  H           1     -30.206  -2.008 -16.970  0.00  0.00     0.274 HD
HETATM   12  H           1     -28.616  -2.521 -17.322  0.00  0.00     0.274 HD
ENDBRANCH   8   9
ENDBRANCH   7   8
ENDBRANCH   6   7
ENDBRANCH   5   6
BRANCH   5  13
HETATM   13  C           1     -26.801  -6.906 -15.721  0.00  0.00     0.196 C 
HETATM   14  O           1     -25.685  -7.366 -15.395  0.00  0.00    -0.646 OA
HETATM   15  O           1     -27.833  -7.298 -15.134  0.00  0.00    -0.646 OA
ENDBRANCH   5  13
ENDBRANCH   1   5
BRANCH   2  16
HETATM   16  C           1     -25.952  -7.489 -20.168  0.00  0.00     0.283 C 
BRANCH  16  17
HETATM   17  C           1     -24.949  -6.878 -21.136  0.00  0.00     0.145 C 
BRANCH  17  18
HETATM   18  C           1     -24.089  -7.970 -21.725  0.00  0.00     0.217 C 
HETATM   19  N           1     -23.204  -8.650 -20.932  0.00  0.00    -0.370 N 
HETATM   20  H           1     -23.127  -8.420 -19.949  0.00  0.00     0.159 HD
HETATM   21  H           1     -22.628  -9.380 -21.327  0.00  0.00     0.159 HD
HETATM   22  O           1     -24.180  -8.244 -22.899  0.00  0.00    -0.274 OA
ENDBRANCH  17  18
ENDBRANCH  16  17
BRANCH  16  23
HETATM   23  N           1     -27.339  -7.330 -20.720  0.00  0.00    -0.066 N 
HETATM   24  H           1     -27.282  -7.059 -21.728  0.00  0.00     0.275 HD
HETATM   25  H           1     -27.842  -6.585 -20.188  0.00  0.00     0.275 HD
HETATM   26  H           1     -27.855  -8.233 -20.628  0.00  0.00     0.275 HD
ENDBRANCH  16  23
ENDBRANCH   2  16
TORSDOF 10
ENDMDL
MODEL 5
REMARK VINA RESULT:      -6.1      8.828     11.387
REMARK  10 active torsions:
REMARK  status: ('A' for Active; 'I' for Inactive)
REMARK    1  A    between atoms: C_6  and  C_25 
REMARK    2  A    between atoms: C_6  and  C_7 
REMARK    3  A    between atoms: C_7  and  C_8 
REMARK    4  A    between atoms: C_7  and  N_11 
REMARK       I    between atoms: N_11  and  C_12 
REMARK    5  A    between atoms: C_12  and  C_13 
REMARK    6  A    between atoms: C_13  and  C_14 
REMARK    7  A    between atoms: C_13  and  N_18 
REMARK    8  A    between atoms: C_14  and  C_15 
REMARK       I    between atoms: C_15  and  N_16 
REMARK    9  A    between atoms: N_23  and  C_24 
REMARK   10  A    between atoms: C_24  and  C_25 
ROOT
HETATM    1  N           1     -27.670  -6.603 -17.045  0.00  0.00    -0.345 N 
HETATM    2  C           1     -26.532  -6.940 -16.364  0.00  0.00     0.249 C 
HETATM    3  O           1     -26.607  -7.374 -15.238  0.00  0.00    -0.271 OA
HETATM    4  H           1     -27.607  -6.240 -17.987  0.00  0.00     0.163 HD
ENDROOT
BRANCH   1   5
HETATM    5  C           1     -28.966  -6.767 -16.416  0.00  0.00     0.185 C 
BRANCH   5   6
HETATM    6  C           1     -29.486  -5.409 -15.962  0.00  0.00     0.038 C 
BRANCH   6   7
HETATM    7  C           1     -28.863  -4.314 -16.818  0.00  0.00     0.030 C 
BRANCH   7   8
HETATM    8  C           1     -29.931  -3.697 -17.711  0.00  0.00     0.230 C 
BRANCH   8   9
HETATM    9  N           1     -31.280  -3.885 -17.081  0.00  0.00    -0.079 N 
HETATM   10  H           1     -31.172  -4.387 -16.171  0.00  0.00     0.274 HD
HETATM   11  H           1     -31.718  -2.951 -16.914  0.00  0.00     0.274 HD
HETATM   12  H           1     -31.886  -4.447 -17.719  0.00  0.00     0.274 HD
ENDBRANCH   8   9
ENDBRANCH   7   8
ENDBRANCH   6   7
ENDBRANCH   5   6
BRANCH   5  13
HETATM   13  C           1     -29.932  -7.372 -17.405  0.00  0.00     0.196 C 
HETATM   14  O           1     -29.541  -8.250 -18.205  0.00  0.00    -0.646 OA
HETATM   15  O           1     -31.124  -6.994 -17.425  0.00  0.00    -0.646 OA
ENDBRANCH   5  13
ENDBRANCH   1   5
BRANCH   2  16
HETATM   16  C           1     -25.183  -6.770 -17.017  0.00  0.00     0.283 C 
BRANCH  16  17
HETATM   17  C           1     -25.342  -6.809 -18.531  0.00  0.00     0.145 C 
BRANCH  17  18
HETATM   18  C           1     -24.017  -7.151 -19.169  0.00  0.00     0.217 C 
HETATM   19  N           1     -23.968  -8.026 -20.221  0.00  0.00    -0.370 N 
HETATM   20  H           1     -24.822  -8.443 -20.571  0.00  0.00     0.159 HD
HETATM   21  H           1     -23.081  -8.255 -20.648  0.00  0.00     0.159 HD
HETATM   22  O           1     -22.999  -6.653 -18.750  0.00  0.00    -0.274 OA
ENDBRANCH  17  18
ENDBRANCH  16  17
BRANCH  16  23
HETATM   23  N           1     -24.274  -7.883 -16.582  0.00  0.00    -0.066 N 
HETATM   24  H           1     -24.668  -8.339 -15.728  0.00  0.00     0.275 HD
HETATM   25  H           1     -23.329  -7.495 -16.365  0.00  0.00     0.275 HD
HETATM   26  H           1     -24.194  -8.586 -17.350  0.00  0.00     0.275 HD
ENDBRANCH  16  23
ENDBRANCH   2  16
TORSDOF 10
ENDMDL
MODEL 6
REMARK VINA RESULT:      -5.8     10.112     12.144
REMARK  10 active torsions:
REMARK  status: ('A' for Active; 'I' for Inactive)
REMARK    1  A    between atoms: C_6  and  C_25 
REMARK    2  A    between atoms: C_6  and  C_7 
REMARK    3  A    between atoms: C_7  and  C_8 
REMARK    4  A    between atoms: C_7  and  N_11 
REMARK       I    between atoms: N_11  and  C_12 
REMARK    5  A    between atoms: C_12  and  C_13 
REMARK    6  A    between atoms: C_13  and  C_14 
REMARK    7  A    between atoms: C_13  and  N_18 
REMARK    8  A    between atoms: C_14  and  C_15 
REMARK       I    between atoms: C_15  and  N_16 
REMARK    9  A    between atoms: N_23  and  C_24 
REMARK   10  A    between atoms: C_24  and  C_25 
ROOT
HETATM    1  N           1     -27.453  -7.143 -19.227  0.00  0.00    -0.345 N 
HETATM    2  C           1     -28.361  -6.243 -18.737  0.00  0.00     0.249 C 
HETATM    3  O           1     -28.599  -5.230 -19.351  0.00  0.00    -0.271 OA
HETATM    4  H           1     -27.255  -7.992 -18.713  0.00  0.00     0.163 HD
ENDROOT
BRANCH   1   5
HETATM    5  C           1     -26.779  -6.881 -20.483  0.00  0.00     0.185 C 
BRANCH   5   6
HETATM    6  C           1     -25.382  -6.343 -20.207  0.00  0.00     0.038 C 
BRANCH   6   7
HETATM    7  C           1     -24.886  -6.878 -18.869  0.00  0.00     0.030 C 
BRANCH   7   8
HETATM    8  C           1     -23.407  -7.221 -18.975  0.00  0.00     0.230 C 
BRANCH   8   9
HETATM    9  N           1     -23.178  -8.083 -20.181  0.00  0.00    -0.079 N 
HETATM   10  H           1     -23.716  -7.701 -20.990  0.00  0.00     0.274 HD
HETATM   11  H           1     -22.159  -8.092 -20.413  0.00  0.00     0.274 HD
HETATM   12  H           1     -23.498  -9.057 -19.979  0.00  0.00     0.274 HD
ENDBRANCH   8   9
ENDBRANCH   7   8
ENDBRANCH   6   7
ENDBRANCH   5   6
BRANCH   5  13
HETATM   13  C           1     -26.679  -8.160 -21.277  0.00  0.00     0.196 C 
HETATM   14  O           1     -25.587  -8.496 -21.787  0.00  0.00    -0.646 OA
HETATM   15  O           1     -27.687  -8.884 -21.428  0.00  0.00    -0.646 OA
ENDBRANCH   5  13
ENDBRANCH   1   5
BRANCH   2  16
HETATM   16  C           1     -29.064  -6.516 -17.430  0.00  0.00     0.283 C 
BRANCH  16  17
HETATM   17  C           1     -28.248  -5.937 -16.282  0.00  0.00     0.145 C 
BRANCH  17  18
HETATM   18  C           1     -27.472  -7.043 -15.608  0.00  0.00     0.217 C 
HETATM   19  N           1     -26.159  -7.255 -15.932  0.00  0.00    -0.370 N 
HETATM   20  H           1     -25.708  -6.670 -16.623  0.00  0.00     0.159 HD
HETATM   21  H           1     -25.640  -7.996 -15.480  0.00  0.00     0.159 HD
HETATM   22  O           1     -28.011  -7.742 -14.782  0.00  0.00    -0.274 OA
ENDBRANCH  17  18
ENDBRANCH  16  17
BRANCH  16  23
HETATM   23  N           1     -29.210  -7.998 -17.241  0.00  0.00    -0.066 N 
HETATM   24  H           1     -28.517  -8.495 -17.847  0.00  0.00     0.275 HD
HETATM   25  H           1     -30.177  -8.289 -17.508  0.00  0.00     0.275 HD
HETATM   26  H           1     -29.037  -8.239 -16.240  0.00  0.00     0.275 HD
ENDBRANCH  16  23
ENDBRANCH   2  16
TORSDOF 10
ENDMDL
MODEL 7
REMARK VINA RESULT:      -5.6      9.443     11.143
REMARK  10 active torsions:
REMARK  status: ('A' for Active; 'I' for Inactive)
REMARK    1  A    between atoms: C_6  and  C_25 
REMARK    2  A    between atoms: C_6  and  C_7 
REMARK    3  A    between atoms: C_7  and  C_8 
REMARK    4  A    between atoms: C_7  and  N_11 
REMARK       I    between atoms: N_11  and  C_12 
REMARK    5  A    between atoms: C_12  and  C_13 
REMARK    6  A    between atoms: C_13  and  C_14 
REMARK    7  A    between atoms: C_13  and  N_18 
REMARK    8  A    between atoms: C_14  and  C_15 
REMARK       I    between atoms: C_15  and  N_16 
REMARK    9  A    between atoms: N_23  and  C_24 
REMARK   10  A    between atoms: C_24  and  C_25 
ROOT
HETATM    1  N           1     -27.635  -7.162 -19.160  0.00  0.00    -0.345 N 
HETATM    2  C           1     -28.487  -6.216 -18.657  0.00  0.00     0.249 C 
HETATM    3  O           1     -28.578  -5.138 -19.194  0.00  0.00    -0.271 OA
HETATM    4  H           1     -27.560  -8.065 -18.710  0.00  0.00     0.163 HD
ENDROOT
BRANCH   1   5
HETATM    5  C           1     -26.843  -6.870 -20.338  0.00  0.00     0.185 C 
BRANCH   5   6
HETATM    6  C           1     -25.460  -6.394 -19.914  0.00  0.00     0.038 C 
BRANCH   6   7
HETATM    7  C           1     -25.231  -6.737 -18.447  0.00  0.00     0.030 C 
BRANCH   7   8
HETATM    8  C           1     -23.819  -7.278 -18.266  0.00  0.00     0.230 C 
BRANCH   8   9
HETATM    9  N           1     -23.656  -7.796 -16.868  0.00  0.00    -0.079 N 
HETATM   10  H           1     -22.716  -8.241 -16.769  0.00  0.00     0.274 HD
HETATM   11  H           1     -23.739  -7.003 -16.192  0.00  0.00     0.274 HD
HETATM   12  H           1     -24.399  -8.503 -16.670  0.00  0.00     0.274 HD
ENDBRANCH   8   9
ENDBRANCH   7   8
ENDBRANCH   6   7
ENDBRANCH   5   6
BRANCH   5  13
HETATM   13  C           1     -26.712  -8.116 -21.178  0.00  0.00     0.196 C 
HETATM   14  O           1     -27.723  -8.805 -21.437  0.00  0.00    -0.646 OA
HETATM   15  O           1     -25.592  -8.461 -21.615  0.00  0.00    -0.646 OA
ENDBRANCH   5  13
ENDBRANCH   1   5
BRANCH   2  16
HETATM   16  C           1     -29.313  -6.519 -17.431  0.00  0.00     0.283 C 
BRANCH  16  17
HETATM   17  C           1     -29.660  -5.221 -16.716  0.00  0.00     0.145 C 
BRANCH  17  18
HETATM   18  C           1     -31.127  -4.919 -16.901  0.00  0.00     0.217 C 
HETATM   19  N           1     -32.042  -5.938 -16.900  0.00  0.00    -0.370 N 
HETATM   20  H           1     -31.733  -6.894 -16.774  0.00  0.00     0.159 HD
HETATM   21  H           1     -33.024  -5.735 -17.024  0.00  0.00     0.159 HD
HETATM   22  O           1     -31.495  -3.778 -17.052  0.00  0.00    -0.274 OA
ENDBRANCH  17  18
ENDBRANCH  16  17
BRANCH  16  23
HETATM   23  N           1     -28.529  -7.404 -16.507  0.00  0.00    -0.066 N 
HETATM   24  H           1     -28.020  -6.814 -15.810  0.00  0.00     0.275 HD
HETATM   25  H           1     -27.840  -7.961 -17.060  0.00  0.00     0.275 HD
HETATM   26  H           1     -29.180  -8.051 -16.009  0.00  0.00     0.275 HD
ENDBRANCH  16  23
ENDBRANCH   2  16
TORSDOF 10
ENDMDL
MODEL 8
REMARK VINA RESULT:      -5.5     13.654     15.220
REMARK  10 active torsions:
REMARK  status: ('A' for Active; 'I' for Inactive)
REMARK    1  A    between atoms: C_6  and  C_25 
REMARK    2  A    between atoms: C_6  and  C_7 
REMARK    3  A    between atoms: C_7  and  C_8 
REMARK    4  A    between atoms: C_7  and  N_11 
REMARK       I    between atoms: N_11  and  C_12 
REMARK    5  A    between atoms: C_12  and  C_13 
REMARK    6  A    between atoms: C_13  and  C_14 
REMARK    7  A    between atoms: C_13  and  N_18 
REMARK    8  A    between atoms: C_14  and  C_15 
REMARK       I    between atoms: C_15  and  N_16 
REMARK    9  A    between atoms: N_23  and  C_24 
REMARK   10  A    between atoms: C_24  and  C_25 
ROOT
HETATM    1  N           1     -21.352  -6.359  -6.316  0.00  0.00    -0.345 N 
HETATM    2  C           1     -21.132  -5.114  -6.839  0.00  0.00     0.249 C 
HETATM    3  O           1     -20.486  -4.303  -6.218  0.00  0.00    -0.271 OA
HETATM    4  H           1     -21.892  -7.038  -6.837  0.00  0.00     0.163 HD
ENDROOT
BRANCH   1   5
HETATM    5  C           1     -20.809  -6.706  -5.018  0.00  0.00     0.185 C 
BRANCH   5   6
HETATM    6  C           1     -21.940  -6.793  -4.001  0.00  0.00     0.038 C 
BRANCH   6   7
HETATM    7  C           1     -21.556  -6.019  -2.746  0.00  0.00     0.030 C 
BRANCH   7   8
HETATM    8  C           1     -22.080  -6.752  -1.518  0.00  0.00     0.230 C 
BRANCH   8   9
HETATM    9  N           1     -21.802  -8.219  -1.653  0.00  0.00    -0.079 N 
HETATM   10  H           1     -21.997  -8.696  -0.744  0.00  0.00     0.274 HD
HETATM   11  H           1     -22.416  -8.622  -2.397  0.00  0.00     0.274 HD
HETATM   12  H           1     -20.800  -8.361  -1.912  0.00  0.00     0.274 HD
ENDBRANCH   8   9
ENDBRANCH   7   8
ENDBRANCH   6   7
ENDBRANCH   5   6
BRANCH   5  13
HETATM   13  C           1     -20.107  -8.039  -5.105  0.00  0.00     0.196 C 
HETATM   14  O           1     -20.344  -8.928  -4.257  0.00  0.00    -0.646 OA
HETATM   15  O           1     -19.289  -8.256  -6.025  0.00  0.00    -0.646 OA
ENDBRANCH   5  13
ENDBRANCH   1   5
BRANCH   2  16
HETATM   16  C           1     -21.696  -4.752  -8.191  0.00  0.00     0.283 C 
BRANCH  16  17
HETATM   17  C           1     -20.567  -4.311  -9.112  0.00  0.00     0.145 C 
BRANCH  17  18
HETATM   18  C           1     -21.107  -4.100 -10.506  0.00  0.00     0.217 C 
HETATM   19  N           1     -20.400  -3.353 -11.409  0.00  0.00    -0.370 N 
HETATM   20  H           1     -19.514  -2.942 -11.142  0.00  0.00     0.159 HD
HETATM   21  H           1     -20.762  -3.212 -12.343  0.00  0.00     0.159 HD
HETATM   22  O           1     -22.165  -4.590 -10.825  0.00  0.00    -0.274 OA
ENDBRANCH  17  18
ENDBRANCH  16  17
BRANCH  16  23
HETATM   23  N           1     -22.682  -3.630  -8.037  0.00  0.00    -0.066 N 
HETATM   24  H           1     -22.176  -2.760  -7.752  0.00  0.00     0.275 HD
HETATM   25  H           1     -23.382  -3.881  -7.303  0.00  0.00     0.275 HD
HETATM   26  H           1     -23.171  -3.470  -8.946  0.00  0.00     0.275 HD
ENDBRANCH  16  23
ENDBRANCH   2  16
TORSDOF 10
ENDMDL
MODEL 9
REMARK VINA RESULT:      -5.5     13.501     15.105
REMARK  10 active torsions:
REMARK  status: ('A' for Active; 'I' for Inactive)
REMARK    1  A    between atoms: C_6  and  C_25 
REMARK    2  A    between atoms: C_6  and  C_7 
REMARK    3  A    between atoms: C_7  and  C_8 
REMARK    4  A    between atoms: C_7  and  N_11 
REMARK       I    between atoms: N_11  and  C_12 
REMARK    5  A    between atoms: C_12  and  C_13 
REMARK    6  A    between atoms: C_13  and  C_14 
REMARK    7  A    between atoms: C_13  and  N_18 
REMARK    8  A    between atoms: C_14  and  C_15 
REMARK       I    between atoms: C_15  and  N_16 
REMARK    9  A    between atoms: N_23  and  C_24 
REMARK   10  A    between atoms: C_24  and  C_25 
ROOT
HETATM    1  N           1     -21.451  -6.074  -5.783  0.00  0.00    -0.345 N 
HETATM    2  C           1     -20.802  -4.891  -6.013  0.00  0.00     0.249 C 
HETATM    3  O           1     -20.023  -4.460  -5.196  0.00  0.00    -0.271 OA
HETATM    4  H           1     -22.102  -6.435  -6.468  0.00  0.00     0.163 HD
ENDROOT
BRANCH   1   5
HETATM    5  C           1     -21.203  -6.810  -4.559  0.00  0.00     0.185 C 
BRANCH   5   6
HETATM    6  C           1     -22.324  -6.535  -3.566  0.00  0.00     0.038 C 
BRANCH   6   7
HETATM    7  C           1     -21.729  -6.046  -2.251  0.00  0.00     0.030 C 
BRANCH   7   8
HETATM    8  C           1     -22.291  -6.872  -1.101  0.00  0.00     0.230 C 
BRANCH   8   9
HETATM    9  N           1     -21.562  -8.181  -1.022  0.00  0.00    -0.079 N 
HETATM   10  H           1     -21.946  -8.837  -1.739  0.00  0.00     0.274 HD
HETATM   11  H           1     -20.545  -8.023  -1.204  0.00  0.00     0.274 HD
HETATM   12  H           1     -21.688  -8.592  -0.071  0.00  0.00     0.274 HD
ENDBRANCH   8   9
ENDBRANCH   7   8
ENDBRANCH   6   7
ENDBRANCH   5   6
BRANCH   5  13
HETATM   13  C           1     -21.150  -8.288  -4.862  0.00  0.00     0.196 C 
HETATM   14  O           1     -21.178  -9.119  -3.928  0.00  0.00    -0.646 OA
HETATM   15  O           1     -21.077  -8.681  -6.046  0.00  0.00    -0.646 OA
ENDBRANCH   5  13
ENDBRANCH   1   5
BRANCH   2  16
HETATM   16  C           1     -21.058  -4.125  -7.287  0.00  0.00     0.283 C 
BRANCH  16  17
HETATM   17  C           1     -22.038  -4.899  -8.159  0.00  0.00     0.145 C 
BRANCH  17  18
HETATM   18  C           1     -22.836  -3.933  -8.999  0.00  0.00     0.217 C 
HETATM   19  N           1     -24.129  -3.636  -8.661  0.00  0.00    -0.370 N 
HETATM   20  H           1     -24.549  -4.064  -7.845  0.00  0.00     0.159 HD
HETATM   21  H           1     -24.664  -2.989  -9.224  0.00  0.00     0.159 HD
HETATM   22  O           1     -22.335  -3.421  -9.973  0.00  0.00    -0.274 OA
ENDBRANCH  17  18
ENDBRANCH  16  17
BRANCH  16  23
HETATM   23  N           1     -19.766  -3.943  -8.029  0.00  0.00    -0.066 N 
HETATM   24  H           1     -19.563  -2.922  -8.129  0.00  0.00     0.275 HD
HETATM   25  H           1     -19.844  -4.377  -8.976  0.00  0.00     0.275 HD
HETATM   26  H           1     -18.993  -4.403  -7.498  0.00  0.00     0.275 HD
ENDBRANCH  16  23
ENDBRANCH   2  16
TORSDOF 10
ENDMDL
