MODEL 1
REMARK VINA RESULT:      -6.4      0.000      0.000
REMARK  11 active torsions:
REMARK  status: ('A' for Active; 'I' for Inactive)
REMARK    1  A    between atoms: O_2  and  P_3 
REMARK    2  A    between atoms: P_3  and  O_4 
REMARK    3  A    between atoms: O_4  and  C_5 
REMARK    4  A    between atoms: C_5  and  C_6 
REMARK    5  A    between atoms: C_6  and  C_7 
REMARK    6  A    between atoms: C_6  and  N_24 
REMARK       I    between atoms: C_7  and  N_8 
REMARK    7  A    between atoms: N_8  and  C_12 
REMARK    8  A    between atoms: C_11  and  C_12 
REMARK    9  A    between atoms: C_12  and  C_13 
REMARK   10  A    between atoms: C_13  and  C_14 
REMARK   11  A    between atoms: C_14  and  C_16 
ROOT
HETATM    1  C           1     -26.750  -5.970 -16.658  0.00  0.00     0.251 C 
HETATM    2  N           1     -27.563  -6.380 -17.681  0.00  0.00    -0.345 N 
HETATM    3  H           1     -27.172  -6.888 -18.465  0.00  0.00     0.163 HD
HETATM    4  O           1     -27.216  -5.364 -15.723  0.00  0.00    -0.271 OA
ENDROOT
BRANCH   1   5
HETATM    5  C           1     -25.273  -6.275 -16.699  0.00  0.00     0.298 C 
BRANCH   5   6
HETATM    6  C           1     -24.974  -7.186 -17.882  0.00  0.00     0.224 C 
BRANCH   6   7
HETATM    7  O           1     -24.734  -6.407 -19.023  0.00  0.00    -0.287 OA
BRANCH   7   8
HETATM    8  P           1     -25.186  -7.056 -20.431  0.00  0.00     0.406 P 
HETATM    9  O           1     -25.135  -6.022 -21.489  0.00  0.00    -0.624 OA
HETATM   10  O           1     -24.269  -8.165 -20.779  0.00  0.00    -0.624 OA
BRANCH   8  11
HETATM   11  O           1     -26.693  -7.623 -20.305  0.00  0.00    -0.300 OA
HETATM   12  H           1     -27.247  -6.872 -20.430  0.00  0.00     0.223 HD
ENDBRANCH   8  11
ENDBRANCH   7   8
ENDBRANCH   6   7
ENDBRANCH   5   6
BRANCH   5  13
HETATM   13  N           1     -24.870  -6.961 -15.427  0.00  0.00    -0.064 N 
HETATM   14  H           1     -24.469  -7.899 -15.649  0.00  0.00     0.275 HD
HETATM   15  H           1     -25.708  -7.075 -14.812  0.00  0.00     0.275 HD
HETATM   16  H           1     -24.152  -6.384 -14.933  0.00  0.00     0.275 HD
ENDBRANCH   5  13
ENDBRANCH   1   5
BRANCH   2  17
HETATM   17  C           1     -28.982  -6.086 -17.642  0.00  0.00     0.186 C 
BRANCH  17  18
HETATM   18  C           1     -29.753  -7.258 -18.197  0.00  0.00     0.196 C 
HETATM   19  O           1     -29.223  -8.014 -19.040  0.00  0.00    -0.646 OA
HETATM   20  O           1     -30.923  -7.473 -17.813  0.00  0.00    -0.646 OA
ENDBRANCH  17  18
BRANCH  17  21
HETATM   21  C           1     -29.265  -4.847 -18.482  0.00  0.00     0.046 C 
BRANCH  21  22
HETATM   22  C           1     -29.639  -3.688 -17.568  0.00  0.00     0.116 C 
BRANCH  22  23
HETATM   23  C           1     -31.123  -3.719 -17.296  0.00  0.00     0.172 C 
HETATM   24  O           1     -31.581  -4.469 -16.407  0.00  0.00    -0.648 OA
HETATM   25  O           1     -31.895  -2.994 -17.960  0.00  0.00    -0.648 OA
ENDBRANCH  22  23
ENDBRANCH  21  22
ENDBRANCH  17  21
ENDBRANCH   2  17
TORSDOF 11
ENDMDL
MODEL 2
REMARK VINA RESULT:      -6.2      4.504      8.255
REMARK  11 active torsions:
REMARK  status: ('A' for Active; 'I' for Inactive)
REMARK    1  A    between atoms: O_2  and  P_3 
REMARK    2  A    between atoms: P_3  and  O_4 
REMARK    3  A    between atoms: O_4  and  C_5 
REMARK    4  A    between atoms: C_5  and  C_6 
REMARK    5  A    between atoms: C_6  and  C_7 
REMARK    6  A    between atoms: C_6  and  N_24 
REMARK       I    between atoms: C_7  and  N_8 
REMARK    7  A    between atoms: N_8  and  C_12 
REMARK    8  A    between atoms: C_11  and  C_12 
REMARK    9  A    between atoms: C_12  and  C_13 
REMARK   10  A    between atoms: C_13  and  C_14 
REMARK   11  A    between atoms: C_14  and  C_16 
ROOT
HETATM    1  C           1     -32.561  -4.307 -16.827  0.00  0.00     0.251 C 
HETATM    2  N           1     -31.950  -5.524 -16.682  0.00  0.00    -0.345 N 
HETATM    3  H           1     -32.409  -6.262 -16.161  0.00  0.00     0.163 HD
HETATM    4  O           1     -32.012  -3.427 -17.447  0.00  0.00    -0.271 OA
ENDROOT
BRANCH   1   5
HETATM    5  C           1     -33.917  -4.065 -16.213  0.00  0.00     0.298 C 
BRANCH   5   6
HETATM    6  C           1     -34.416  -2.682 -16.610  0.00  0.00     0.224 C 
BRANCH   6   7
HETATM    7  O           1     -35.036  -2.074 -15.510  0.00  0.00    -0.287 OA
BRANCH   7   8
HETATM    8  P           1     -35.917  -0.759 -15.830  0.00  0.00     0.406 P 
HETATM    9  O           1     -37.148  -0.778 -15.009  0.00  0.00    -0.624 OA
HETATM   10  O           1     -35.128   0.452 -15.511  0.00  0.00    -0.624 OA
BRANCH   8  11
HETATM   11  O           1     -36.315  -0.745 -17.395  0.00  0.00    -0.300 OA
HETATM   12  H           1     -36.858  -1.504 -17.515  0.00  0.00     0.223 HD
ENDBRANCH   8  11
ENDBRANCH   7   8
ENDBRANCH   6   7
ENDBRANCH   5   6
BRANCH   5  13
HETATM   13  N           1     -33.810  -4.147 -14.719  0.00  0.00    -0.064 N 
HETATM   14  H           1     -33.340  -5.040 -14.452  0.00  0.00     0.275 HD
HETATM   15  H           1     -34.768  -4.116 -14.299  0.00  0.00     0.275 HD
HETATM   16  H           1     -33.250  -3.339 -14.365  0.00  0.00     0.275 HD
ENDBRANCH   5  13
ENDBRANCH   1   5
BRANCH   2  17
HETATM   17  C           1     -30.646  -5.756 -17.272  0.00  0.00     0.186 C 
BRANCH  17  18
HETATM   18  C           1     -30.558  -7.185 -17.747  0.00  0.00     0.196 C 
HETATM   19  O           1     -29.792  -7.990 -17.173  0.00  0.00    -0.646 OA
HETATM   20  O           1     -31.250  -7.565 -18.716  0.00  0.00    -0.646 OA
ENDBRANCH  17  18
BRANCH  17  21
HETATM   21  C           1     -29.566  -5.500 -16.228  0.00  0.00     0.046 C 
BRANCH  21  22
HETATM   22  C           1     -28.472  -4.631 -16.834  0.00  0.00     0.116 C 
BRANCH  22  23
HETATM   23  C           1     -27.235  -5.465 -17.063  0.00  0.00     0.172 C 
HETATM   24  O           1     -27.145  -6.183 -18.083  0.00  0.00    -0.648 OA
HETATM   25  O           1     -26.301  -5.438 -16.233  0.00  0.00    -0.648 OA
ENDBRANCH  22  23
ENDBRANCH  21  22
ENDBRANCH  17  21
ENDBRANCH   2  17
TORSDOF 11
ENDMDL
MODEL 3
REMARK VINA RESULT:      -6.2      9.367     11.409
REMARK  11 active torsions:
REMARK  status: ('A' for Active; 'I' for Inactive)
REMARK    1  A    between atoms: O_2  and  P_3 
REMARK    2  A    between atoms: P_3  and  O_4 
REMARK    3  A    between atoms: O_4  and  C_5 
REMARK    4  A    between atoms: C_5  and  C_6 
REMARK    5  A    between atoms: C_6  and  C_7 
REMARK    6  A    between atoms: C_6  and  N_24 
REMARK       I    between atoms: C_7  and  N_8 
REMARK    7  A    between atoms: N_8  and  C_12 
REMARK    8  A    between atoms: C_11  and  C_12 
REMARK    9  A    between atoms: C_12  and  C_13 
REMARK   10  A    between atoms: C_13  and  C_14 
REMARK   11  A    between atoms: C_14  and  C_16 
ROOT
HETATM    1  C           1     -35.449  -1.820 -10.842  0.00  0.00     0.251 C 
HETATM    2  N           1     -35.732  -3.134 -11.101  0.00  0.00    -0.345 N 
HETATM    3  H           1     -36.695  -3.439 -11.178  0.00  0.00     0.163 HD
HETATM    4  O           1     -34.301  -1.457 -10.748  0.00  0.00    -0.271 OA
ENDROOT
BRANCH   1   5
HETATM    5  C           1     -36.571  -0.825 -10.672  0.00  0.00     0.298 C 
BRANCH   5   6
HETATM    6  C           1     -36.812  -0.100 -11.990  0.00  0.00     0.224 C 
BRANCH   6   7
HETATM    7  O           1     -36.657  -1.000 -13.054  0.00  0.00    -0.287 OA
BRANCH   7   8
HETATM    8  P           1     -35.740  -0.493 -14.282  0.00  0.00     0.406 P 
HETATM    9  O           1     -36.548   0.359 -15.183  0.00  0.00    -0.624 OA
HETATM   10  O           1     -34.598   0.289 -13.755  0.00  0.00    -0.624 OA
BRANCH   8  11
HETATM   11  O           1     -35.184  -1.769 -15.103  0.00  0.00    -0.300 OA
HETATM   12  H           1     -35.954  -2.248 -15.357  0.00  0.00     0.223 HD
ENDBRANCH   8  11
ENDBRANCH   7   8
ENDBRANCH   6   7
ENDBRANCH   5   6
BRANCH   5  13
HETATM   13  N           1     -36.199   0.171  -9.614  0.00  0.00    -0.064 N 
HETATM   14  H           1     -36.909   0.937  -9.592  0.00  0.00     0.275 HD
HETATM   15  H           1     -35.258   0.573  -9.831  0.00  0.00     0.275 HD
HETATM   16  H           1     -36.169  -0.304  -8.684  0.00  0.00     0.275 HD
ENDBRANCH   5  13
ENDBRANCH   1   5
BRANCH   2  17
HETATM   17  C           1     -34.654  -4.090 -11.263  0.00  0.00     0.186 C 
BRANCH  17  18
HETATM   18  C           1     -34.469  -4.395 -12.729  0.00  0.00     0.196 C 
HETATM   19  O           1     -33.639  -3.748 -13.403  0.00  0.00    -0.646 OA
HETATM   20  O           1     -35.148  -5.295 -13.270  0.00  0.00    -0.646 OA
ENDBRANCH  17  18
BRANCH  17  21
HETATM   21  C           1     -34.998  -5.373 -10.516  0.00  0.00     0.046 C 
BRANCH  21  22
HETATM   22  C           1     -33.844  -6.359 -10.642  0.00  0.00     0.116 C 
BRANCH  22  23
HETATM   23  C           1     -34.282  -7.713 -10.141  0.00  0.00     0.172 C 
HETATM   24  O           1     -35.420  -7.859  -9.645  0.00  0.00    -0.648 OA
HETATM   25  O           1     -33.505  -8.689 -10.222  0.00  0.00    -0.648 OA
ENDBRANCH  22  23
ENDBRANCH  21  22
ENDBRANCH  17  21
ENDBRANCH   2  17
TORSDOF 11
ENDMDL
MODEL 4
REMARK VINA RESULT:      -5.9     11.729     14.209
REMARK  11 active torsions:
REMARK  status: ('A' for Active; 'I' for Inactive)
REMARK    1  A    between atoms: O_2  and  P_3 
REMARK    2  A    between atoms: P_3  and  O_4 
REMARK    3  A    between atoms: O_4  and  C_5 
REMARK    4  A    between atoms: C_5  and  C_6 
REMARK    5  A    between atoms: C_6  and  C_7 
REMARK    6  A    between atoms: C_6  and  N_24 
REMARK       I    between atoms: C_7  and  N_8 
REMARK    7  A    between atoms: N_8  and  C_12 
REMARK    8  A    between atoms: C_11  and  C_12 
REMARK    9  A    between atoms: C_12  and  C_13 
REMARK   10  A    between atoms: C_13  and  C_14 
REMARK   11  A    between atoms: C_14  and  C_16 
ROOT
HETATM    1  C           1     -20.840  -4.783  -6.433  0.00  0.00     0.251 C 
HETATM    2  N           1     -21.594  -5.767  -5.854  0.00  0.00    -0.345 N 
HETATM    3  H           1     -22.496  -6.010  -6.244  0.00  0.00     0.163 HD
HETATM    4  O           1     -19.764  -4.493  -5.967  0.00  0.00    -0.271 OA
ENDROOT
BRANCH   1   5
HETATM    5  C           1     -21.353  -4.059  -7.654  0.00  0.00     0.298 C 
BRANCH   5   6
HETATM    6  C           1     -22.558  -4.801  -8.217  0.00  0.00     0.224 C 
BRANCH   6   7
HETATM    7  O           1     -23.490  -3.876  -8.707  0.00  0.00    -0.287 OA
BRANCH   7   8
HETATM    8  P           1     -23.727  -3.887 -10.304  0.00  0.00     0.406 P 
HETATM    9  O           1     -22.594  -3.212 -10.975  0.00  0.00    -0.624 OA
HETATM   10  O           1     -23.821  -5.286 -10.778  0.00  0.00    -0.624 OA
BRANCH   8  11
HETATM   11  O           1     -25.099  -3.108 -10.651  0.00  0.00    -0.300 OA
HETATM   12  H           1     -24.826  -2.263 -10.966  0.00  0.00     0.223 HD
ENDBRANCH   8  11
ENDBRANCH   7   8
ENDBRANCH   6   7
ENDBRANCH   5   6
BRANCH   5  13
HETATM   13  N           1     -20.271  -4.003  -8.692  0.00  0.00    -0.064 N 
HETATM   14  H           1     -19.569  -4.753  -8.504  0.00  0.00     0.275 HD
HETATM   15  H           1     -19.803  -3.069  -8.656  0.00  0.00     0.275 HD
HETATM   16  H           1     -20.690  -4.147  -9.639  0.00  0.00     0.275 HD
ENDBRANCH   5  13
ENDBRANCH   1   5
BRANCH   2  17
HETATM   17  C           1     -21.102  -6.462  -4.680  0.00  0.00     0.186 C 
BRANCH  17  18
HETATM   18  C           1     -20.569  -7.814  -5.084  0.00  0.00     0.196 C 
HETATM   19  O           1     -21.148  -8.476  -5.973  0.00  0.00    -0.646 OA
HETATM   20  O           1     -19.547  -8.274  -4.529  0.00  0.00    -0.646 OA
ENDBRANCH  17  18
BRANCH  17  21
HETATM   21  C           1     -22.240  -6.641  -3.683  0.00  0.00     0.046 C 
BRANCH  21  22
HETATM   22  C           1     -21.808  -6.117  -2.320  0.00  0.00     0.116 C 
BRANCH  22  23
HETATM   23  C           1     -21.999  -7.196  -1.282  0.00  0.00     0.172 C 
HETATM   24  O           1     -22.875  -7.066  -0.399  0.00  0.00    -0.648 OA
HETATM   25  O           1     -21.281  -8.218  -1.304  0.00  0.00    -0.648 OA
ENDBRANCH  22  23
ENDBRANCH  21  22
ENDBRANCH  17  21
ENDBRANCH   2  17
TORSDOF 11
ENDMDL
MODEL 5
REMARK VINA RESULT:      -5.9      8.056     10.322
REMARK  11 active torsions:
REMARK  status: ('A' for Active; 'I' for Inactive)
REMARK    1  A    between atoms: O_2  and  P_3 
REMARK    2  A    between atoms: P_3  and  O_4 
REMARK    3  A    between atoms: O_4  and  C_5 
REMARK    4  A    between atoms: C_5  and  C_6 
REMARK    5  A    between atoms: C_6  and  C_7 
REMARK    6  A    between atoms: C_6  and  N_24 
REMARK       I    between atoms: C_7  and  N_8 
REMARK    7  A    between atoms: N_8  and  C_12 
REMARK    8  A    between atoms: C_11  and  C_12 
REMARK    9  A    between atoms: C_12  and  C_13 
REMARK   10  A    between atoms: C_13  and  C_14 
REMARK   11  A    between atoms: C_14  and  C_16 
ROOT
HETATM    1  C           1     -34.131  -2.299 -11.407  0.00  0.00     0.251 C 
HETATM    2  N           1     -35.342  -1.922 -11.920  0.00  0.00    -0.345 N 
HETATM    3  H           1     -35.886  -2.577 -12.468  0.00  0.00     0.163 HD
HETATM    4  O           1     -33.481  -1.517 -10.754  0.00  0.00    -0.271 OA
ENDROOT
BRANCH   1   5
HETATM    5  C           1     -33.606  -3.691 -11.657  0.00  0.00     0.298 C 
BRANCH   5   6
HETATM    6  C           1     -34.293  -4.283 -12.881  0.00  0.00     0.224 C 
BRANCH   6   7
HETATM    7  O           1     -34.228  -3.368 -13.941  0.00  0.00    -0.287 OA
BRANCH   7   8
HETATM    8  P           1     -34.216  -4.004 -15.425  0.00  0.00     0.406 P 
HETATM    9  O           1     -35.121  -5.174 -15.468  0.00  0.00    -0.624 OA
HETATM   10  O           1     -34.673  -2.989 -16.401  0.00  0.00    -0.624 OA
BRANCH   8  11
HETATM   11  O           1     -32.715  -4.472 -15.799  0.00  0.00    -0.300 OA
HETATM   12  H           1     -32.185  -3.702 -15.682  0.00  0.00     0.223 HD
ENDBRANCH   8  11
ENDBRANCH   7   8
ENDBRANCH   6   7
ENDBRANCH   5   6
BRANCH   5  13
HETATM   13  N           1     -33.886  -4.553 -10.461  0.00  0.00    -0.064 N 
HETATM   14  H           1     -32.988  -4.788  -9.983  0.00  0.00     0.275 HD
HETATM   15  H           1     -34.359  -5.433 -10.770  0.00  0.00     0.275 HD
HETATM   16  H           1     -34.509  -4.037  -9.799  0.00  0.00     0.275 HD
ENDBRANCH   5  13
ENDBRANCH   1   5
BRANCH   2  17
HETATM   17  C           1     -35.846  -0.583 -11.680  0.00  0.00     0.186 C 
BRANCH  17  18
HETATM   18  C           1     -36.803  -0.609 -10.514  0.00  0.00     0.196 C 
HETATM   19  O           1     -36.397  -0.331  -9.365  0.00  0.00    -0.646 OA
HETATM   20  O           1     -38.003  -0.907 -10.698  0.00  0.00    -0.646 OA
ENDBRANCH  17  18
BRANCH  17  21
HETATM   21  C           1     -36.573  -0.086 -12.924  0.00  0.00     0.046 C 
BRANCH  21  22
HETATM   22  C           1     -35.607  -0.063 -14.101  0.00  0.00     0.116 C 
BRANCH  22  23
HETATM   23  C           1     -36.385   0.058 -15.388  0.00  0.00     0.172 C 
HETATM   24  O           1     -37.161  -0.857 -15.739  0.00  0.00    -0.648 OA
HETATM   25  O           1     -36.253   1.074 -16.104  0.00  0.00    -0.648 OA
ENDBRANCH  22  23
ENDBRANCH  21  22
ENDBRANCH  17  21
ENDBRANCH   2  17
TORSDOF 11
ENDMDL
MODEL 6
REMARK VINA RESULT:      -5.9      9.585     11.429
REMARK  11 active torsions:
REMARK  status: ('A' for Active; 'I' for Inactive)
REMARK    1  A    between atoms: O_2  and  P_3 
REMARK    2  A    between atoms: P_3  and  O_4 
REMARK    3  A    between atoms: O_4  and  C_5 
REMARK    4  A    between atoms: C_5  and  C_6 
REMARK    5  A    between atoms: C_6  and  C_7 
REMARK    6  A    between atoms: C_6  and  N_24 
REMARK       I    between atoms: C_7  and  N_8 
REMARK    7  A    between atoms: N_8  and  C_12 
REMARK    8  A    between atoms: C_11  and  C_12 
REMARK    9  A    between atoms: C_12  and  C_13 
REMARK   10  A    between atoms: C_13  and  C_14 
REMARK   11  A    between atoms: C_14  and  C_16 
ROOT
HETATM    1  C           1     -34.606  -1.931 -12.200  0.00  0.00     0.251 C 
HETATM    2  N           1     -35.378  -0.805 -12.099  0.00  0.00    -0.345 N 
HETATM    3  H           1     -35.188  -0.125 -11.373  0.00  0.00     0.163 HD
HETATM    4  O           1     -34.833  -2.744 -13.064  0.00  0.00    -0.271 OA
ENDROOT
BRANCH   1   5
HETATM    5  C           1     -33.471  -2.158 -11.231  0.00  0.00     0.298 C 
BRANCH   5   6
HETATM    6  C           1     -33.088  -3.632 -11.232  0.00  0.00     0.224 C 
BRANCH   6   7
HETATM    7  O           1     -34.047  -4.365 -10.518  0.00  0.00    -0.287 OA
BRANCH   7   8
HETATM    8  P           1     -34.214  -5.914 -10.941  0.00  0.00     0.406 P 
HETATM    9  O           1     -34.873  -6.657  -9.844  0.00  0.00    -0.624 OA
HETATM   10  O           1     -35.041  -6.004 -12.166  0.00  0.00    -0.624 OA
BRANCH   8  11
HETATM   11  O           1     -32.759  -6.555 -11.227  0.00  0.00    -0.300 OA
HETATM   12  H           1     -32.779  -6.808 -12.135  0.00  0.00     0.223 HD
ENDBRANCH   8  11
ENDBRANCH   7   8
ENDBRANCH   6   7
ENDBRANCH   5   6
BRANCH   5  13
HETATM   13  N           1     -33.904  -1.756  -9.852  0.00  0.00    -0.064 N 
HETATM   14  H           1     -33.079  -1.765  -9.212  0.00  0.00     0.275 HD
HETATM   15  H           1     -34.625  -2.428  -9.504  0.00  0.00     0.275 HD
HETATM   16  H           1     -34.311  -0.794  -9.882  0.00  0.00     0.275 HD
ENDBRANCH   5  13
ENDBRANCH   1   5
BRANCH   2  17
HETATM   17  C           1     -36.468  -0.588 -13.029  0.00  0.00     0.186 C 
BRANCH  17  18
HETATM   18  C           1     -36.029   0.378 -14.101  0.00  0.00     0.196 C 
HETATM   19  O           1     -36.619   0.401 -15.203  0.00  0.00    -0.646 OA
HETATM   20  O           1     -35.074   1.156 -13.887  0.00  0.00    -0.646 OA
ENDBRANCH  17  18
BRANCH  17  21
HETATM   21  C           1     -37.664  -0.009 -12.282  0.00  0.00     0.046 C 
BRANCH  21  22
HETATM   22  C           1     -37.687  -0.555 -10.861  0.00  0.00     0.116 C 
BRANCH  22  23
HETATM   23  C           1     -37.292   0.535  -9.896  0.00  0.00     0.172 C 
HETATM   24  O           1     -38.069   1.491  -9.680  0.00  0.00    -0.648 OA
HETATM   25  O           1     -36.188   0.483  -9.311  0.00  0.00    -0.648 OA
ENDBRANCH  22  23
ENDBRANCH  21  22
ENDBRANCH  17  21
ENDBRANCH   2  17
TORSDOF 11
ENDMDL
MODEL 7
REMARK VINA RESULT:      -5.6     11.914     14.313
REMARK  11 active torsions:
REMARK  status: ('A' for Active; 'I' for Inactive)
REMARK    1  A    between atoms: O_2  and  P_3 
REMARK    2  A    between atoms: P_3  and  O_4 
REMARK    3  A    between atoms: O_4  and  C_5 
REMARK    4  A    between atoms: C_5  and  C_6 
REMARK    5  A    between atoms: C_6  and  C_7 
REMARK    6  A    between atoms: C_6  and  N_24 
REMARK       I    between atoms: C_7  and  N_8 
REMARK    7  A    between atoms: N_8  and  C_12 
REMARK    8  A    between atoms: C_11  and  C_12 
REMARK    9  A    between atoms: C_12  and  C_13 
REMARK   10  A    between atoms: C_13  and  C_14 
REMARK   11  A    between atoms: C_14  and  C_16 
ROOT
HETATM    1  C           1     -21.445  -5.244  -6.438  0.00  0.00     0.251 C 
HETATM    2  N           1     -21.616  -6.482  -5.881  0.00  0.00    -0.345 N 
HETATM    3  H           1     -22.224  -7.158  -6.326  0.00  0.00     0.163 HD
HETATM    4  O           1     -20.721  -4.437  -5.906  0.00  0.00    -0.271 OA
ENDROOT
BRANCH   1   5
HETATM    5  C           1     -22.161  -4.886  -7.717  0.00  0.00     0.298 C 
BRANCH   5   6
HETATM    6  C           1     -21.331  -3.878  -8.500  0.00  0.00     0.224 C 
BRANCH   6   7
HETATM    7  O           1     -22.077  -3.403  -9.589  0.00  0.00    -0.287 OA
BRANCH   7   8
HETATM    8  P           1     -21.601  -3.908 -11.047  0.00  0.00     0.406 P 
HETATM    9  O           1     -20.303  -4.610 -10.927  0.00  0.00    -0.624 OA
HETATM   10  O           1     -22.614  -4.834 -11.603  0.00  0.00    -0.624 OA
BRANCH   8  11
HETATM   11  O           1     -21.436  -2.638 -12.031  0.00  0.00    -0.300 OA
HETATM   12  H           1     -21.859  -1.926 -11.582  0.00  0.00     0.223 HD
ENDBRANCH   8  11
ENDBRANCH   7   8
ENDBRANCH   6   7
ENDBRANCH   5   6
BRANCH   5  13
HETATM   13  N           1     -23.497  -4.287  -7.391  0.00  0.00    -0.064 N 
HETATM   14  H           1     -24.021  -4.930  -6.756  0.00  0.00     0.275 HD
HETATM   15  H           1     -24.040  -4.147  -8.273  0.00  0.00     0.275 HD
HETATM   16  H           1     -23.359  -3.366  -6.917  0.00  0.00     0.275 HD
ENDBRANCH   5  13
ENDBRANCH   1   5
BRANCH   2  17
HETATM   17  C           1     -20.929  -6.825  -4.651  0.00  0.00     0.186 C 
BRANCH  17  18
HETATM   18  C           1     -19.976  -7.966  -4.910  0.00  0.00     0.196 C 
HETATM   19  O           1     -19.444  -8.095  -6.034  0.00  0.00    -0.646 OA
HETATM   20  O           1     -19.719  -8.783  -3.999  0.00  0.00    -0.646 OA
ENDBRANCH  17  18
BRANCH  17  21
HETATM   21  C           1     -21.949  -7.243  -3.600  0.00  0.00     0.046 C 
BRANCH  21  22
HETATM   22  C           1     -21.827  -6.335  -2.384  0.00  0.00     0.116 C 
BRANCH  22  23
HETATM   23  C           1     -21.952  -7.158  -1.125  0.00  0.00     0.172 C 
HETATM   24  O           1     -22.985  -7.078  -0.425  0.00  0.00    -0.648 OA
HETATM   25  O           1     -21.022  -7.920  -0.782  0.00  0.00    -0.648 OA
ENDBRANCH  22  23
ENDBRANCH  21  22
ENDBRANCH  17  21
ENDBRANCH   2  17
TORSDOF 11
ENDMDL
MODEL 8
REMARK VINA RESULT:      -5.5      4.193      7.870
REMARK  11 active torsions:
REMARK  status: ('A' for Active; 'I' for Inactive)
REMARK    1  A    between atoms: O_2  and  P_3 
REMARK    2  A    between atoms: P_3  and  O_4 
REMARK    3  A    between atoms: O_4  and  C_5 
REMARK    4  A    between atoms: C_5  and  C_6 
REMARK    5  A    between atoms: C_6  and  C_7 
REMARK    6  A    between atoms: C_6  and  N_24 
REMARK       I    between atoms: C_7  and  N_8 
REMARK    7  A    between atoms: N_8  and  C_12 
REMARK    8  A    between atoms: C_11  and  C_12 
REMARK    9  A    between atoms: C_12  and  C_13 
REMARK   10  A    between atoms: C_13  and  C_14 
REMARK   11  A    between atoms: C_14  and  C_16 
ROOT
HETATM    1  C           1     -32.362  -4.287 -16.776  0.00  0.00     0.251 C 
HETATM    2  N           1     -31.445  -5.222 -16.378  0.00  0.00    -0.345 N 
HETATM    3  H           1     -31.752  -6.061 -15.900  0.00  0.00     0.163 HD
HETATM    4  O           1     -31.996  -3.286 -17.345  0.00  0.00    -0.271 OA
ENDROOT
BRANCH   1   5
HETATM    5  C           1     -33.830  -4.506 -16.504  0.00  0.00     0.298 C 
BRANCH   5   6
HETATM    6  C           1     -34.221  -3.791 -15.218  0.00  0.00     0.224 C 
BRANCH   6   7
HETATM    7  O           1     -33.282  -4.079 -14.218  0.00  0.00    -0.287 OA
BRANCH   7   8
HETATM    8  P           1     -33.857  -4.176 -12.713  0.00  0.00     0.406 P 
HETATM    9  O           1     -34.030  -2.814 -12.162  0.00  0.00    -0.624 OA
HETATM   10  O           1     -35.164  -4.873 -12.728  0.00  0.00    -0.624 OA
BRANCH   8  11
HETATM   11  O           1     -32.819  -5.002 -11.790  0.00  0.00    -0.300 OA
HETATM   12  H           1     -33.360  -5.488 -11.192  0.00  0.00     0.223 HD
ENDBRANCH   8  11
ENDBRANCH   7   8
ENDBRANCH   6   7
ENDBRANCH   5   6
BRANCH   5  13
HETATM   13  N           1     -34.098  -5.975 -16.360  0.00  0.00    -0.064 N 
HETATM   14  H           1     -35.115  -6.159 -16.508  0.00  0.00     0.275 HD
HETATM   15  H           1     -33.821  -6.286 -15.401  0.00  0.00     0.275 HD
HETATM   16  H           1     -33.541  -6.501 -17.071  0.00  0.00     0.275 HD
ENDBRANCH   5  13
ENDBRANCH   1   5
BRANCH   2  17
HETATM   17  C           1     -30.035  -5.011 -16.639  0.00  0.00     0.186 C 
BRANCH  17  18
HETATM   18  C           1     -29.678  -5.605 -17.979  0.00  0.00     0.196 C 
HETATM   19  O           1     -29.949  -6.800 -18.227  0.00  0.00    -0.646 OA
HETATM   20  O           1     -29.110  -4.901 -18.843  0.00  0.00    -0.646 OA
ENDBRANCH  17  18
BRANCH  17  21
HETATM   21  C           1     -29.212  -5.686 -15.549  0.00  0.00     0.046 C 
BRANCH  21  22
HETATM   22  C           1     -27.756  -5.768 -15.989  0.00  0.00     0.116 C 
BRANCH  22  23
HETATM   23  C           1     -27.151  -7.058 -15.491  0.00  0.00     0.172 C 
HETATM   24  O           1     -27.873  -7.914 -14.935  0.00  0.00    -0.648 OA
HETATM   25  O           1     -25.927  -7.270 -15.634  0.00  0.00    -0.648 OA
ENDBRANCH  22  23
ENDBRANCH  21  22
ENDBRANCH  17  21
ENDBRANCH   2  17
TORSDOF 11
ENDMDL
MODEL 9
REMARK VINA RESULT:      -5.5      2.548      6.152
REMARK  11 active torsions:
REMARK  status: ('A' for Active; 'I' for Inactive)
REMARK    1  A    between atoms: O_2  and  P_3 
REMARK    2  A    between atoms: P_3  and  O_4 
REMARK    3  A    between atoms: O_4  and  C_5 
REMARK    4  A    between atoms: C_5  and  C_6 
REMARK    5  A    between atoms: C_6  and  C_7 
REMARK    6  A    between atoms: C_6  and  N_24 
REMARK       I    between atoms: C_7  and  N_8 
REMARK    7  A    between atoms: N_8  and  C_12 
REMARK    8  A    between atoms: C_11  and  C_12 
REMARK    9  A    between atoms: C_12  and  C_13 
REMARK   10  A    between atoms: C_13  and  C_14 
REMARK   11  A    between atoms: C_14  and  C_16 
ROOT
HETATM    1  C           1     -27.356  -6.245 -19.571  0.00  0.00     0.251 C 
HETATM    2  N           1     -26.335  -7.124 -19.329  0.00  0.00    -0.345 N 
HETATM    3  H           1     -26.391  -7.760 -18.543  0.00  0.00     0.163 HD
HETATM    4  O           1     -27.288  -5.485 -20.507  0.00  0.00    -0.271 OA
ENDROOT
BRANCH   1   5
HETATM    5  C           1     -28.564  -6.224 -18.668  0.00  0.00     0.298 C 
BRANCH   5   6
HETATM    6  C           1     -28.788  -4.809 -18.150  0.00  0.00     0.224 C 
BRANCH   6   7
HETATM    7  O           1     -30.163  -4.535 -18.116  0.00  0.00    -0.287 OA
BRANCH   7   8
HETATM    8  P           1     -30.966  -5.101 -16.835  0.00  0.00     0.406 P 
HETATM    9  O           1     -30.040  -5.228 -15.688  0.00  0.00    -0.624 OA
HETATM   10  O           1     -32.059  -4.165 -16.487  0.00  0.00    -0.624 OA
BRANCH   8  11
HETATM   11  O           1     -31.590  -6.549 -17.186  0.00  0.00    -0.300 OA
HETATM   12  H           1     -30.900  -7.009 -17.633  0.00  0.00     0.223 HD
ENDBRANCH   8  11
ENDBRANCH   7   8
ENDBRANCH   6   7
ENDBRANCH   5   6
BRANCH   5  13
HETATM   13  N           1     -28.338  -7.150 -17.509  0.00  0.00    -0.064 N 
HETATM   14  H           1     -29.258  -7.433 -17.105  0.00  0.00     0.275 HD
HETATM   15  H           1     -27.771  -6.661 -16.780  0.00  0.00     0.275 HD
HETATM   16  H           1     -27.825  -7.999 -17.837  0.00  0.00     0.275 HD
ENDBRANCH   5  13
ENDBRANCH   1   5
BRANCH   2  17
HETATM   17  C           1     -25.173  -7.143 -20.196  0.00  0.00     0.186 C 
BRANCH  17  18
HETATM   18  C           1     -25.447  -8.035 -21.382  0.00  0.00     0.196 C 
HETATM   19  O           1     -26.506  -8.697 -21.437  0.00  0.00    -0.646 OA
HETATM   20  O           1     -24.613  -8.112 -22.311  0.00  0.00    -0.646 OA
ENDBRANCH  17  18
BRANCH  17  21
HETATM   21  C           1     -23.974  -7.678 -19.424  0.00  0.00     0.046 C 
BRANCH  21  22
HETATM   22  C           1     -23.662  -6.746 -18.261  0.00  0.00     0.116 C 
BRANCH  22  23
HETATM   23  C           1     -24.446  -7.176 -17.046  0.00  0.00     0.172 C 
HETATM   24  O           1     -25.387  -6.467 -16.626  0.00  0.00    -0.648 OA
HETATM   25  O           1     -24.156  -8.241 -16.460  0.00  0.00    -0.648 OA
ENDBRANCH  22  23
ENDBRANCH  21  22
ENDBRANCH  17  21
ENDBRANCH   2  17
TORSDOF 11
ENDMDL
