MODEL 1
REMARK VINA RESULT:      -6.3      0.000      0.000
REMARK  8 active torsions:
REMARK  status: ('A' for Active; 'I' for Inactive)
REMARK    1  A    between atoms: C_2  and  C_10 
REMARK    2  A    between atoms: C_2  and  C_14 
REMARK    3  A    between atoms: C_2  and  N_16 
REMARK    4  A    between atoms: C_7  and  C_19 
REMARK       I    between atoms: C_10  and  N_11 
REMARK    5  A    between atoms: N_11  and  C_18 
REMARK       I    between atoms: N_12  and  C_13 
REMARK    6  A    between atoms: C_13  and  C_14 
REMARK    7  A    between atoms: C_18  and  C_19 
REMARK    8  A    between atoms: C_18  and  C_23 
ROOT
HETATM    1  H           1     -34.887   0.136 -12.433  0.00  0.00     0.163 HD
HETATM    2  C           1     -36.521  -0.284 -13.632  0.00  0.00     0.249 C 
HETATM    3  N           1     -35.811  -0.277 -12.462  0.00  0.00    -0.345 N 
HETATM    4  O           1     -37.624  -0.776 -13.667  0.00  0.00    -0.271 OA
ENDROOT
BRANCH   2   5
HETATM    5  C           1     -35.927   0.323 -14.880  0.00  0.00     0.283 C 
BRANCH   5   6
HETATM    6  C           1     -36.125  -0.629 -16.052  0.00  0.00     0.145 C 
BRANCH   6   7
HETATM    7  C           1     -35.092  -1.727 -15.989  0.00  0.00     0.217 C 
HETATM    8  N           1     -34.383  -2.065 -17.111  0.00  0.00    -0.370 N 
HETATM    9  H           1     -34.551  -1.578 -17.981  0.00  0.00     0.159 HD
HETATM   10  H           1     -33.689  -2.801 -17.068  0.00  0.00     0.159 HD
HETATM   11  O           1     -34.889  -2.307 -14.949  0.00  0.00    -0.274 OA
ENDBRANCH   6   7
ENDBRANCH   5   6
BRANCH   5  12
HETATM   12  N           1     -34.460   0.557 -14.670  0.00  0.00    -0.066 N 
HETATM   13  H           1     -33.915  -0.181 -15.170  0.00  0.00     0.275 HD
HETATM   14  H           1     -34.201   1.496 -15.048  0.00  0.00     0.275 HD
HETATM   15  H           1     -34.243   0.520 -13.649  0.00  0.00     0.275 HD
ENDBRANCH   5  12
ENDBRANCH   2   5
BRANCH   3  16
HETATM   16  C           1     -36.382  -0.858 -11.263  0.00  0.00     0.185 C 
BRANCH  16  17
HETATM   17  C           1     -35.303  -1.619 -10.504  0.00  0.00     0.040 C 
BRANCH  17  18
HETATM   18  C           1     -34.784  -2.761 -11.366  0.00  0.00    -0.020 C 
HETATM   19  C           1     -33.276  -2.882 -11.192  0.00  0.00     0.009 C 
HETATM   20  C           1     -35.451  -4.063 -10.939  0.00  0.00     0.009 C 
ENDBRANCH  17  18
ENDBRANCH  16  17
BRANCH  16  21
HETATM   21  C           1     -36.937   0.238 -10.388  0.00  0.00     0.196 C 
HETATM   22  O           1     -38.071   0.709 -10.620  0.00  0.00    -0.646 OA
HETATM   23  O           1     -36.263   0.674  -9.429  0.00  0.00    -0.646 OA
ENDBRANCH  16  21
ENDBRANCH   3  16
TORSDOF 8
ENDMDL
MODEL 2
REMARK VINA RESULT:      -6.0     13.976     15.817
REMARK  8 active torsions:
REMARK  status: ('A' for Active; 'I' for Inactive)
REMARK    1  A    between atoms: C_2  and  C_10 
REMARK    2  A    between atoms: C_2  and  C_14 
REMARK    3  A    between atoms: C_2  and  N_16 
REMARK    4  A    between atoms: C_7  and  C_19 
REMARK       I    between atoms: C_10  and  N_11 
REMARK    5  A    between atoms: N_11  and  C_18 
REMARK       I    between atoms: N_12  and  C_13 
REMARK    6  A    between atoms: C_13  and  C_14 
REMARK    7  A    between atoms: C_18  and  C_19 
REMARK    8  A    between atoms: C_18  and  C_23 
ROOT
HETATM    1  H           1     -22.824  -6.253  -7.317  0.00  0.00     0.163 HD
HETATM    2  C           1     -22.351  -4.287  -7.762  0.00  0.00     0.249 C 
HETATM    3  N           1     -22.315  -5.432  -7.013  0.00  0.00    -0.345 N 
HETATM    4  O           1     -21.744  -3.308  -7.399  0.00  0.00    -0.271 OA
ENDROOT
BRANCH   2   5
HETATM    5  C           1     -23.150  -4.247  -9.042  0.00  0.00     0.283 C 
BRANCH   5   6
HETATM    6  C           1     -22.360  -3.503 -10.111  0.00  0.00     0.145 C 
BRANCH   6   7
HETATM    7  C           1     -22.551  -4.184 -11.444  0.00  0.00     0.217 C 
HETATM    8  N           1     -21.535  -4.189 -12.362  0.00  0.00    -0.370 N 
HETATM    9  H           1     -20.657  -3.736 -12.146  0.00  0.00     0.159 HD
HETATM   10  H           1     -21.663  -4.647 -13.256  0.00  0.00     0.159 HD
HETATM   11  O           1     -23.600  -4.727 -11.701  0.00  0.00    -0.274 OA
ENDBRANCH   6   7
ENDBRANCH   5   6
BRANCH   5  12
HETATM   12  N           1     -24.449  -3.538  -8.798  0.00  0.00    -0.066 N 
HETATM   13  H           1     -24.497  -2.683  -9.396  0.00  0.00     0.275 HD
HETATM   14  H           1     -25.242  -4.175  -9.037  0.00  0.00     0.275 HD
HETATM   15  H           1     -24.513  -3.264  -7.792  0.00  0.00     0.275 HD
ENDBRANCH   5  12
ENDBRANCH   2   5
BRANCH   3  16
HETATM   16  C           1     -21.547  -5.471  -5.784  0.00  0.00     0.185 C 
BRANCH  16  17
HETATM   17  C           1     -22.079  -6.581  -4.887  0.00  0.00     0.040 C 
BRANCH  17  18
HETATM   18  C           1     -21.267  -6.629  -3.601  0.00  0.00    -0.020 C 
HETATM   19  C           1     -22.132  -6.162  -2.438  0.00  0.00     0.009 C 
HETATM   20  C           1     -20.802  -8.057  -3.347  0.00  0.00     0.009 C 
ENDBRANCH  17  18
ENDBRANCH  16  17
BRANCH  16  21
HETATM   21  C           1     -20.097  -5.733  -6.105  0.00  0.00     0.196 C 
HETATM   22  O           1     -19.247  -4.833  -5.935  0.00  0.00    -0.646 OA
HETATM   23  O           1     -19.746  -6.851  -6.541  0.00  0.00    -0.646 OA
ENDBRANCH  16  21
ENDBRANCH   3  16
TORSDOF 8
ENDMDL
MODEL 3
REMARK VINA RESULT:      -6.0      1.702      2.062
REMARK  8 active torsions:
REMARK  status: ('A' for Active; 'I' for Inactive)
REMARK    1  A    between atoms: C_2  and  C_10 
REMARK    2  A    between atoms: C_2  and  C_14 
REMARK    3  A    between atoms: C_2  and  N_16 
REMARK    4  A    between atoms: C_7  and  C_19 
REMARK       I    between atoms: C_10  and  N_11 
REMARK    5  A    between atoms: N_11  and  C_18 
REMARK       I    between atoms: N_12  and  C_13 
REMARK    6  A    between atoms: C_13  and  C_14 
REMARK    7  A    between atoms: C_18  and  C_19 
REMARK    8  A    between atoms: C_18  and  C_23 
ROOT
HETATM    1  H           1     -33.903  -0.286 -12.537  0.00  0.00     0.163 HD
HETATM    2  C           1     -35.759  -0.471 -13.437  0.00  0.00     0.249 C 
HETATM    3  N           1     -34.769  -0.811 -12.554  0.00  0.00    -0.345 N 
HETATM    4  O           1     -36.792  -1.097 -13.457  0.00  0.00    -0.271 OA
ENDROOT
BRANCH   2   5
HETATM    5  C           1     -35.559   0.687 -14.384  0.00  0.00     0.283 C 
BRANCH   5   6
HETATM    6  C           1     -36.788   0.835 -15.271  0.00  0.00     0.145 C 
BRANCH   6   7
HETATM    7  C           1     -36.893  -0.357 -16.190  0.00  0.00     0.217 C 
HETATM    8  N           1     -38.035  -1.113 -16.203  0.00  0.00    -0.370 N 
HETATM    9  H           1     -38.807  -0.873 -15.595  0.00  0.00     0.159 HD
HETATM   10  H           1     -38.106  -1.912 -16.820  0.00  0.00     0.159 HD
HETATM   11  O           1     -35.972  -0.643 -16.917  0.00  0.00    -0.274 OA
ENDBRANCH   6   7
ENDBRANCH   5   6
BRANCH   5  12
HETATM   12  N           1     -34.355   0.429 -15.240  0.00  0.00    -0.066 N 
HETATM   13  H           1     -33.774  -0.324 -14.806  0.00  0.00     0.275 HD
HETATM   14  H           1     -34.664   0.124 -16.191  0.00  0.00     0.275 HD
HETATM   15  H           1     -33.790   1.303 -15.321  0.00  0.00     0.275 HD
ENDBRANCH   5  12
ENDBRANCH   2   5
BRANCH   3  16
HETATM   16  C           1     -34.961  -1.923 -11.643  0.00  0.00     0.185 C 
BRANCH  16  17
HETATM   17  C           1     -33.629  -2.287 -11.000  0.00  0.00     0.040 C 
BRANCH  17  18
HETATM   18  C           1     -33.258  -3.716 -11.374  0.00  0.00    -0.020 C 
HETATM   19  C           1     -34.027  -4.687 -10.488  0.00  0.00     0.009 C 
HETATM   20  C           1     -33.615  -3.967 -12.833  0.00  0.00     0.009 C 
ENDBRANCH  17  18
ENDBRANCH  16  17
BRANCH  16  21
HETATM   21  C           1     -35.947  -1.530 -10.572  0.00  0.00     0.196 C 
HETATM   22  O           1     -36.958  -2.236 -10.363  0.00  0.00    -0.646 OA
HETATM   23  O           1     -35.755  -0.498  -9.892  0.00  0.00    -0.646 OA
ENDBRANCH  16  21
ENDBRANCH   3  16
TORSDOF 8
ENDMDL
MODEL 4
REMARK VINA RESULT:      -5.9     15.214     17.248
REMARK  8 active torsions:
REMARK  status: ('A' for Active; 'I' for Inactive)
REMARK    1  A    between atoms: C_2  and  C_10 
REMARK    2  A    between atoms: C_2  and  C_14 
REMARK    3  A    between atoms: C_2  and  N_16 
REMARK    4  A    between atoms: C_7  and  C_19 
REMARK       I    between atoms: C_10  and  N_11 
REMARK    5  A    between atoms: N_11  and  C_18 
REMARK       I    between atoms: N_12  and  C_13 
REMARK    6  A    between atoms: C_13  and  C_14 
REMARK    7  A    between atoms: C_18  and  C_19 
REMARK    8  A    between atoms: C_18  and  C_23 
ROOT
HETATM    1  H           1     -21.448  -6.718  -6.886  0.00  0.00     0.163 HD
HETATM    2  C           1     -20.604  -4.969  -6.171  0.00  0.00     0.249 C 
HETATM    3  N           1     -20.921  -6.299  -6.129  0.00  0.00    -0.345 N 
HETATM    4  O           1     -19.975  -4.469  -5.268  0.00  0.00    -0.271 OA
ENDROOT
BRANCH   2   5
HETATM    5  C           1     -21.038  -4.125  -7.345  0.00  0.00     0.283 C 
BRANCH   5   6
HETATM    6  C           1     -22.077  -4.885  -8.160  0.00  0.00     0.145 C 
BRANCH   6   7
HETATM    7  C           1     -22.874  -3.911  -8.993  0.00  0.00     0.217 C 
HETATM    8  N           1     -24.168  -3.620  -8.654  0.00  0.00    -0.370 N 
HETATM    9  H           1     -24.590  -4.058  -7.846  0.00  0.00     0.159 HD
HETATM   10  H           1     -24.702  -2.966  -9.212  0.00  0.00     0.159 HD
HETATM   11  O           1     -22.369  -3.386  -9.957  0.00  0.00    -0.274 OA
ENDBRANCH   6   7
ENDBRANCH   5   6
BRANCH   5  12
HETATM   12  N           1     -19.850  -3.824  -8.209  0.00  0.00    -0.066 N 
HETATM   13  H           1     -19.739  -4.578  -8.924  0.00  0.00     0.275 HD
HETATM   14  H           1     -19.993  -2.907  -8.690  0.00  0.00     0.275 HD
HETATM   15  H           1     -18.991  -3.776  -7.617  0.00  0.00     0.275 HD
ENDBRANCH   5  12
ENDBRANCH   2   5
BRANCH   3  16
HETATM   16  C           1     -20.503  -7.110  -5.002  0.00  0.00     0.185 C 
BRANCH  16  17
HETATM   17  C           1     -21.639  -7.202  -3.993  0.00  0.00     0.040 C 
BRANCH  17  18
HETATM   18  C           1     -21.135  -6.782  -2.619  0.00  0.00    -0.020 C 
HETATM   19  C           1     -22.299  -6.250  -1.793  0.00  0.00     0.009 C 
HETATM   20  C           1     -20.520  -7.984  -1.915  0.00  0.00     0.009 C 
ENDBRANCH  17  18
ENDBRANCH  16  17
BRANCH  16  21
HETATM   21  C           1     -20.143  -8.493  -5.484  0.00  0.00     0.196 C 
HETATM   22  O           1     -18.951  -8.780  -5.729  0.00  0.00    -0.646 OA
HETATM   23  O           1     -21.037  -9.354  -5.638  0.00  0.00    -0.646 OA
ENDBRANCH  16  21
ENDBRANCH   3  16
TORSDOF 8
ENDMDL
MODEL 5
REMARK VINA RESULT:      -5.5     15.360     17.806
REMARK  8 active torsions:
REMARK  status: ('A' for Active; 'I' for Inactive)
REMARK    1  A    between atoms: C_2  and  C_10 
REMARK    2  A    between atoms: C_2  and  C_14 
REMARK    3  A    between atoms: C_2  and  N_16 
REMARK    4  A    between atoms: C_7  and  C_19 
REMARK       I    between atoms: C_10  and  N_11 
REMARK    5  A    between atoms: N_11  and  C_18 
REMARK       I    between atoms: N_12  and  C_13 
REMARK    6  A    between atoms: C_13  and  C_14 
REMARK    7  A    between atoms: C_18  and  C_19 
REMARK    8  A    between atoms: C_18  and  C_23 
ROOT
HETATM    1  H           1     -22.463  -5.800  -5.155  0.00  0.00     0.163 HD
HETATM    2  C           1     -21.190  -7.423  -5.330  0.00  0.00     0.249 C 
HETATM    3  N           1     -21.701  -6.204  -5.686  0.00  0.00    -0.345 N 
HETATM    4  O           1     -20.280  -7.905  -5.962  0.00  0.00    -0.271 OA
ENDROOT
BRANCH   2   5
HETATM    5  C           1     -21.763  -8.166  -4.148  0.00  0.00     0.283 C 
BRANCH   5   6
HETATM    6  C           1     -21.054  -7.721  -2.875  0.00  0.00     0.145 C 
BRANCH   6   7
HETATM    7  C           1     -21.965  -6.817  -2.082  0.00  0.00     0.217 C 
HETATM    8  N           1     -22.215  -7.084  -0.762  0.00  0.00    -0.370 N 
HETATM    9  H           1     -21.789  -7.888  -0.320  0.00  0.00     0.159 HD
HETATM   10  H           1     -22.825  -6.476  -0.229  0.00  0.00     0.159 HD
HETATM   11  O           1     -22.471  -5.855  -2.609  0.00  0.00    -0.274 OA
ENDBRANCH   6   7
ENDBRANCH   5   6
BRANCH   5  12
HETATM   12  N           1     -21.562  -9.640  -4.340  0.00  0.00    -0.066 N 
HETATM   13  H           1     -21.325 -10.082  -3.423  0.00  0.00     0.275 HD
HETATM   14  H           1     -22.441 -10.065  -4.713  0.00  0.00     0.275 HD
HETATM   15  H           1     -20.783  -9.801  -5.017  0.00  0.00     0.275 HD
ENDBRANCH   5  12
ENDBRANCH   2   5
BRANCH   3  16
HETATM   16  C           1     -21.149  -5.490  -6.820  0.00  0.00     0.185 C 
BRANCH  16  17
HETATM   17  C           1     -22.160  -4.463  -7.314  0.00  0.00     0.040 C 
BRANCH  17  18
HETATM   18  C           1     -22.458  -4.711  -8.787  0.00  0.00    -0.020 C 
HETATM   19  C           1     -23.809  -4.101  -9.139  0.00  0.00     0.009 C 
HETATM   20  C           1     -21.372  -4.068  -9.639  0.00  0.00     0.009 C 
ENDBRANCH  17  18
ENDBRANCH  16  17
BRANCH  16  21
HETATM   21  C           1     -19.881  -4.788  -6.405  0.00  0.00     0.196 C 
HETATM   22  O           1     -19.753  -4.368  -5.234  0.00  0.00    -0.646 OA
HETATM   23  O           1     -18.956  -4.627  -7.231  0.00  0.00    -0.646 OA
ENDBRANCH  16  21
ENDBRANCH   3  16
TORSDOF 8
ENDMDL
MODEL 6
REMARK VINA RESULT:      -5.4     15.600     17.550
REMARK  8 active torsions:
REMARK  status: ('A' for Active; 'I' for Inactive)
REMARK    1  A    between atoms: C_2  and  C_10 
REMARK    2  A    between atoms: C_2  and  C_14 
REMARK    3  A    between atoms: C_2  and  N_16 
REMARK    4  A    between atoms: C_7  and  C_19 
REMARK       I    between atoms: C_10  and  N_11 
REMARK    5  A    between atoms: N_11  and  C_18 
REMARK       I    between atoms: N_12  and  C_13 
REMARK    6  A    between atoms: C_13  and  C_14 
REMARK    7  A    between atoms: C_18  and  C_19 
REMARK    8  A    between atoms: C_18  and  C_23 
ROOT
HETATM    1  H           1     -19.820  -6.873  -4.596  0.00  0.00     0.163 HD
HETATM    2  C           1     -21.444  -5.952  -5.490  0.00  0.00     0.249 C 
HETATM    3  N           1     -20.830  -6.795  -4.604  0.00  0.00    -0.345 N 
HETATM    4  O           1     -22.648  -5.858  -5.499  0.00  0.00    -0.271 OA
ENDROOT
BRANCH   2   5
HETATM    5  C           1     -20.616  -5.139  -6.456  0.00  0.00     0.283 C 
BRANCH   5   6
HETATM    6  C           1     -21.310  -3.811  -6.728  0.00  0.00     0.145 C 
BRANCH   6   7
HETATM    7  C           1     -22.183  -3.940  -7.952  0.00  0.00     0.217 C 
HETATM    8  N           1     -23.517  -4.217  -7.816  0.00  0.00    -0.370 N 
HETATM    9  H           1     -23.917  -4.336  -6.894  0.00  0.00     0.159 HD
HETATM   10  H           1     -24.103  -4.303  -8.637  0.00  0.00     0.159 HD
HETATM   11  O           1     -21.706  -3.797  -9.053  0.00  0.00    -0.274 OA
ENDBRANCH   6   7
ENDBRANCH   5   6
BRANCH   5  12
HETATM   12  N           1     -20.466  -5.896  -7.743  0.00  0.00    -0.066 N 
HETATM   13  H           1     -19.887  -5.337  -8.410  0.00  0.00     0.275 HD
HETATM   14  H           1     -19.995  -6.810  -7.556  0.00  0.00     0.275 HD
HETATM   15  H           1     -21.409  -6.068  -8.159  0.00  0.00     0.275 HD
ENDBRANCH   5  12
ENDBRANCH   2   5
BRANCH   3  16
HETATM   16  C           1     -21.624  -7.574  -3.675  0.00  0.00     0.185 C 
BRANCH  16  17
HETATM   17  C           1     -21.029  -8.970  -3.544  0.00  0.00     0.040 C 
BRANCH  17  18
HETATM   18  C           1     -19.650  -8.997  -4.189  0.00  0.00    -0.020 C 
HETATM   19  C           1     -18.600  -9.297  -3.128  0.00  0.00     0.009 C 
HETATM   20  C           1     -19.612 -10.079  -5.261  0.00  0.00     0.009 C 
ENDBRANCH  17  18
ENDBRANCH  16  17
BRANCH  16  21
HETATM   21  C           1     -21.627  -6.899  -2.326  0.00  0.00     0.196 C 
HETATM   22  O           1     -21.001  -7.408  -1.371  0.00  0.00    -0.646 OA
HETATM   23  O           1     -22.255  -5.830  -2.163  0.00  0.00    -0.646 OA
ENDBRANCH  16  21
ENDBRANCH   3  16
TORSDOF 8
ENDMDL
MODEL 7
REMARK VINA RESULT:      -5.2     17.408     19.227
REMARK  8 active torsions:
REMARK  status: ('A' for Active; 'I' for Inactive)
REMARK    1  A    between atoms: C_2  and  C_10 
REMARK    2  A    between atoms: C_2  and  C_14 
REMARK    3  A    between atoms: C_2  and  N_16 
REMARK    4  A    between atoms: C_7  and  C_19 
REMARK       I    between atoms: C_10  and  N_11 
REMARK    5  A    between atoms: N_11  and  C_18 
REMARK       I    between atoms: N_12  and  C_13 
REMARK    6  A    between atoms: C_13  and  C_14 
REMARK    7  A    between atoms: C_18  and  C_19 
REMARK    8  A    between atoms: C_18  and  C_23 
ROOT
HETATM    1  H           1     -20.422  -8.346  -1.927  0.00  0.00     0.163 HD
HETATM    2  C           1     -21.464  -9.436  -3.346  0.00  0.00     0.249 C 
HETATM    3  N           1     -21.251  -8.900  -2.104  0.00  0.00    -0.345 N 
HETATM    4  O           1     -22.454 -10.096  -3.557  0.00  0.00    -0.271 OA
ENDROOT
BRANCH   2   5
HETATM    5  C           1     -20.464  -9.200  -4.451  0.00  0.00     0.283 C 
BRANCH   5   6
HETATM    6  C           1     -20.182  -7.708  -4.572  0.00  0.00     0.145 C 
BRANCH   6   7
HETATM    7  C           1     -21.257  -7.057  -5.407  0.00  0.00     0.217 C 
HETATM    8  N           1     -22.338  -6.476  -4.799  0.00  0.00    -0.370 N 
HETATM    9  H           1     -22.415  -6.484  -3.790  0.00  0.00     0.159 HD
HETATM   10  H           1     -23.059  -6.039  -5.359  0.00  0.00     0.159 HD
HETATM   11  O           1     -21.163  -7.046  -6.611  0.00  0.00    -0.274 OA
ENDBRANCH   6   7
ENDBRANCH   5   6
BRANCH   5  12
HETATM   12  N           1     -21.026  -9.707  -5.747  0.00  0.00    -0.066 N 
HETATM   13  H           1     -20.242  -9.960  -6.391  0.00  0.00     0.275 HD
HETATM   14  H           1     -21.612 -10.552  -5.564  0.00  0.00     0.275 HD
HETATM   15  H           1     -21.612  -8.964  -6.188  0.00  0.00     0.275 HD
ENDBRANCH   5  12
ENDBRANCH   2   5
BRANCH   3  16
HETATM   16  C           1     -22.212  -9.125  -1.042  0.00  0.00     0.185 C 
BRANCH  16  17
HETATM   17  C           1     -21.693 -10.213  -0.110  0.00  0.00     0.040 C 
BRANCH  17  18
HETATM   18  C           1     -22.532 -11.472  -0.282  0.00  0.00    -0.020 C 
HETATM   19  C           1     -22.196 -12.459   0.828  0.00  0.00     0.009 C 
HETATM   20  C           1     -24.010 -11.111  -0.210  0.00  0.00     0.009 C 
ENDBRANCH  17  18
ENDBRANCH  16  17
BRANCH  16  21
HETATM   21  C           1     -22.411  -7.848  -0.265  0.00  0.00     0.196 C 
HETATM   22  O           1     -22.692  -6.788  -0.866  0.00  0.00    -0.646 OA
HETATM   23  O           1     -22.295  -7.849   0.980  0.00  0.00    -0.646 OA
ENDBRANCH  16  21
ENDBRANCH   3  16
TORSDOF 8
ENDMDL
MODEL 8
REMARK VINA RESULT:      -5.2     16.817     18.822
REMARK  8 active torsions:
REMARK  status: ('A' for Active; 'I' for Inactive)
REMARK    1  A    between atoms: C_2  and  C_10 
REMARK    2  A    between atoms: C_2  and  C_14 
REMARK    3  A    between atoms: C_2  and  N_16 
REMARK    4  A    between atoms: C_7  and  C_19 
REMARK       I    between atoms: C_10  and  N_11 
REMARK    5  A    between atoms: N_11  and  C_18 
REMARK       I    between atoms: N_12  and  C_13 
REMARK    6  A    between atoms: C_13  and  C_14 
REMARK    7  A    between atoms: C_18  and  C_19 
REMARK    8  A    between atoms: C_18  and  C_23 
ROOT
HETATM    1  H           1     -20.743  -8.664  -4.486  0.00  0.00     0.163 HD
HETATM    2  C           1     -21.127  -6.719  -3.892  0.00  0.00     0.249 C 
HETATM    3  N           1     -20.840  -8.042  -3.693  0.00  0.00    -0.345 N 
HETATM    4  O           1     -21.243  -5.977  -2.945  0.00  0.00    -0.271 OA
ENDROOT
BRANCH   2   5
HETATM    5  C           1     -21.298  -6.186  -5.293  0.00  0.00     0.283 C 
BRANCH   5   6
HETATM    6  C           1     -20.413  -4.961  -5.483  0.00  0.00     0.145 C 
BRANCH   6   7
HETATM    7  C           1     -20.614  -4.404  -6.871  0.00  0.00     0.217 C 
HETATM    8  N           1     -19.971  -4.974  -7.937  0.00  0.00    -0.370 N 
HETATM    9  H           1     -19.360  -5.768  -7.794  0.00  0.00     0.159 HD
HETATM   10  H           1     -20.107  -4.601  -8.869  0.00  0.00     0.159 HD
HETATM   11  O           1     -21.345  -3.458  -7.043  0.00  0.00    -0.274 OA
ENDBRANCH   6   7
ENDBRANCH   5   6
BRANCH   5  12
HETATM   12  N           1     -22.733  -5.802  -5.509  0.00  0.00    -0.066 N 
HETATM   13  H           1     -23.350  -6.610  -5.264  0.00  0.00     0.275 HD
HETATM   14  H           1     -22.969  -4.987  -4.900  0.00  0.00     0.275 HD
HETATM   15  H           1     -22.878  -5.544  -6.510  0.00  0.00     0.275 HD
ENDBRANCH   5  12
ENDBRANCH   2   5
BRANCH   3  16
HETATM   16  C           1     -20.674  -8.554  -2.347  0.00  0.00     0.185 C 
BRANCH  16  17
HETATM   17  C           1     -21.913  -9.345  -1.948  0.00  0.00     0.040 C 
BRANCH  17  18
HETATM   18  C           1     -22.226  -9.093  -0.479  0.00  0.00    -0.020 C 
HETATM   19  C           1     -22.544  -7.617  -0.276  0.00  0.00     0.009 C 
HETATM   20  C           1     -23.427  -9.933  -0.065  0.00  0.00     0.009 C 
ENDBRANCH  17  18
ENDBRANCH  16  17
BRANCH  16  21
HETATM   21  C           1     -19.464  -9.454  -2.297  0.00  0.00     0.196 C 
HETATM   22  O           1     -18.377  -9.067  -2.778  0.00  0.00    -0.646 OA
HETATM   23  O           1     -19.548 -10.586  -1.773  0.00  0.00    -0.646 OA
ENDBRANCH  16  21
ENDBRANCH   3  16
TORSDOF 8
ENDMDL
MODEL 9
REMARK VINA RESULT:      -5.2     17.644     19.694
REMARK  8 active torsions:
REMARK  status: ('A' for Active; 'I' for Inactive)
REMARK    1  A    between atoms: C_2  and  C_10 
REMARK    2  A    between atoms: C_2  and  C_14 
REMARK    3  A    between atoms: C_2  and  N_16 
REMARK    4  A    between atoms: C_7  and  C_19 
REMARK       I    between atoms: C_10  and  N_11 
REMARK    5  A    between atoms: N_11  and  C_18 
REMARK       I    between atoms: N_12  and  C_13 
REMARK    6  A    between atoms: C_13  and  C_14 
REMARK    7  A    between atoms: C_18  and  C_19 
REMARK    8  A    between atoms: C_18  and  C_23 
ROOT
HETATM    1  H           1     -21.816  -9.439  -2.830  0.00  0.00     0.163 HD
HETATM    2  C           1     -19.849  -9.099  -3.377  0.00  0.00     0.249 C 
HETATM    3  N           1     -20.858  -9.409  -2.505  0.00  0.00    -0.345 N 
HETATM    4  O           1     -18.705  -9.064  -2.990  0.00  0.00    -0.271 OA
ENDROOT
BRANCH   2   5
HETATM    5  C           1     -20.165  -8.803  -4.823  0.00  0.00     0.283 C 
BRANCH   5   6
HETATM    6  C           1     -21.582  -8.254  -4.932  0.00  0.00     0.145 C 
BRANCH   6   7
HETATM    7  C           1     -21.539  -6.866  -5.523  0.00  0.00     0.217 C 
HETATM    8  N           1     -20.847  -6.636  -6.681  0.00  0.00    -0.370 N 
HETATM    9  H           1     -20.363  -7.397  -7.141  0.00  0.00     0.159 HD
HETATM   10  H           1     -20.819  -5.705  -7.079  0.00  0.00     0.159 HD
HETATM   11  O           1     -22.119  -5.958  -4.976  0.00  0.00    -0.274 OA
ENDBRANCH   6   7
ENDBRANCH   5   6
BRANCH   5  12
HETATM   12  N           1     -20.059 -10.067  -5.625  0.00  0.00    -0.066 N 
HETATM   13  H           1     -20.163  -9.844  -6.641  0.00  0.00     0.275 HD
HETATM   14  H           1     -19.124 -10.505  -5.460  0.00  0.00     0.275 HD
HETATM   15  H           1     -20.811 -10.730  -5.334  0.00  0.00     0.275 HD
ENDBRANCH   5  12
ENDBRANCH   2   5
BRANCH   3  16
HETATM   16  C           1     -20.554  -9.694  -1.117  0.00  0.00     0.185 C 
BRANCH  16  17
HETATM   17  C           1     -20.955  -8.505  -0.254  0.00  0.00     0.040 C 
BRANCH  17  18
HETATM   18  C           1     -22.346  -8.034  -0.653  0.00  0.00    -0.020 C 
HETATM   19  C           1     -23.251  -8.033   0.573  0.00  0.00     0.009 C 
HETATM   20  C           1     -22.261  -6.623  -1.222  0.00  0.00     0.009 C 
ENDBRANCH  17  18
ENDBRANCH  16  17
BRANCH  16  21
HETATM   21  C           1     -21.319 -10.917  -0.676  0.00  0.00     0.196 C 
HETATM   22  O           1     -21.862 -11.655  -1.527  0.00  0.00    -0.646 OA
HETATM   23  O           1     -21.410 -11.193   0.540  0.00  0.00    -0.646 OA
ENDBRANCH  16  21
ENDBRANCH   3  16
TORSDOF 8
ENDMDL
