MODEL 1
REMARK VINA RESULT:      -9.0      0.000      0.000
REMARK  11 active torsions:
REMARK  status: ('A' for Active; 'I' for Inactive)
REMARK    1  A    between atoms: C_4  and  C_6 
REMARK    2  A    between atoms: C_6  and  C_7 
REMARK    3  A    between atoms: C_6  and  N_14 
REMARK    4  A    between atoms: C_7  and  C_8 
REMARK       I    between atoms: N_14  and  C_15 
REMARK    5  A    between atoms: C_15  and  C_16 
REMARK    6  A    between atoms: C_16  and  C_17 
REMARK    7  A    between atoms: C_16  and  N_27 
REMARK    8  A    between atoms: C_17  and  C_18 
REMARK    9  A    between atoms: C_21  and  O_22 
REMARK   10  A    between atoms: O_22  and  P_23 
REMARK   11  A    between atoms: P_23  and  O_24 
ROOT
HETATM    1  C           1     -21.016  -6.171  -5.142  0.00  0.00     0.278 C 
ENDROOT
BRANCH   1   2
HETATM    2  C           1     -20.386  -7.526  -5.355  0.00  0.00     0.249 C 
HETATM    3  N           1     -20.889  -8.624  -4.711  0.00  0.00    -0.344 N 
HETATM    4  H           1     -21.617  -9.176  -5.146  0.00  0.00     0.163 HD
HETATM    5  O           1     -19.437  -7.641  -6.094  0.00  0.00    -0.271 OA
BRANCH   3   6
HETATM    6  C           1     -20.379  -8.995  -3.405  0.00  0.00     0.189 C 
BRANCH   6   7
HETATM    7  C           1     -19.019  -9.632  -3.560  0.00  0.00     0.197 C 
HETATM    8  O           1     -18.881 -10.646  -4.277  0.00  0.00    -0.646 OA
HETATM    9  O           1     -18.031  -9.144  -2.970  0.00  0.00    -0.646 OA
ENDBRANCH   6   7
BRANCH   6  10
HETATM   10  C           1     -21.333  -9.985  -2.751  0.00  0.00     0.074 C 
BRANCH  10  11
HETATM   11  C           1     -21.990  -9.340  -1.569  0.00  0.00    -0.056 A 
HETATM   12  C           1     -22.928 -10.050  -0.821  0.00  0.00     0.007 A 
HETATM   13  C           1     -23.541  -9.449   0.280  0.00  0.00     0.001 A 
HETATM   14  C           1     -23.214  -8.139   0.631  0.00  0.00     0.000 A 
HETATM   15  C           1     -22.276  -7.430  -0.120  0.00  0.00     0.001 A 
HETATM   16  C           1     -21.664  -8.030  -1.220  0.00  0.00     0.007 A 
ENDBRANCH  10  11
ENDBRANCH   6  10
ENDBRANCH   3   6
ENDBRANCH   1   2
BRANCH   1  17
HETATM   17  C           1     -20.142  -5.098  -5.777  0.00  0.00     0.081 C 
BRANCH  17  18
HETATM   18  C           1     -20.719  -4.705  -7.102  0.00  0.00    -0.056 A 
HETATM   19  C           1     -22.010  -4.182  -7.173  0.00  0.00     0.010 A 
HETATM   20  C           1     -22.548  -3.815  -8.406  0.00  0.00     0.038 A 
HETATM   21  C           1     -21.794  -3.970  -9.569  0.00  0.00     0.081 A 
HETATM   22  C           1     -20.502  -4.493  -9.499  0.00  0.00     0.038 A 
HETATM   23  C           1     -19.965  -4.860  -8.265  0.00  0.00     0.010 A 
BRANCH  21  24
HETATM   24  O           1     -22.316  -3.615 -10.768  0.00  0.00    -0.247 OA
BRANCH  24  25
HETATM   25  P           1     -23.709  -4.295 -11.220  0.00  0.00     0.411 P 
HETATM   26  O           1     -23.968  -5.490 -10.386  0.00  0.00    -0.624 OA
HETATM   27  O           1     -24.812  -3.324 -11.046  0.00  0.00    -0.624 OA
BRANCH  25  28
HETATM   28  O           1     -23.618  -4.732 -12.772  0.00  0.00    -0.300 OA
HETATM   29  H           1     -22.973  -4.158 -13.149  0.00  0.00     0.223 HD
ENDBRANCH  25  28
ENDBRANCH  24  25
ENDBRANCH  21  24
ENDBRANCH  17  18
ENDBRANCH   1  17
BRANCH   1  30
HETATM   30  N           1     -21.143  -5.906  -3.671  0.00  0.00    -0.066 N 
HETATM   31  H           1     -20.203  -5.680  -3.275  0.00  0.00     0.275 HD
HETATM   32  H           1     -21.788  -5.099  -3.517  0.00  0.00     0.275 HD
HETATM   33  H           1     -21.526  -6.755  -3.196  0.00  0.00     0.275 HD
ENDBRANCH   1  30
TORSDOF 11
ENDMDL
MODEL 2
REMARK VINA RESULT:      -8.7      1.882      3.534
REMARK  11 active torsions:
REMARK  status: ('A' for Active; 'I' for Inactive)
REMARK    1  A    between atoms: C_4  and  C_6 
REMARK    2  A    between atoms: C_6  and  C_7 
REMARK    3  A    between atoms: C_6  and  N_14 
REMARK    4  A    between atoms: C_7  and  C_8 
REMARK       I    between atoms: N_14  and  C_15 
REMARK    5  A    between atoms: C_15  and  C_16 
REMARK    6  A    between atoms: C_16  and  C_17 
REMARK    7  A    between atoms: C_16  and  N_27 
REMARK    8  A    between atoms: C_17  and  C_18 
REMARK    9  A    between atoms: C_21  and  O_22 
REMARK   10  A    between atoms: O_22  and  P_23 
REMARK   11  A    between atoms: P_23  and  O_24 
ROOT
HETATM    1  C           1     -20.519  -6.383  -5.341  0.00  0.00     0.278 C 
ENDROOT
BRANCH   1   2
HETATM    2  C           1     -21.575  -6.304  -4.264  0.00  0.00     0.249 C 
HETATM    3  N           1     -21.236  -6.529  -2.956  0.00  0.00    -0.344 N 
HETATM    4  H           1     -20.942  -5.759  -2.370  0.00  0.00     0.163 HD
HETATM    5  O           1     -22.717  -6.042  -4.556  0.00  0.00    -0.271 OA
BRANCH   3   6
HETATM    6  C           1     -21.300  -7.872  -2.413  0.00  0.00     0.189 C 
BRANCH   6   7
HETATM    7  C           1     -21.997  -7.840  -1.074  0.00  0.00     0.197 C 
HETATM    8  O           1     -22.742  -6.880  -0.781  0.00  0.00    -0.646 OA
HETATM    9  O           1     -21.830  -8.773  -0.260  0.00  0.00    -0.646 OA
ENDBRANCH   6   7
BRANCH   6  10
HETATM   10  C           1     -19.889  -8.416  -2.238  0.00  0.00     0.074 C 
BRANCH  10  11
HETATM   11  C           1     -19.516  -9.234  -3.436  0.00  0.00    -0.056 A 
HETATM   12  C           1     -18.183  -9.318  -3.834  0.00  0.00     0.007 A 
HETATM   13  C           1     -17.835 -10.080  -4.951  0.00  0.00     0.001 A 
HETATM   14  C           1     -18.822 -10.758  -5.667  0.00  0.00     0.000 A 
HETATM   15  C           1     -20.156 -10.673  -5.267  0.00  0.00     0.001 A 
HETATM   16  C           1     -20.503  -9.911  -4.152  0.00  0.00     0.007 A 
ENDBRANCH  10  11
ENDBRANCH   6  10
ENDBRANCH   3   6
ENDBRANCH   1   2
BRANCH   1  17
HETATM   17  C           1     -20.085  -4.976  -5.729  0.00  0.00     0.081 C 
BRANCH  17  18
HETATM   18  C           1     -20.669  -4.623  -7.062  0.00  0.00    -0.056 A 
HETATM   19  C           1     -21.927  -4.025  -7.135  0.00  0.00     0.010 A 
HETATM   20  C           1     -22.471  -3.695  -8.376  0.00  0.00     0.038 A 
HETATM   21  C           1     -21.758  -3.965  -9.544  0.00  0.00     0.081 A 
HETATM   22  C           1     -20.500  -4.563  -9.470  0.00  0.00     0.038 A 
HETATM   23  C           1     -19.956  -4.892  -8.229  0.00  0.00     0.010 A 
BRANCH  21  24
HETATM   24  O           1     -22.287  -3.646 -10.750  0.00  0.00    -0.247 OA
BRANCH  24  25
HETATM   25  P           1     -23.686  -4.334 -11.170  0.00  0.00     0.411 P 
HETATM   26  O           1     -23.926  -5.522 -10.320  0.00  0.00    -0.624 OA
HETATM   27  O           1     -24.788  -3.364 -10.986  0.00  0.00    -0.624 OA
BRANCH  25  28
HETATM   28  O           1     -23.621  -4.786 -12.719  0.00  0.00    -0.300 OA
HETATM   29  H           1     -23.972  -5.660 -12.734  0.00  0.00     0.223 HD
ENDBRANCH  25  28
ENDBRANCH  24  25
ENDBRANCH  21  24
ENDBRANCH  17  18
ENDBRANCH   1  17
BRANCH   1  30
HETATM   30  N           1     -21.084  -7.080  -6.542  0.00  0.00    -0.066 N 
HETATM   31  H           1     -20.876  -6.521  -7.400  0.00  0.00     0.275 HD
HETATM   32  H           1     -20.652  -8.027  -6.630  0.00  0.00     0.275 HD
HETATM   33  H           1     -22.120  -7.177  -6.433  0.00  0.00     0.275 HD
ENDBRANCH   1  30
TORSDOF 11
ENDMDL
MODEL 3
REMARK VINA RESULT:      -8.3      1.145      1.893
REMARK  11 active torsions:
REMARK  status: ('A' for Active; 'I' for Inactive)
REMARK    1  A    between atoms: C_4  and  C_6 
REMARK    2  A    between atoms: C_6  and  C_7 
REMARK    3  A    between atoms: C_6  and  N_14 
REMARK    4  A    between atoms: C_7  and  C_8 
REMARK       I    between atoms: N_14  and  C_15 
REMARK    5  A    between atoms: C_15  and  C_16 
REMARK    6  A    between atoms: C_16  and  C_17 
REMARK    7  A    between atoms: C_16  and  N_27 
REMARK    8  A    between atoms: C_17  and  C_18 
REMARK    9  A    between atoms: C_21  and  O_22 
REMARK   10  A    between atoms: O_22  and  P_23 
REMARK   11  A    between atoms: P_23  and  O_24 
ROOT
HETATM    1  C           1     -21.440  -6.378  -4.908  0.00  0.00     0.278 C 
ENDROOT
BRANCH   1   2
HETATM    2  C           1     -20.747  -7.709  -5.074  0.00  0.00     0.249 C 
HETATM    3  N           1     -21.451  -8.872  -4.914  0.00  0.00    -0.344 N 
HETATM    4  H           1     -21.911  -9.299  -5.707  0.00  0.00     0.163 HD
HETATM    5  O           1     -19.571  -7.747  -5.351  0.00  0.00    -0.271 OA
BRANCH   3   6
HETATM    6  C           1     -21.537  -9.492  -3.605  0.00  0.00     0.189 C 
BRANCH   6   7
HETATM    7  C           1     -20.155  -9.889  -3.146  0.00  0.00     0.197 C 
HETATM    8  O           1     -19.585  -9.238  -2.244  0.00  0.00    -0.646 OA
HETATM    9  O           1     -19.581 -10.869  -3.668  0.00  0.00    -0.646 OA
ENDBRANCH   6   7
BRANCH   6  10
HETATM   10  C           1     -22.421 -10.728  -3.687  0.00  0.00     0.074 C 
BRANCH  10  11
HETATM   11  C           1     -22.860 -11.121  -2.310  0.00  0.00    -0.056 A 
HETATM   12  C           1     -23.070 -12.465  -2.003  0.00  0.00     0.007 A 
HETATM   13  C           1     -23.479 -12.831  -0.720  0.00  0.00     0.001 A 
HETATM   14  C           1     -23.677 -11.853   0.255  0.00  0.00     0.000 A 
HETATM   15  C           1     -23.467 -10.509  -0.054  0.00  0.00     0.001 A 
HETATM   16  C           1     -23.058 -10.143  -1.336  0.00  0.00     0.007 A 
ENDBRANCH  10  11
ENDBRANCH   6  10
ENDBRANCH   3   6
ENDBRANCH   1   2
BRANCH   1  17
HETATM   17  C           1     -20.541  -5.268  -5.436  0.00  0.00     0.081 C 
BRANCH  17  18
HETATM   18  C           1     -21.016  -4.844  -6.792  0.00  0.00    -0.056 A 
HETATM   19  C           1     -20.153  -4.912  -7.885  0.00  0.00     0.010 A 
HETATM   20  C           1     -20.595  -4.518  -9.148  0.00  0.00     0.038 A 
HETATM   21  C           1     -21.901  -4.056  -9.317  0.00  0.00     0.081 A 
HETATM   22  C           1     -22.764  -3.988  -8.223  0.00  0.00     0.038 A 
HETATM   23  C           1     -22.321  -4.382  -6.960  0.00  0.00     0.010 A 
BRANCH  21  24
HETATM   24  O           1     -22.330  -3.672 -10.543  0.00  0.00    -0.247 OA
BRANCH  24  25
HETATM   25  P           1     -23.697  -4.322 -11.106  0.00  0.00     0.411 P 
HETATM   26  O           1     -24.016  -5.544 -10.336  0.00  0.00    -0.624 OA
HETATM   27  O           1     -24.802  -3.347 -10.963  0.00  0.00    -0.624 OA
BRANCH  25  28
HETATM   28  O           1     -23.513  -4.700 -12.665  0.00  0.00    -0.300 OA
HETATM   29  H           1     -22.646  -5.062 -12.727  0.00  0.00     0.223 HD
ENDBRANCH  25  28
ENDBRANCH  24  25
ENDBRANCH  21  24
ENDBRANCH  17  18
ENDBRANCH   1  17
BRANCH   1  30
HETATM   30  N           1     -21.724  -6.142  -3.454  0.00  0.00    -0.066 N 
HETATM   31  H           1     -20.824  -6.002  -2.942  0.00  0.00     0.275 HD
HETATM   32  H           1     -22.320  -5.292  -3.349  0.00  0.00     0.275 HD
HETATM   33  H           1     -22.224  -6.971  -3.058  0.00  0.00     0.275 HD
ENDBRANCH   1  30
TORSDOF 11
ENDMDL
MODEL 4
REMARK VINA RESULT:      -8.3      1.727      2.227
REMARK  11 active torsions:
REMARK  status: ('A' for Active; 'I' for Inactive)
REMARK    1  A    between atoms: C_4  and  C_6 
REMARK    2  A    between atoms: C_6  and  C_7 
REMARK    3  A    between atoms: C_6  and  N_14 
REMARK    4  A    between atoms: C_7  and  C_8 
REMARK       I    between atoms: N_14  and  C_15 
REMARK    5  A    between atoms: C_15  and  C_16 
REMARK    6  A    between atoms: C_16  and  C_17 
REMARK    7  A    between atoms: C_16  and  N_27 
REMARK    8  A    between atoms: C_17  and  C_18 
REMARK    9  A    between atoms: C_21  and  O_22 
REMARK   10  A    between atoms: O_22  and  P_23 
REMARK   11  A    between atoms: P_23  and  O_24 
ROOT
HETATM    1  C           1     -21.135  -7.843  -4.697  0.00  0.00     0.278 C 
ENDROOT
BRANCH   1   2
HETATM    2  C           1     -21.149  -9.334  -4.935  0.00  0.00     0.249 C 
HETATM    3  N           1     -21.999 -10.133  -4.220  0.00  0.00    -0.344 N 
HETATM    4  H           1     -22.929 -10.325  -4.570  0.00  0.00     0.163 HD
HETATM    5  O           1     -20.410  -9.820  -5.759  0.00  0.00    -0.271 OA
BRANCH   3   6
HETATM    6  C           1     -21.566 -10.706  -2.959  0.00  0.00     0.189 C 
BRANCH   6   7
HETATM    7  C           1     -21.257 -12.170  -3.153  0.00  0.00     0.197 C 
HETATM    8  O           1     -20.155 -12.631  -2.785  0.00  0.00    -0.646 OA
HETATM    9  O           1     -22.105 -12.923  -3.681  0.00  0.00    -0.646 OA
ENDBRANCH   6   7
BRANCH   6  10
HETATM   10  C           1     -22.673 -10.551  -1.925  0.00  0.00     0.074 C 
BRANCH  10  11
HETATM   11  C           1     -22.123  -9.890  -0.699  0.00  0.00    -0.056 A 
HETATM   12  C           1     -22.586  -8.631  -0.320  0.00  0.00     0.007 A 
HETATM   13  C           1     -22.074  -8.015   0.823  0.00  0.00     0.001 A 
HETATM   14  C           1     -21.099  -8.659   1.585  0.00  0.00     0.000 A 
HETATM   15  C           1     -20.635  -9.918   1.203  0.00  0.00     0.001 A 
HETATM   16  C           1     -21.147 -10.534   0.062  0.00  0.00     0.007 A 
ENDBRANCH  10  11
ENDBRANCH   6  10
ENDBRANCH   3   6
ENDBRANCH   1   2
BRANCH   1  17
HETATM   17  C           1     -20.111  -7.191  -5.617  0.00  0.00     0.081 C 
BRANCH  17  18
HETATM   18  C           1     -20.791  -6.173  -6.478  0.00  0.00    -0.056 A 
HETATM   19  C           1     -22.047  -5.682  -6.119  0.00  0.00     0.010 A 
HETATM   20  C           1     -22.680  -4.733  -6.920  0.00  0.00     0.038 A 
HETATM   21  C           1     -22.059  -4.274  -8.081  0.00  0.00     0.081 A 
HETATM   22  C           1     -20.803  -4.765  -8.441  0.00  0.00     0.038 A 
HETATM   23  C           1     -20.170  -5.714  -7.639  0.00  0.00     0.010 A 
BRANCH  21  24
HETATM   24  O           1     -22.675  -3.353  -8.861  0.00  0.00    -0.247 OA
BRANCH  24  25
HETATM   25  P           1     -23.323  -3.849 -10.254  0.00  0.00     0.411 P 
HETATM   26  O           1     -23.675  -5.283 -10.151  0.00  0.00    -0.624 OA
HETATM   27  O           1     -24.542  -3.060 -10.540  0.00  0.00    -0.624 OA
BRANCH  25  28
HETATM   28  O           1     -22.257  -3.643 -11.449  0.00  0.00    -0.300 OA
HETATM   29  H           1     -22.555  -2.880 -11.913  0.00  0.00     0.223 HD
ENDBRANCH  25  28
ENDBRANCH  24  25
ENDBRANCH  21  24
ENDBRANCH  17  18
ENDBRANCH   1  17
BRANCH   1  30
HETATM   30  N           1     -20.769  -7.570  -3.268  0.00  0.00    -0.066 N 
HETATM   31  H           1     -21.496  -6.959  -2.833  0.00  0.00     0.275 HD
HETATM   32  H           1     -20.713  -8.472  -2.745  0.00  0.00     0.275 HD
HETATM   33  H           1     -19.842  -7.087  -3.233  0.00  0.00     0.275 HD
ENDBRANCH   1  30
TORSDOF 11
ENDMDL
MODEL 5
REMARK VINA RESULT:      -8.3      1.474      1.955
REMARK  11 active torsions:
REMARK  status: ('A' for Active; 'I' for Inactive)
REMARK    1  A    between atoms: C_4  and  C_6 
REMARK    2  A    between atoms: C_6  and  C_7 
REMARK    3  A    between atoms: C_6  and  N_14 
REMARK    4  A    between atoms: C_7  and  C_8 
REMARK       I    between atoms: N_14  and  C_15 
REMARK    5  A    between atoms: C_15  and  C_16 
REMARK    6  A    between atoms: C_16  and  C_17 
REMARK    7  A    between atoms: C_16  and  N_27 
REMARK    8  A    between atoms: C_17  and  C_18 
REMARK    9  A    between atoms: C_21  and  O_22 
REMARK   10  A    between atoms: O_22  and  P_23 
REMARK   11  A    between atoms: P_23  and  O_24 
ROOT
HETATM    1  C           1     -20.429  -6.270  -5.314  0.00  0.00     0.278 C 
ENDROOT
BRANCH   1   2
HETATM    2  C           1     -21.462  -6.242  -4.214  0.00  0.00     0.249 C 
HETATM    3  N           1     -21.070  -6.326  -2.904  0.00  0.00    -0.344 N 
HETATM    4  H           1     -20.861  -5.483  -2.383  0.00  0.00     0.163 HD
HETATM    5  O           1     -22.634  -6.144  -4.488  0.00  0.00    -0.271 OA
BRANCH   3   6
HETATM    6  C           1     -20.953  -7.622  -2.264  0.00  0.00     0.189 C 
BRANCH   6   7
HETATM    7  C           1     -20.804  -8.691  -3.319  0.00  0.00     0.197 C 
HETATM    8  O           1     -19.667  -9.102  -3.636  0.00  0.00    -0.646 OA
HETATM    9  O           1     -21.818  -9.165  -3.876  0.00  0.00    -0.646 OA
ENDBRANCH   6   7
BRANCH   6  10
HETATM   10  C           1     -22.202  -7.894  -1.438  0.00  0.00     0.074 C 
BRANCH  10  11
HETATM   11  C           1     -22.033  -9.176  -0.683  0.00  0.00    -0.056 A 
HETATM   12  C           1     -23.019 -10.160  -0.751  0.00  0.00     0.007 A 
HETATM   13  C           1     -22.862 -11.355  -0.048  0.00  0.00     0.001 A 
HETATM   14  C           1     -21.718 -11.565   0.722  0.00  0.00     0.000 A 
HETATM   15  C           1     -20.732 -10.581   0.790  0.00  0.00     0.001 A 
HETATM   16  C           1     -20.889  -9.386   0.087  0.00  0.00     0.007 A 
ENDBRANCH  10  11
ENDBRANCH   6  10
ENDBRANCH   3   6
ENDBRANCH   1   2
BRANCH   1  17
HETATM   17  C           1     -20.063  -4.844  -5.704  0.00  0.00     0.081 C 
BRANCH  17  18
HETATM   18  C           1     -20.650  -4.528  -7.045  0.00  0.00    -0.056 A 
HETATM   19  C           1     -21.926  -3.970  -7.134  0.00  0.00     0.010 A 
HETATM   20  C           1     -22.473  -3.675  -8.382  0.00  0.00     0.038 A 
HETATM   21  C           1     -21.744  -3.938  -9.542  0.00  0.00     0.081 A 
HETATM   22  C           1     -20.469  -4.496  -9.453  0.00  0.00     0.038 A 
HETATM   23  C           1     -19.922  -4.791  -8.204  0.00  0.00     0.010 A 
BRANCH  21  24
HETATM   24  O           1     -22.276  -3.653 -10.755  0.00  0.00    -0.247 OA
BRANCH  24  25
HETATM   25  P           1     -23.682  -4.342 -11.148  0.00  0.00     0.411 P 
HETATM   26  O           1     -23.911  -5.522 -10.286  0.00  0.00    -0.624 OA
HETATM   27  O           1     -24.780  -3.369 -10.956  0.00  0.00    -0.624 OA
BRANCH  25  28
HETATM   28  O           1     -23.641  -4.807 -12.695  0.00  0.00    -0.300 OA
HETATM   29  H           1     -24.025  -4.094 -13.174  0.00  0.00     0.223 HD
ENDBRANCH  25  28
ENDBRANCH  24  25
ENDBRANCH  21  24
ENDBRANCH  17  18
ENDBRANCH   1  17
BRANCH   1  30
HETATM   30  N           1     -20.990  -6.986  -6.506  0.00  0.00    -0.066 N 
HETATM   31  H           1     -21.836  -6.479  -6.851  0.00  0.00     0.275 HD
HETATM   32  H           1     -20.271  -7.019  -7.263  0.00  0.00     0.275 HD
HETATM   33  H           1     -21.256  -7.960  -6.234  0.00  0.00     0.275 HD
ENDBRANCH   1  30
TORSDOF 11
ENDMDL
MODEL 6
REMARK VINA RESULT:      -8.1     13.446     15.962
REMARK  11 active torsions:
REMARK  status: ('A' for Active; 'I' for Inactive)
REMARK    1  A    between atoms: C_4  and  C_6 
REMARK    2  A    between atoms: C_6  and  C_7 
REMARK    3  A    between atoms: C_6  and  N_14 
REMARK    4  A    between atoms: C_7  and  C_8 
REMARK       I    between atoms: N_14  and  C_15 
REMARK    5  A    between atoms: C_15  and  C_16 
REMARK    6  A    between atoms: C_16  and  C_17 
REMARK    7  A    between atoms: C_16  and  N_27 
REMARK    8  A    between atoms: C_17  and  C_18 
REMARK    9  A    between atoms: C_21  and  O_22 
REMARK   10  A    between atoms: O_22  and  P_23 
REMARK   11  A    between atoms: P_23  and  O_24 
ROOT
HETATM    1  C           1     -33.969  -3.470 -15.771  0.00  0.00     0.278 C 
ENDROOT
BRANCH   1   2
HETATM    2  C           1     -34.905  -2.305 -15.560  0.00  0.00     0.249 C 
HETATM    3  N           1     -34.736  -1.477 -14.482  0.00  0.00    -0.344 N 
HETATM    4  H           1     -34.144  -0.660 -14.559  0.00  0.00     0.163 HD
HETATM    5  O           1     -35.803  -2.101 -16.343  0.00  0.00    -0.271 OA
BRANCH   3   6
HETATM    6  C           1     -35.406  -1.773 -13.230  0.00  0.00     0.189 C 
BRANCH   6   7
HETATM    7  C           1     -36.441  -0.710 -12.952  0.00  0.00     0.197 C 
HETATM    8  O           1     -36.257   0.118 -12.033  0.00  0.00    -0.646 OA
HETATM    9  O           1     -37.483  -0.658 -13.641  0.00  0.00    -0.646 OA
ENDBRANCH   6   7
BRANCH   6  10
HETATM   10  C           1     -34.385  -1.797 -12.102  0.00  0.00     0.074 C 
BRANCH  10  11
HETATM   11  C           1     -34.114  -3.214 -11.702  0.00  0.00    -0.056 A 
HETATM   12  C           1     -35.071  -3.931 -10.985  0.00  0.00     0.007 A 
HETATM   13  C           1     -34.818  -5.253 -10.613  0.00  0.00     0.001 A 
HETATM   14  C           1     -33.609  -5.855 -10.959  0.00  0.00     0.000 A 
HETATM   15  C           1     -32.652  -5.137 -11.676  0.00  0.00     0.001 A 
HETATM   16  C           1     -32.904  -3.817 -12.048  0.00  0.00     0.007 A 
ENDBRANCH  10  11
ENDBRANCH   6  10
ENDBRANCH   3   6
ENDBRANCH   1   2
BRANCH   1  17
HETATM   17  C           1     -33.540  -3.519 -17.231  0.00  0.00     0.081 C 
BRANCH  17  18
HETATM   18  C           1     -32.180  -4.137 -17.331  0.00  0.00    -0.056 A 
HETATM   19  C           1     -32.007  -5.492 -17.051  0.00  0.00     0.010 A 
HETATM   20  C           1     -30.741  -6.068 -17.144  0.00  0.00     0.038 A 
HETATM   21  C           1     -29.646  -5.288 -17.518  0.00  0.00     0.081 A 
HETATM   22  C           1     -29.819  -3.933 -17.798  0.00  0.00     0.038 A 
HETATM   23  C           1     -31.086  -3.357 -17.705  0.00  0.00     0.010 A 
BRANCH  21  24
HETATM   24  O           1     -28.415  -5.848 -17.608  0.00  0.00    -0.247 OA
BRANCH  24  25
HETATM   25  P           1     -27.529  -5.951 -16.262  0.00  0.00     0.411 P 
HETATM   26  O           1     -26.123  -5.611 -16.570  0.00  0.00    -0.624 OA
HETATM   27  O           1     -28.056  -5.007 -15.251  0.00  0.00    -0.624 OA
BRANCH  25  28
HETATM   28  O           1     -27.603  -7.456 -15.682  0.00  0.00    -0.300 OA
HETATM   29  H           1     -28.051  -7.952 -16.345  0.00  0.00     0.223 HD
ENDBRANCH  25  28
ENDBRANCH  24  25
ENDBRANCH  21  24
ENDBRANCH  17  18
ENDBRANCH   1  17
BRANCH   1  30
HETATM   30  N           1     -34.673  -4.746 -15.414  0.00  0.00    -0.066 N 
HETATM   31  H           1     -35.178  -5.112 -16.252  0.00  0.00     0.275 HD
HETATM   32  H           1     -33.974  -5.451 -15.093  0.00  0.00     0.275 HD
HETATM   33  H           1     -35.361  -4.561 -14.648  0.00  0.00     0.275 HD
ENDBRANCH   1  30
TORSDOF 11
ENDMDL
MODEL 7
REMARK VINA RESULT:      -8.1      1.445      2.358
REMARK  11 active torsions:
REMARK  status: ('A' for Active; 'I' for Inactive)
REMARK    1  A    between atoms: C_4  and  C_6 
REMARK    2  A    between atoms: C_6  and  C_7 
REMARK    3  A    between atoms: C_6  and  N_14 
REMARK    4  A    between atoms: C_7  and  C_8 
REMARK       I    between atoms: N_14  and  C_15 
REMARK    5  A    between atoms: C_15  and  C_16 
REMARK    6  A    between atoms: C_16  and  C_17 
REMARK    7  A    between atoms: C_16  and  N_27 
REMARK    8  A    between atoms: C_17  and  C_18 
REMARK    9  A    between atoms: C_21  and  O_22 
REMARK   10  A    between atoms: O_22  and  P_23 
REMARK   11  A    between atoms: P_23  and  O_24 
ROOT
HETATM    1  C           1     -20.811  -8.197  -5.355  0.00  0.00     0.278 C 
ENDROOT
BRANCH   1   2
HETATM    2  C           1     -19.605  -9.072  -5.109  0.00  0.00     0.249 C 
HETATM    3  N           1     -19.616  -9.980  -4.085  0.00  0.00    -0.344 N 
HETATM    4  H           1     -19.950 -10.922  -4.247  0.00  0.00     0.163 HD
HETATM    5  O           1     -18.631  -8.971  -5.817  0.00  0.00    -0.271 OA
BRANCH   3   6
HETATM    6  C           1     -19.149  -9.592  -2.768  0.00  0.00     0.189 C 
BRANCH   6   7
HETATM    7  C           1     -17.698  -9.979  -2.615  0.00  0.00     0.197 C 
HETATM    8  O           1     -16.800  -9.215  -3.030  0.00  0.00    -0.646 OA
HETATM    9  O           1     -17.395 -11.065  -2.074  0.00  0.00    -0.646 OA
ENDBRANCH   6   7
BRANCH   6  10
HETATM   10  C           1     -19.979 -10.301  -1.706  0.00  0.00     0.074 C 
BRANCH  10  11
HETATM   11  C           1     -20.994  -9.352  -1.149  0.00  0.00    -0.056 A 
HETATM   12  C           1     -20.901  -7.989  -1.428  0.00  0.00     0.007 A 
HETATM   13  C           1     -21.847  -7.104  -0.908  0.00  0.00     0.001 A 
HETATM   14  C           1     -22.886  -7.584  -0.111  0.00  0.00     0.000 A 
HETATM   15  C           1     -22.978  -8.947   0.168  0.00  0.00     0.001 A 
HETATM   16  C           1     -22.033  -9.831  -0.350  0.00  0.00     0.007 A 
ENDBRANCH  10  11
ENDBRANCH   6  10
ENDBRANCH   3   6
ENDBRANCH   1   2
BRANCH   1  17
HETATM   17  C           1     -20.498  -6.769  -4.926  0.00  0.00     0.081 C 
BRANCH  17  18
HETATM   18  C           1     -20.801  -5.832  -6.054  0.00  0.00    -0.056 A 
HETATM   19  C           1     -19.762  -5.311  -6.825  0.00  0.00     0.010 A 
HETATM   20  C           1     -20.043  -4.439  -7.876  0.00  0.00     0.038 A 
HETATM   21  C           1     -21.364  -4.088  -8.156  0.00  0.00     0.081 A 
HETATM   22  C           1     -22.403  -4.609  -7.385  0.00  0.00     0.038 A 
HETATM   23  C           1     -22.121  -5.482  -6.334  0.00  0.00     0.010 A 
BRANCH  21  24
HETATM   24  O           1     -21.638  -3.240  -9.177  0.00  0.00    -0.247 OA
BRANCH  24  25
HETATM   25  P           1     -21.730  -3.852 -10.668  0.00  0.00     0.411 P 
HETATM   26  O           1     -21.811  -2.748 -11.650  0.00  0.00    -0.624 OA
HETATM   27  O           1     -20.527  -4.669 -10.941  0.00  0.00    -0.624 OA
BRANCH  25  28
HETATM   28  O           1     -23.048  -4.778 -10.790  0.00  0.00    -0.300 OA
HETATM   29  H           1     -23.771  -4.176 -10.781  0.00  0.00     0.223 HD
ENDBRANCH  25  28
ENDBRANCH  24  25
ENDBRANCH  21  24
ENDBRANCH  17  18
ENDBRANCH   1  17
BRANCH   1  30
HETATM   30  N           1     -21.972  -8.714  -4.559  0.00  0.00    -0.066 N 
HETATM   31  H           1     -22.807  -8.806  -5.180  0.00  0.00     0.275 HD
HETATM   32  H           1     -21.732  -9.649  -4.159  0.00  0.00     0.275 HD
HETATM   33  H           1     -22.188  -8.047  -3.783  0.00  0.00     0.275 HD
ENDBRANCH   1  30
TORSDOF 11
ENDMDL
MODEL 8
REMARK VINA RESULT:      -8.0      4.967      6.792
REMARK  11 active torsions:
REMARK  status: ('A' for Active; 'I' for Inactive)
REMARK    1  A    between atoms: C_4  and  C_6 
REMARK    2  A    between atoms: C_6  and  C_7 
REMARK    3  A    between atoms: C_6  and  N_14 
REMARK    4  A    between atoms: C_7  and  C_8 
REMARK       I    between atoms: N_14  and  C_15 
REMARK    5  A    between atoms: C_15  and  C_16 
REMARK    6  A    between atoms: C_16  and  C_17 
REMARK    7  A    between atoms: C_16  and  N_27 
REMARK    8  A    between atoms: C_17  and  C_18 
REMARK    9  A    between atoms: C_21  and  O_22 
REMARK   10  A    between atoms: O_22  and  P_23 
REMARK   11  A    between atoms: P_23  and  O_24 
ROOT
HETATM    1  C           1     -18.702 -12.216  -0.975  0.00  0.00     0.278 C 
ENDROOT
BRANCH   1   2
HETATM    2  C           1     -19.291 -13.324  -0.136  0.00  0.00     0.249 C 
HETATM    3  N           1     -20.642 -13.550  -0.151  0.00  0.00    -0.344 N 
HETATM    4  H           1     -21.040 -14.193  -0.824  0.00  0.00     0.163 HD
HETATM    5  O           1     -18.571 -14.012   0.548  0.00  0.00    -0.271 OA
BRANCH   3   6
HETATM    6  C           1     -21.501 -12.868   0.798  0.00  0.00     0.189 C 
BRANCH   6   7
HETATM    7  C           1     -22.171 -13.886   1.689  0.00  0.00     0.197 C 
HETATM    8  O           1     -21.570 -14.937   2.000  0.00  0.00    -0.646 OA
HETATM    9  O           1     -23.327 -13.676   2.117  0.00  0.00    -0.646 OA
ENDBRANCH   6   7
BRANCH   6  10
HETATM   10  C           1     -22.560 -12.076   0.045  0.00  0.00     0.074 C 
BRANCH  10  11
HETATM   11  C           1     -22.355 -10.612   0.285  0.00  0.00    -0.056 A 
HETATM   12  C           1     -21.163 -10.160   0.852  0.00  0.00     0.007 A 
HETATM   13  C           1     -20.972  -8.795   1.076  0.00  0.00     0.001 A 
HETATM   14  C           1     -21.972  -7.885   0.734  0.00  0.00     0.000 A 
HETATM   15  C           1     -23.164  -8.339   0.168  0.00  0.00     0.001 A 
HETATM   16  C           1     -23.355  -9.702  -0.056  0.00  0.00     0.007 A 
ENDBRANCH  10  11
ENDBRANCH   6  10
ENDBRANCH   3   6
ENDBRANCH   1   2
BRANCH   1  17
HETATM   17  C           1     -19.334 -12.238  -2.360  0.00  0.00     0.081 C 
BRANCH  17  18
HETATM   18  C           1     -20.013 -10.929  -2.620  0.00  0.00    -0.056 A 
HETATM   19  C           1     -21.294 -10.905  -3.171  0.00  0.00     0.010 A 
HETATM   20  C           1     -21.927  -9.686  -3.412  0.00  0.00     0.038 A 
HETATM   21  C           1     -21.278  -8.490  -3.102  0.00  0.00     0.081 A 
HETATM   22  C           1     -19.997  -8.514  -2.550  0.00  0.00     0.038 A 
HETATM   23  C           1     -19.365  -9.734  -2.309  0.00  0.00     0.010 A 
BRANCH  21  24
HETATM   24  O           1     -21.892  -7.306  -3.337  0.00  0.00    -0.247 OA
BRANCH  24  25
HETATM   25  P           1     -21.695  -6.624  -4.787  0.00  0.00     0.411 P 
HETATM   26  O           1     -22.989  -6.079  -5.256  0.00  0.00    -0.624 OA
HETATM   27  O           1     -20.705  -5.529  -4.687  0.00  0.00    -0.624 OA
BRANCH  25  28
HETATM   28  O           1     -21.167  -7.732  -5.837  0.00  0.00    -0.300 OA
HETATM   29  H           1     -21.269  -7.334  -6.684  0.00  0.00     0.223 HD
ENDBRANCH  25  28
ENDBRANCH  24  25
ENDBRANCH  21  24
ENDBRANCH  17  18
ENDBRANCH   1  17
BRANCH   1  30
HETATM   30  N           1     -17.221 -12.418  -1.098  0.00  0.00    -0.066 N 
HETATM   31  H           1     -16.753 -12.112  -0.215  0.00  0.00     0.275 HD
HETATM   32  H           1     -17.020 -13.429  -1.266  0.00  0.00     0.275 HD
HETATM   33  H           1     -16.858 -11.852  -1.898  0.00  0.00     0.275 HD
ENDBRANCH   1  30
TORSDOF 11
ENDMDL
MODEL 9
REMARK VINA RESULT:      -7.9      4.147      9.610
REMARK  11 active torsions:
REMARK  status: ('A' for Active; 'I' for Inactive)
REMARK    1  A    between atoms: C_4  and  C_6 
REMARK    2  A    between atoms: C_6  and  C_7 
REMARK    3  A    between atoms: C_6  and  N_14 
REMARK    4  A    between atoms: C_7  and  C_8 
REMARK       I    between atoms: N_14  and  C_15 
REMARK    5  A    between atoms: C_15  and  C_16 
REMARK    6  A    between atoms: C_16  and  C_17 
REMARK    7  A    between atoms: C_16  and  N_27 
REMARK    8  A    between atoms: C_17  and  C_18 
REMARK    9  A    between atoms: C_21  and  O_22 
REMARK   10  A    between atoms: O_22  and  P_23 
REMARK   11  A    between atoms: P_23  and  O_24 
ROOT
HETATM    1  C           1     -21.733  -7.955  -4.427  0.00  0.00     0.278 C 
ENDROOT
BRANCH   1   2
HETATM    2  C           1     -21.669  -6.451  -4.544  0.00  0.00     0.249 C 
HETATM    3  N           1     -22.300  -5.818  -5.581  0.00  0.00    -0.344 N 
HETATM    4  H           1     -23.260  -5.516  -5.480  0.00  0.00     0.163 HD
HETATM    5  O           1     -21.061  -5.807  -3.722  0.00  0.00    -0.271 OA
BRANCH   3   6
HETATM    6  C           1     -21.592  -5.582  -6.824  0.00  0.00     0.189 C 
BRANCH   6   7
HETATM    7  C           1     -20.105  -5.592  -6.565  0.00  0.00     0.197 C 
HETATM    8  O           1     -19.433  -6.616  -6.815  0.00  0.00    -0.646 OA
HETATM    9  O           1     -19.545  -4.575  -6.100  0.00  0.00    -0.646 OA
ENDBRANCH   6   7
BRANCH   6  10
HETATM   10  C           1     -22.000  -4.229  -7.391  0.00  0.00     0.074 C 
BRANCH  10  11
HETATM   11  C           1     -21.934  -4.274  -8.887  0.00  0.00    -0.056 A 
HETATM   12  C           1     -23.091  -4.509  -9.629  0.00  0.00     0.007 A 
HETATM   13  C           1     -23.030  -4.550 -11.023  0.00  0.00     0.001 A 
HETATM   14  C           1     -21.811  -4.357 -11.673  0.00  0.00     0.000 A 
HETATM   15  C           1     -20.654  -4.123 -10.930  0.00  0.00     0.001 A 
HETATM   16  C           1     -20.715  -4.081  -9.537  0.00  0.00     0.007 A 
ENDBRANCH  10  11
ENDBRANCH   6  10
ENDBRANCH   3   6
ENDBRANCH   1   2
BRANCH   1  17
HETATM   17  C           1     -20.837  -8.414  -3.284  0.00  0.00     0.081 C 
BRANCH  17  18
HETATM   18  C           1     -21.622  -9.288  -2.355  0.00  0.00    -0.056 A 
HETATM   19  C           1     -21.741  -8.946  -1.009  0.00  0.00     0.010 A 
HETATM   20  C           1     -22.473  -9.759  -0.144  0.00  0.00     0.038 A 
HETATM   21  C           1     -23.085 -10.917  -0.626  0.00  0.00     0.081 A 
HETATM   22  C           1     -22.965 -11.259  -1.973  0.00  0.00     0.038 A 
HETATM   23  C           1     -22.234 -10.445  -2.837  0.00  0.00     0.010 A 
BRANCH  21  24
HETATM   24  O           1     -23.794 -11.708   0.214  0.00  0.00    -0.247 OA
BRANCH  24  25
HETATM   25  P           1     -23.117 -13.088   0.708  0.00  0.00     0.411 P 
HETATM   26  O           1     -23.414 -14.160  -0.268  0.00  0.00    -0.624 OA
HETATM   27  O           1     -21.652 -12.909   0.815  0.00  0.00    -0.624 OA
BRANCH  25  28
HETATM   28  O           1     -23.716 -13.496   2.152  0.00  0.00    -0.300 OA
HETATM   29  H           1     -23.072 -13.205   2.774  0.00  0.00     0.223 HD
ENDBRANCH  25  28
ENDBRANCH  24  25
ENDBRANCH  21  24
ENDBRANCH  17  18
ENDBRANCH   1  17
BRANCH   1  30
HETATM   30  N           1     -21.264  -8.575  -5.709  0.00  0.00    -0.066 N 
HETATM   31  H           1     -22.076  -8.696  -6.356  0.00  0.00     0.275 HD
HETATM   32  H           1     -20.552  -7.955  -6.156  0.00  0.00     0.275 HD
HETATM   33  H           1     -20.837  -9.509  -5.509  0.00  0.00     0.275 HD
ENDBRANCH   1  30
TORSDOF 11
ENDMDL
