MODEL 1
REMARK VINA RESULT:      -7.9      0.000      0.000
REMARK  12 active torsions:
REMARK  status: ('A' for Active; 'I' for Inactive)
REMARK    1  A    between atoms: N_9  and  C_22 
REMARK    2  A    between atoms: O_14  and  P_15 
REMARK    3  A    between atoms: P_15  and  O_16 
REMARK    4  A    between atoms: O_16  and  C_17 
REMARK    5  A    between atoms: C_20  and  C_21 
REMARK    6  A    between atoms: C_21  and  C_22 
REMARK    7  A    between atoms: C_22  and  C_23 
REMARK       I    between atoms: C_23  and  N_24 
REMARK    8  A    between atoms: N_24  and  C_28 
REMARK    9  A    between atoms: C_27  and  C_28 
REMARK   10  A    between atoms: C_28  and  C_29 
REMARK   11  A    between atoms: C_29  and  C_30 
REMARK   12  A    between atoms: C_30  and  C_32 
REMARK       I    between atoms: N_31  and  C_32 
ROOT
HETATM    1  C           1     -33.809  -4.865 -15.439  0.00  0.00     0.278 C 
ENDROOT
BRANCH   1   2
HETATM    2  N           1     -34.982  -5.680 -15.897  0.00  0.00    -0.066 N 
HETATM    3  H           1     -35.866  -5.243 -15.552  0.00  0.00     0.275 HD
HETATM    4  H           1     -34.900  -6.650 -15.517  0.00  0.00     0.275 HD
HETATM    5  H           1     -34.995  -5.716 -16.942  0.00  0.00     0.275 HD
ENDBRANCH   1   2
BRANCH   1   6
HETATM    6  C           1     -33.302  -4.013 -16.596  0.00  0.00     0.081 C 
BRANCH   6   7
HETATM    7  C           1     -31.970  -4.524 -17.047  0.00  0.00    -0.056 A 
HETATM    8  C           1     -31.019  -3.639 -17.555  0.00  0.00     0.010 A 
HETATM    9  C           1     -29.778  -4.116 -17.975  0.00  0.00     0.038 A 
HETATM   10  C           1     -29.486  -5.477 -17.887  0.00  0.00     0.081 A 
HETATM   11  C           1     -30.437  -6.362 -17.379  0.00  0.00     0.038 A 
HETATM   12  C           1     -31.679  -5.886 -16.959  0.00  0.00     0.010 A 
BRANCH  10  13
HETATM   13  O           1     -28.280  -5.939 -18.296  0.00  0.00    -0.247 OA
BRANCH  13  14
HETATM   14  P           1     -27.096  -6.039 -17.202  0.00  0.00     0.411 P 
HETATM   15  O           1     -26.983  -4.754 -16.479  0.00  0.00    -0.624 OA
HETATM   16  O           1     -25.818  -6.337 -17.887  0.00  0.00    -0.624 OA
BRANCH  14  17
HETATM   17  O           1     -27.430  -7.221 -16.153  0.00  0.00    -0.300 OA
HETATM   18  H           1     -26.822  -7.097 -15.445  0.00  0.00     0.223 HD
ENDBRANCH  14  17
ENDBRANCH  13  14
ENDBRANCH  10  13
ENDBRANCH   6   7
ENDBRANCH   1   6
BRANCH   1  19
HETATM   19  C           1     -34.232  -3.970 -14.301  0.00  0.00     0.249 C 
HETATM   20  O           1     -34.591  -2.838 -14.524  0.00  0.00    -0.271 OA
HETATM   21  N           1     -34.212  -4.441 -13.015  0.00  0.00    -0.345 N 
HETATM   22  H           1     -33.912  -5.389 -12.828  0.00  0.00     0.163 HD
BRANCH  21  23
HETATM   23  C           1     -34.620  -3.580 -11.922  0.00  0.00     0.186 C 
BRANCH  23  24
HETATM   24  C           1     -33.401  -2.930 -11.314  0.00  0.00     0.196 C 
HETATM   25  O           1     -32.263  -3.386 -11.557  0.00  0.00    -0.646 OA
HETATM   26  O           1     -33.530  -1.936 -10.568  0.00  0.00    -0.646 OA
ENDBRANCH  23  24
BRANCH  23  27
HETATM   27  C           1     -35.336  -4.408 -10.863  0.00  0.00     0.045 C 
BRANCH  27  28
HETATM   28  C           1     -34.354  -5.387 -10.233  0.00  0.00     0.105 C 
BRANCH  28  29
HETATM   29  C           1     -34.797  -6.800 -10.521  0.00  0.00     0.215 C 
HETATM   30  N           1     -34.890  -7.709  -9.502  0.00  0.00    -0.370 N 
HETATM   31  H           1     -35.186  -8.657  -9.694  0.00  0.00     0.159 HD
HETATM   32  H           1     -34.664  -7.432  -8.554  0.00  0.00     0.159 HD
HETATM   33  O           1     -35.066  -7.130 -11.651  0.00  0.00    -0.274 OA
ENDBRANCH  28  29
ENDBRANCH  27  28
ENDBRANCH  23  27
ENDBRANCH  21  23
ENDBRANCH   1  19
TORSDOF 12
ENDMDL
MODEL 2
REMARK VINA RESULT:      -7.7     12.991     15.079
REMARK  12 active torsions:
REMARK  status: ('A' for Active; 'I' for Inactive)
REMARK    1  A    between atoms: N_9  and  C_22 
REMARK    2  A    between atoms: O_14  and  P_15 
REMARK    3  A    between atoms: P_15  and  O_16 
REMARK    4  A    between atoms: O_16  and  C_17 
REMARK    5  A    between atoms: C_20  and  C_21 
REMARK    6  A    between atoms: C_21  and  C_22 
REMARK    7  A    between atoms: C_22  and  C_23 
REMARK       I    between atoms: C_23  and  N_24 
REMARK    8  A    between atoms: N_24  and  C_28 
REMARK    9  A    between atoms: C_27  and  C_28 
REMARK   10  A    between atoms: C_28  and  C_29 
REMARK   11  A    between atoms: C_29  and  C_30 
REMARK   12  A    between atoms: C_30  and  C_32 
REMARK       I    between atoms: N_31  and  C_32 
ROOT
HETATM    1  C           1     -22.387  -5.034  -6.326  0.00  0.00     0.278 C 
ENDROOT
BRANCH   1   2
HETATM    2  N           1     -23.812  -5.351  -5.979  0.00  0.00    -0.066 N 
HETATM    3  H           1     -23.959  -5.215  -4.953  0.00  0.00     0.275 HD
HETATM    4  H           1     -24.019  -6.343  -6.234  0.00  0.00     0.275 HD
HETATM    5  H           1     -24.449  -4.715  -6.510  0.00  0.00     0.275 HD
ENDBRANCH   1   2
BRANCH   1   6
HETATM    6  C           1     -21.580  -6.324  -6.380  0.00  0.00     0.081 C 
BRANCH   6   7
HETATM    7  C           1     -21.407  -6.864  -4.995  0.00  0.00    -0.056 A 
HETATM    8  C           1     -21.454  -8.241  -4.772  0.00  0.00     0.010 A 
HETATM    9  C           1     -21.293  -8.744  -3.482  0.00  0.00     0.038 A 
HETATM   10  C           1     -21.084  -7.872  -2.414  0.00  0.00     0.081 A 
HETATM   11  C           1     -21.037  -6.496  -2.636  0.00  0.00     0.038 A 
HETATM   12  C           1     -21.198  -5.992  -3.927  0.00  0.00     0.010 A 
BRANCH  10  13
HETATM   13  O           1     -20.928  -8.361  -1.160  0.00  0.00    -0.247 OA
BRANCH  13  14
HETATM   14  P           1     -22.196  -8.309  -0.162  0.00  0.00     0.411 P 
HETATM   15  O           1     -23.033  -9.512  -0.365  0.00  0.00    -0.624 OA
HETATM   16  O           1     -22.995  -7.096  -0.445  0.00  0.00    -0.624 OA
BRANCH  14  17
HETATM   17  O           1     -21.677  -8.266   1.367  0.00  0.00    -0.300 OA
HETATM   18  H           1     -20.759  -8.468   1.319  0.00  0.00     0.223 HD
ENDBRANCH  14  17
ENDBRANCH  13  14
ENDBRANCH  10  13
ENDBRANCH   6   7
ENDBRANCH   1   6
BRANCH   1  19
HETATM   19  C           1     -22.337  -4.351  -7.670  0.00  0.00     0.249 C 
HETATM   20  O           1     -21.377  -3.684  -7.973  0.00  0.00    -0.271 OA
HETATM   21  N           1     -23.380  -4.490  -8.548  0.00  0.00    -0.345 N 
HETATM   22  H           1     -24.183  -5.049  -8.294  0.00  0.00     0.163 HD
BRANCH  21  23
HETATM   23  C           1     -23.331  -3.834  -9.840  0.00  0.00     0.186 C 
BRANCH  23  24
HETATM   24  C           1     -24.689  -3.263 -10.164  0.00  0.00     0.196 C 
HETATM   25  O           1     -25.176  -3.418 -11.305  0.00  0.00    -0.646 OA
HETATM   26  O           1     -25.327  -2.635  -9.293  0.00  0.00    -0.646 OA
ENDBRANCH  23  24
BRANCH  23  27
HETATM   27  C           1     -22.937  -4.845 -10.909  0.00  0.00     0.045 C 
BRANCH  27  28
HETATM   28  C           1     -21.964  -4.198 -11.886  0.00  0.00     0.105 C 
BRANCH  28  29
HETATM   29  C           1     -20.679  -3.860 -11.170  0.00  0.00     0.215 C 
HETATM   30  N           1     -19.997  -4.835 -10.494  0.00  0.00    -0.370 N 
HETATM   31  H           1     -19.136  -4.609 -10.013  0.00  0.00     0.159 HD
HETATM   32  H           1     -20.353  -5.783 -10.475  0.00  0.00     0.159 HD
HETATM   33  O           1     -20.255  -2.730 -11.193  0.00  0.00    -0.274 OA
ENDBRANCH  28  29
ENDBRANCH  27  28
ENDBRANCH  23  27
ENDBRANCH  21  23
ENDBRANCH   1  19
TORSDOF 12
ENDMDL
MODEL 3
REMARK VINA RESULT:      -7.5     13.268     14.670
REMARK  12 active torsions:
REMARK  status: ('A' for Active; 'I' for Inactive)
REMARK    1  A    between atoms: N_9  and  C_22 
REMARK    2  A    between atoms: O_14  and  P_15 
REMARK    3  A    between atoms: P_15  and  O_16 
REMARK    4  A    between atoms: O_16  and  C_17 
REMARK    5  A    between atoms: C_20  and  C_21 
REMARK    6  A    between atoms: C_21  and  C_22 
REMARK    7  A    between atoms: C_22  and  C_23 
REMARK       I    between atoms: C_23  and  N_24 
REMARK    8  A    between atoms: N_24  and  C_28 
REMARK    9  A    between atoms: C_27  and  C_28 
REMARK   10  A    between atoms: C_28  and  C_29 
REMARK   11  A    between atoms: C_29  and  C_30 
REMARK   12  A    between atoms: C_30  and  C_32 
REMARK       I    between atoms: N_31  and  C_32 
ROOT
HETATM    1  C           1     -21.338  -6.638  -4.806  0.00  0.00     0.278 C 
ENDROOT
BRANCH   1   2
HETATM    2  N           1     -21.491  -5.698  -3.647  0.00  0.00    -0.066 N 
HETATM    3  H           1     -22.357  -5.127  -3.774  0.00  0.00     0.275 HD
HETATM    4  H           1     -20.660  -5.066  -3.600  0.00  0.00     0.275 HD
HETATM    5  H           1     -21.562  -6.246  -2.760  0.00  0.00     0.275 HD
ENDBRANCH   1   2
BRANCH   1   6
HETATM    6  C           1     -20.230  -6.136  -5.723  0.00  0.00     0.081 C 
BRANCH   6   7
HETATM    7  C           1     -20.834  -5.433  -6.897  0.00  0.00    -0.056 A 
HETATM    8  C           1     -22.088  -4.833  -6.782  0.00  0.00     0.010 A 
HETATM    9  C           1     -22.651  -4.177  -7.877  0.00  0.00     0.038 A 
HETATM   10  C           1     -21.960  -4.120  -9.087  0.00  0.00     0.081 A 
HETATM   11  C           1     -20.706  -4.719  -9.202  0.00  0.00     0.038 A 
HETATM   12  C           1     -20.142  -5.375  -8.108  0.00  0.00     0.010 A 
BRANCH  10  13
HETATM   13  O           1     -22.507  -3.483 -10.150  0.00  0.00    -0.247 OA
BRANCH  13  14
HETATM   14  P           1     -23.716  -4.215 -10.933  0.00  0.00     0.411 P 
HETATM   15  O           1     -24.900  -3.327 -10.951  0.00  0.00    -0.624 OA
HETATM   16  O           1     -24.055  -5.479 -10.242  0.00  0.00    -0.624 OA
BRANCH  14  17
HETATM   17  O           1     -23.260  -4.536 -12.448  0.00  0.00    -0.300 OA
HETATM   18  H           1     -23.232  -3.699 -12.878  0.00  0.00     0.223 HD
ENDBRANCH  14  17
ENDBRANCH  13  14
ENDBRANCH  10  13
ENDBRANCH   6   7
ENDBRANCH   1   6
BRANCH   1  19
HETATM   19  C           1     -20.984  -8.012  -4.294  0.00  0.00     0.249 C 
HETATM   20  O           1     -20.157  -8.677  -4.871  0.00  0.00    -0.271 OA
HETATM   21  N           1     -21.599  -8.505  -3.174  0.00  0.00    -0.345 N 
HETATM   22  H           1     -22.291  -7.948  -2.690  0.00  0.00     0.163 HD
BRANCH  21  23
HETATM   23  C           1     -21.258  -9.826  -2.682  0.00  0.00     0.186 C 
BRANCH  23  24
HETATM   24  C           1     -22.437 -10.749  -2.864  0.00  0.00     0.196 C 
HETATM   25  O           1     -23.143 -11.062  -1.881  0.00  0.00    -0.646 OA
HETATM   26  O           1     -22.710 -11.200  -3.997  0.00  0.00    -0.646 OA
ENDBRANCH  23  24
BRANCH  23  27
HETATM   27  C           1     -20.902  -9.742  -1.204  0.00  0.00     0.045 C 
BRANCH  27  28
HETATM   28  C           1     -20.883  -8.283  -0.767  0.00  0.00     0.105 C 
BRANCH  28  29
HETATM   29  C           1     -22.289  -7.831  -0.459  0.00  0.00     0.215 C 
HETATM   30  N           1     -23.127  -8.642   0.256  0.00  0.00    -0.370 N 
HETATM   31  H           1     -24.071  -8.340   0.463  0.00  0.00     0.159 HD
HETATM   32  H           1     -22.804  -9.545   0.580  0.00  0.00     0.159 HD
HETATM   33  O           1     -22.675  -6.754  -0.846  0.00  0.00    -0.274 OA
ENDBRANCH  28  29
ENDBRANCH  27  28
ENDBRANCH  23  27
ENDBRANCH  21  23
ENDBRANCH   1  19
TORSDOF 12
ENDMDL
MODEL 4
REMARK VINA RESULT:      -7.4      1.794      2.511
REMARK  12 active torsions:
REMARK  status: ('A' for Active; 'I' for Inactive)
REMARK    1  A    between atoms: N_9  and  C_22 
REMARK    2  A    between atoms: O_14  and  P_15 
REMARK    3  A    between atoms: P_15  and  O_16 
REMARK    4  A    between atoms: O_16  and  C_17 
REMARK    5  A    between atoms: C_20  and  C_21 
REMARK    6  A    between atoms: C_21  and  C_22 
REMARK    7  A    between atoms: C_22  and  C_23 
REMARK       I    between atoms: C_23  and  N_24 
REMARK    8  A    between atoms: N_24  and  C_28 
REMARK    9  A    between atoms: C_27  and  C_28 
REMARK   10  A    between atoms: C_28  and  C_29 
REMARK   11  A    between atoms: C_29  and  C_30 
REMARK   12  A    between atoms: C_30  and  C_32 
REMARK       I    between atoms: N_31  and  C_32 
ROOT
HETATM    1  C           1     -32.868  -4.721 -16.907  0.00  0.00     0.278 C 
ENDROOT
BRANCH   1   2
HETATM    2  N           1     -31.856  -3.614 -16.886  0.00  0.00    -0.066 N 
HETATM    3  H           1     -30.895  -4.020 -16.947  0.00  0.00     0.275 HD
HETATM    4  H           1     -31.951  -3.074 -15.996  0.00  0.00     0.275 HD
HETATM    5  H           1     -32.018  -2.977 -17.698  0.00  0.00     0.275 HD
ENDBRANCH   1   2
BRANCH   1   6
HETATM    6  C           1     -32.151  -6.063 -16.984  0.00  0.00     0.081 C 
BRANCH   6   7
HETATM    7  C           1     -30.675  -5.847 -16.874  0.00  0.00    -0.056 A 
HETATM    8  C           1     -30.102  -5.560 -15.635  0.00  0.00     0.010 A 
HETATM    9  C           1     -28.726  -5.359 -15.532  0.00  0.00     0.038 A 
HETATM   10  C           1     -27.921  -5.447 -16.668  0.00  0.00     0.081 A 
HETATM   11  C           1     -28.494  -5.734 -17.907  0.00  0.00     0.038 A 
HETATM   12  C           1     -29.870  -5.935 -18.010  0.00  0.00     0.010 A 
BRANCH  10  13
HETATM   13  O           1     -26.584  -5.252 -16.568  0.00  0.00    -0.247 OA
BRANCH  13  14
HETATM   14  P           1     -25.680  -6.467 -16.007  0.00  0.00     0.411 P 
HETATM   15  O           1     -24.785  -6.951 -17.080  0.00  0.00    -0.624 OA
HETATM   16  O           1     -26.561  -7.570 -15.561  0.00  0.00    -0.624 OA
BRANCH  14  17
HETATM   17  O           1     -24.795  -5.948 -14.759  0.00  0.00    -0.300 OA
HETATM   18  H           1     -25.127  -6.417 -14.013  0.00  0.00     0.223 HD
ENDBRANCH  14  17
ENDBRANCH  13  14
ENDBRANCH  10  13
ENDBRANCH   6   7
ENDBRANCH   1   6
BRANCH   1  19
HETATM   19  C           1     -33.700  -4.665 -15.650  0.00  0.00     0.249 C 
HETATM   20  O           1     -34.806  -5.150 -15.636  0.00  0.00    -0.271 OA
HETATM   21  N           1     -33.200  -4.066 -14.524  0.00  0.00    -0.345 N 
HETATM   22  H           1     -32.274  -3.660 -14.536  0.00  0.00     0.163 HD
BRANCH  21  23
HETATM   23  C           1     -34.001  -4.013 -13.316  0.00  0.00     0.186 C 
BRANCH  23  24
HETATM   24  C           1     -34.829  -2.752 -13.318  0.00  0.00     0.196 C 
HETATM   25  O           1     -35.511  -2.451 -12.314  0.00  0.00    -0.646 OA
HETATM   26  O           1     -34.834  -2.009 -14.322  0.00  0.00    -0.646 OA
ENDBRANCH  23  24
BRANCH  23  27
HETATM   27  C           1     -33.085  -4.018 -12.099  0.00  0.00     0.045 C 
BRANCH  27  28
HETATM   28  C           1     -32.910  -5.446 -11.600  0.00  0.00     0.105 C 
BRANCH  28  29
HETATM   29  C           1     -34.177  -5.900 -10.916  0.00  0.00     0.215 C 
HETATM   30  N           1     -34.501  -7.229 -10.892  0.00  0.00    -0.370 N 
HETATM   31  H           1     -35.351  -7.535 -10.434  0.00  0.00     0.159 HD
HETATM   32  H           1     -33.892  -7.908 -11.331  0.00  0.00     0.159 HD
HETATM   33  O           1     -34.904  -5.091 -10.393  0.00  0.00    -0.274 OA
ENDBRANCH  28  29
ENDBRANCH  27  28
ENDBRANCH  23  27
ENDBRANCH  21  23
ENDBRANCH   1  19
TORSDOF 12
ENDMDL
MODEL 5
REMARK VINA RESULT:      -7.3     13.956     15.427
REMARK  12 active torsions:
REMARK  status: ('A' for Active; 'I' for Inactive)
REMARK    1  A    between atoms: N_9  and  C_22 
REMARK    2  A    between atoms: O_14  and  P_15 
REMARK    3  A    between atoms: P_15  and  O_16 
REMARK    4  A    between atoms: O_16  and  C_17 
REMARK    5  A    between atoms: C_20  and  C_21 
REMARK    6  A    between atoms: C_21  and  C_22 
REMARK    7  A    between atoms: C_22  and  C_23 
REMARK       I    between atoms: C_23  and  N_24 
REMARK    8  A    between atoms: N_24  and  C_28 
REMARK    9  A    between atoms: C_27  and  C_28 
REMARK   10  A    between atoms: C_28  and  C_29 
REMARK   11  A    between atoms: C_29  and  C_30 
REMARK   12  A    between atoms: C_30  and  C_32 
REMARK       I    between atoms: N_31  and  C_32 
ROOT
HETATM    1  C           1     -21.360  -6.488  -4.931  0.00  0.00     0.278 C 
ENDROOT
BRANCH   1   2
HETATM    2  N           1     -21.804  -5.959  -3.599  0.00  0.00    -0.066 N 
HETATM    3  H           1     -21.129  -5.231  -3.272  0.00  0.00     0.275 HD
HETATM    4  H           1     -21.836  -6.742  -2.908  0.00  0.00     0.275 HD
HETATM    5  H           1     -22.756  -5.537  -3.691  0.00  0.00     0.275 HD
ENDBRANCH   1   2
BRANCH   1   6
HETATM    6  C           1     -20.357  -5.525  -5.551  0.00  0.00     0.081 C 
BRANCH   6   7
HETATM    7  C           1     -20.884  -5.028  -6.860  0.00  0.00    -0.056 A 
HETATM    8  C           1     -20.103  -5.135  -8.011  0.00  0.00     0.010 A 
HETATM    9  C           1     -20.594  -4.673  -9.232  0.00  0.00     0.038 A 
HETATM   10  C           1     -21.866  -4.105  -9.303  0.00  0.00     0.081 A 
HETATM   11  C           1     -22.647  -3.999  -8.152  0.00  0.00     0.038 A 
HETATM   12  C           1     -22.156  -4.461  -6.931  0.00  0.00     0.010 A 
BRANCH  10  13
HETATM   13  O           1     -22.343  -3.656 -10.489  0.00  0.00    -0.247 OA
BRANCH  13  14
HETATM   14  P           1     -23.705  -4.313 -11.056  0.00  0.00     0.411 P 
HETATM   15  O           1     -24.817  -3.348 -10.907  0.00  0.00    -0.624 OA
HETATM   16  O           1     -24.012  -5.545 -10.296  0.00  0.00    -0.624 OA
BRANCH  14  17
HETATM   17  O           1     -23.516  -4.680 -12.618  0.00  0.00    -0.300 OA
HETATM   18  H           1     -23.979  -4.006 -13.085  0.00  0.00     0.223 HD
ENDBRANCH  14  17
ENDBRANCH  13  14
ENDBRANCH  10  13
ENDBRANCH   6   7
ENDBRANCH   1   6
BRANCH   1  19
HETATM   19  C           1     -20.714  -7.839  -4.745  0.00  0.00     0.249 C 
HETATM   20  O           1     -20.536  -8.559  -5.698  0.00  0.00    -0.271 OA
HETATM   21  N           1     -20.327  -8.246  -3.496  0.00  0.00    -0.345 N 
HETATM   22  H           1     -20.476  -7.643  -2.698  0.00  0.00     0.163 HD
BRANCH  21  23
HETATM   23  C           1     -19.705  -9.544  -3.318  0.00  0.00     0.186 C 
BRANCH  23  24
HETATM   24  C           1     -20.143 -10.134  -2.000  0.00  0.00     0.196 C 
HETATM   25  O           1     -20.620  -9.394  -1.113  0.00  0.00    -0.646 OA
HETATM   26  O           1     -20.029 -11.361  -1.795  0.00  0.00    -0.646 OA
ENDBRANCH  23  24
BRANCH  23  27
HETATM   27  C           1     -18.190  -9.388  -3.326  0.00  0.00     0.045 C 
BRANCH  27  28
HETATM   28  C           1     -17.564 -10.542  -4.096  0.00  0.00     0.105 C 
BRANCH  28  29
HETATM   29  C           1     -17.188 -10.079  -5.483  0.00  0.00     0.215 C 
HETATM   30  N           1     -18.138 -10.025  -6.466  0.00  0.00    -0.370 N 
HETATM   31  H           1     -17.888  -9.715  -7.396  0.00  0.00     0.159 HD
HETATM   32  H           1     -19.093 -10.295  -6.263  0.00  0.00     0.159 HD
HETATM   33  O           1     -16.049  -9.758  -5.724  0.00  0.00    -0.274 OA
ENDBRANCH  28  29
ENDBRANCH  27  28
ENDBRANCH  23  27
ENDBRANCH  21  23
ENDBRANCH   1  19
TORSDOF 12
ENDMDL
MODEL 6
REMARK VINA RESULT:      -6.9      2.629      4.001
REMARK  12 active torsions:
REMARK  status: ('A' for Active; 'I' for Inactive)
REMARK    1  A    between atoms: N_9  and  C_22 
REMARK    2  A    between atoms: O_14  and  P_15 
REMARK    3  A    between atoms: P_15  and  O_16 
REMARK    4  A    between atoms: O_16  and  C_17 
REMARK    5  A    between atoms: C_20  and  C_21 
REMARK    6  A    between atoms: C_21  and  C_22 
REMARK    7  A    between atoms: C_22  and  C_23 
REMARK       I    between atoms: C_23  and  N_24 
REMARK    8  A    between atoms: N_24  and  C_28 
REMARK    9  A    between atoms: C_27  and  C_28 
REMARK   10  A    between atoms: C_28  and  C_29 
REMARK   11  A    between atoms: C_29  and  C_30 
REMARK   12  A    between atoms: C_30  and  C_32 
REMARK       I    between atoms: N_31  and  C_32 
ROOT
HETATM    1  C           1     -32.960  -3.753 -17.390  0.00  0.00     0.278 C 
ENDROOT
BRANCH   1   2
HETATM    2  N           1     -31.817  -2.785 -17.463  0.00  0.00    -0.066 N 
HETATM    3  H           1     -31.155  -2.967 -16.675  0.00  0.00     0.275 HD
HETATM    4  H           1     -32.183  -1.808 -17.393  0.00  0.00     0.275 HD
HETATM    5  H           1     -31.317  -2.904 -18.373  0.00  0.00     0.275 HD
ENDBRANCH   1   2
BRANCH   1   6
HETATM    6  C           1     -32.446  -5.110 -16.928  0.00  0.00     0.081 C 
BRANCH   6   7
HETATM    7  C           1     -30.952  -5.078 -16.847  0.00  0.00    -0.056 A 
HETATM    8  C           1     -30.194  -4.930 -18.008  0.00  0.00     0.010 A 
HETATM    9  C           1     -28.802  -4.899 -17.933  0.00  0.00     0.038 A 
HETATM   10  C           1     -28.167  -5.015 -16.697  0.00  0.00     0.081 A 
HETATM   11  C           1     -28.925  -5.163 -15.535  0.00  0.00     0.038 A 
HETATM   12  C           1     -30.318  -5.193 -15.610  0.00  0.00     0.010 A 
BRANCH  10  13
HETATM   13  O           1     -26.814  -4.986 -16.624  0.00  0.00    -0.247 OA
BRANCH  13  14
HETATM   14  P           1     -26.042  -6.367 -16.305  0.00  0.00     0.411 P 
HETATM   15  O           1     -25.273  -6.224 -15.049  0.00  0.00    -0.624 OA
HETATM   16  O           1     -25.118  -6.683 -17.418  0.00  0.00    -0.624 OA
BRANCH  14  17
HETATM   17  O           1     -27.117  -7.562 -16.146  0.00  0.00    -0.300 OA
HETATM   18  H           1     -27.312  -7.834 -17.026  0.00  0.00     0.223 HD
ENDBRANCH  14  17
ENDBRANCH  13  14
ENDBRANCH  10  13
ENDBRANCH   6   7
ENDBRANCH   1   6
BRANCH   1  19
HETATM   19  C           1     -33.988  -3.243 -16.410  0.00  0.00     0.249 C 
HETATM   20  O           1     -34.311  -3.923 -15.465  0.00  0.00    -0.271 OA
HETATM   21  N           1     -34.553  -2.008 -16.590  0.00  0.00    -0.345 N 
HETATM   22  H           1     -34.282  -1.439 -17.381  0.00  0.00     0.163 HD
BRANCH  21  23
HETATM   23  C           1     -35.540  -1.519 -15.647  0.00  0.00     0.186 C 
BRANCH  23  24
HETATM   24  C           1     -36.539  -0.651 -16.373  0.00  0.00     0.196 C 
HETATM   25  O           1     -37.560  -1.165 -16.880  0.00  0.00    -0.646 OA
HETATM   26  O           1     -36.347   0.580 -16.466  0.00  0.00    -0.646 OA
ENDBRANCH  23  24
BRANCH  23  27
HETATM   27  C           1     -34.848  -0.700 -14.566  0.00  0.00     0.045 C 
BRANCH  27  28
HETATM   28  C           1     -35.560  -0.910 -13.236  0.00  0.00     0.105 C 
BRANCH  28  29
HETATM   29  C           1     -34.685  -1.729 -12.319  0.00  0.00     0.215 C 
HETATM   30  N           1     -34.166  -2.919 -12.751  0.00  0.00    -0.370 N 
HETATM   31  H           1     -33.580  -3.469 -12.136  0.00  0.00     0.159 HD
HETATM   32  H           1     -34.369  -3.250 -13.686  0.00  0.00     0.159 HD
HETATM   33  O           1     -34.443  -1.334 -11.203  0.00  0.00    -0.274 OA
ENDBRANCH  28  29
ENDBRANCH  27  28
ENDBRANCH  23  27
ENDBRANCH  21  23
ENDBRANCH   1  19
TORSDOF 12
ENDMDL
MODEL 7
REMARK VINA RESULT:      -6.8     13.940     15.587
REMARK  12 active torsions:
REMARK  status: ('A' for Active; 'I' for Inactive)
REMARK    1  A    between atoms: N_9  and  C_22 
REMARK    2  A    between atoms: O_14  and  P_15 
REMARK    3  A    between atoms: P_15  and  O_16 
REMARK    4  A    between atoms: O_16  and  C_17 
REMARK    5  A    between atoms: C_20  and  C_21 
REMARK    6  A    between atoms: C_21  and  C_22 
REMARK    7  A    between atoms: C_22  and  C_23 
REMARK       I    between atoms: C_23  and  N_24 
REMARK    8  A    between atoms: N_24  and  C_28 
REMARK    9  A    between atoms: C_27  and  C_28 
REMARK   10  A    between atoms: C_28  and  C_29 
REMARK   11  A    between atoms: C_29  and  C_30 
REMARK   12  A    between atoms: C_30  and  C_32 
REMARK       I    between atoms: N_31  and  C_32 
ROOT
HETATM    1  C           1     -21.057  -7.601  -5.212  0.00  0.00     0.278 C 
ENDROOT
BRANCH   1   2
HETATM    2  N           1     -21.597  -7.156  -3.884  0.00  0.00    -0.066 N 
HETATM    3  H           1     -22.641  -7.178  -3.908  0.00  0.00     0.275 HD
HETATM    4  H           1     -21.272  -6.183  -3.686  0.00  0.00     0.275 HD
HETATM    5  H           1     -21.251  -7.798  -3.135  0.00  0.00     0.275 HD
ENDBRANCH   1   2
BRANCH   1   6
HETATM    6  C           1     -20.106  -6.541  -5.752  0.00  0.00     0.081 C 
BRANCH   6   7
HETATM    7  C           1     -20.821  -5.692  -6.755  0.00  0.00    -0.056 A 
HETATM    8  C           1     -22.086  -5.182  -6.461  0.00  0.00     0.010 A 
HETATM    9  C           1     -22.753  -4.390  -7.395  0.00  0.00     0.038 A 
HETATM   10  C           1     -22.155  -4.106  -8.623  0.00  0.00     0.081 A 
HETATM   11  C           1     -20.891  -4.616  -8.917  0.00  0.00     0.038 A 
HETATM   12  C           1     -20.223  -5.409  -7.983  0.00  0.00     0.010 A 
BRANCH  10  13
HETATM   13  O           1     -22.804  -3.337  -9.530  0.00  0.00    -0.247 OA
BRANCH  13  14
HETATM   14  P           1     -23.671  -4.080 -10.673  0.00  0.00     0.411 P 
HETATM   15  O           1     -24.035  -5.437 -10.211  0.00  0.00    -0.624 OA
HETATM   16  O           1     -22.870  -4.177 -11.914  0.00  0.00    -0.624 OA
BRANCH  14  17
HETATM   17  O           1     -25.014  -3.232 -10.966  0.00  0.00    -0.300 OA
HETATM   18  H           1     -24.940  -2.464 -10.426  0.00  0.00     0.223 HD
ENDBRANCH  14  17
ENDBRANCH  13  14
ENDBRANCH  10  13
ENDBRANCH   6   7
ENDBRANCH   1   6
BRANCH   1  19
HETATM   19  C           1     -20.316  -8.904  -5.042  0.00  0.00     0.249 C 
HETATM   20  O           1     -20.924  -9.948  -5.028  0.00  0.00    -0.271 OA
HETATM   21  N           1     -18.953  -8.904  -4.905  0.00  0.00    -0.345 N 
HETATM   22  H           1     -18.443  -8.031  -4.916  0.00  0.00     0.163 HD
BRANCH  21  23
HETATM   23  C           1     -18.241 -10.157  -4.742  0.00  0.00     0.186 C 
BRANCH  23  24
HETATM   24  C           1     -17.179  -9.997  -3.683  0.00  0.00     0.196 C 
HETATM   25  O           1     -17.452 -10.226  -2.485  0.00  0.00    -0.646 OA
HETATM   26  O           1     -16.026  -9.636  -4.003  0.00  0.00    -0.646 OA
ENDBRANCH  23  24
BRANCH  23  27
HETATM   27  C           1     -17.588 -10.546  -6.062  0.00  0.00     0.045 C 
BRANCH  27  28
HETATM   28  C           1     -17.872 -12.013  -6.357  0.00  0.00     0.105 C 
BRANCH  28  29
HETATM   29  C           1     -18.927 -12.117  -7.430  0.00  0.00     0.215 C 
HETATM   30  N           1     -20.248 -11.953  -7.108  0.00  0.00    -0.370 N 
HETATM   31  H           1     -20.957 -12.023  -7.827  0.00  0.00     0.159 HD
HETATM   32  H           1     -20.516 -11.761  -6.151  0.00  0.00     0.159 HD
HETATM   33  O           1     -18.608 -12.346  -8.572  0.00  0.00    -0.274 OA
ENDBRANCH  28  29
ENDBRANCH  27  28
ENDBRANCH  23  27
ENDBRANCH  21  23
ENDBRANCH   1  19
TORSDOF 12
ENDMDL
MODEL 8
REMARK VINA RESULT:      -6.8      3.880      8.548
REMARK  12 active torsions:
REMARK  status: ('A' for Active; 'I' for Inactive)
REMARK    1  A    between atoms: N_9  and  C_22 
REMARK    2  A    between atoms: O_14  and  P_15 
REMARK    3  A    between atoms: P_15  and  O_16 
REMARK    4  A    between atoms: O_16  and  C_17 
REMARK    5  A    between atoms: C_20  and  C_21 
REMARK    6  A    between atoms: C_21  and  C_22 
REMARK    7  A    between atoms: C_22  and  C_23 
REMARK       I    between atoms: C_23  and  N_24 
REMARK    8  A    between atoms: N_24  and  C_28 
REMARK    9  A    between atoms: C_27  and  C_28 
REMARK   10  A    between atoms: C_28  and  C_29 
REMARK   11  A    between atoms: C_29  and  C_30 
REMARK   12  A    between atoms: C_30  and  C_32 
REMARK       I    between atoms: N_31  and  C_32 
ROOT
HETATM    1  C           1     -34.025  -4.340 -15.480  0.00  0.00     0.278 C 
ENDROOT
BRANCH   1   2
HETATM    2  N           1     -34.812  -5.578 -15.789  0.00  0.00    -0.066 N 
HETATM    3  H           1     -34.344  -6.106 -16.559  0.00  0.00     0.275 HD
HETATM    4  H           1     -35.778  -5.310 -16.086  0.00  0.00     0.275 HD
HETATM    5  H           1     -34.865  -6.180 -14.936  0.00  0.00     0.275 HD
ENDBRANCH   1   2
BRANCH   1   6
HETATM    6  C           1     -33.525  -4.402 -14.042  0.00  0.00     0.081 C 
BRANCH   6   7
HETATM    7  C           1     -34.068  -3.239 -13.273  0.00  0.00    -0.056 A 
HETATM    8  C           1     -33.771  -3.099 -11.918  0.00  0.00     0.010 A 
HETATM    9  C           1     -34.277  -2.015 -11.201  0.00  0.00     0.038 A 
HETATM   10  C           1     -35.080  -1.069 -11.840  0.00  0.00     0.081 A 
HETATM   11  C           1     -35.377  -1.210 -13.195  0.00  0.00     0.038 A 
HETATM   12  C           1     -34.871  -2.294 -13.913  0.00  0.00     0.010 A 
BRANCH  10  13
HETATM   13  O           1     -35.571  -0.017 -11.144  0.00  0.00    -0.247 OA
BRANCH  13  14
HETATM   14  P           1     -37.026  -0.172 -10.461  0.00  0.00     0.411 P 
HETATM   15  O           1     -37.490   1.149  -9.982  0.00  0.00    -0.624 OA
HETATM   16  O           1     -36.936  -1.109  -9.318  0.00  0.00    -0.624 OA
BRANCH  14  17
HETATM   17  O           1     -38.073  -0.749 -11.547  0.00  0.00    -0.300 OA
HETATM   18  H           1     -38.229  -0.034 -12.139  0.00  0.00     0.223 HD
ENDBRANCH  14  17
ENDBRANCH  13  14
ENDBRANCH  10  13
ENDBRANCH   6   7
ENDBRANCH   1   6
BRANCH   1  19
HETATM   19  C           1     -32.847  -4.246 -16.418  0.00  0.00     0.249 C 
HETATM   20  O           1     -32.814  -3.380 -17.261  0.00  0.00    -0.271 OA
HETATM   21  N           1     -31.815  -5.140 -16.314  0.00  0.00    -0.345 N 
HETATM   22  H           1     -31.843  -5.865 -15.609  0.00  0.00     0.163 HD
BRANCH  21  23
HETATM   23  C           1     -30.683  -5.049 -17.217  0.00  0.00     0.186 C 
BRANCH  23  24
HETATM   24  C           1     -30.468  -6.383 -17.888  0.00  0.00     0.196 C 
HETATM   25  O           1     -31.358  -7.259 -17.836  0.00  0.00    -0.646 OA
HETATM   26  O           1     -29.401  -6.612 -18.496  0.00  0.00    -0.646 OA
ENDBRANCH  23  24
BRANCH  23  27
HETATM   27  C           1     -29.436  -4.668 -16.431  0.00  0.00     0.045 C 
BRANCH  27  28
HETATM   28  C           1     -29.221  -5.668 -15.303  0.00  0.00     0.105 C 
BRANCH  28  29
HETATM   29  C           1     -27.984  -6.486 -15.583  0.00  0.00     0.215 C 
HETATM   30  N           1     -27.033  -6.013 -16.446  0.00  0.00    -0.370 N 
HETATM   31  H           1     -26.203  -6.562 -16.635  0.00  0.00     0.159 HD
HETATM   32  H           1     -27.158  -5.114 -16.895  0.00  0.00     0.159 HD
HETATM   33  O           1     -27.835  -7.559 -15.048  0.00  0.00    -0.274 OA
ENDBRANCH  28  29
ENDBRANCH  27  28
ENDBRANCH  23  27
ENDBRANCH  21  23
ENDBRANCH   1  19
TORSDOF 12
ENDMDL
MODEL 9
REMARK VINA RESULT:      -6.3     15.553     17.134
REMARK  12 active torsions:
REMARK  status: ('A' for Active; 'I' for Inactive)
REMARK    1  A    between atoms: N_9  and  C_22 
REMARK    2  A    between atoms: O_14  and  P_15 
REMARK    3  A    between atoms: P_15  and  O_16 
REMARK    4  A    between atoms: O_16  and  C_17 
REMARK    5  A    between atoms: C_20  and  C_21 
REMARK    6  A    between atoms: C_21  and  C_22 
REMARK    7  A    between atoms: C_22  and  C_23 
REMARK       I    between atoms: C_23  and  N_24 
REMARK    8  A    between atoms: N_24  and  C_28 
REMARK    9  A    between atoms: C_27  and  C_28 
REMARK   10  A    between atoms: C_28  and  C_29 
REMARK   11  A    between atoms: C_29  and  C_30 
REMARK   12  A    between atoms: C_30  and  C_32 
REMARK       I    between atoms: N_31  and  C_32 
ROOT
HETATM    1  C           1     -19.214 -10.732  -3.306  0.00  0.00     0.278 C 
ENDROOT
BRANCH   1   2
HETATM    2  N           1     -18.549 -11.957  -3.862  0.00  0.00    -0.066 N 
HETATM    3  H           1     -19.169 -12.786  -3.718  0.00  0.00     0.275 HD
HETATM    4  H           1     -17.640 -12.112  -3.370  0.00  0.00     0.275 HD
HETATM    5  H           1     -18.373 -11.825  -4.884  0.00  0.00     0.275 HD
ENDBRANCH   1   2
BRANCH   1   6
HETATM    6  C           1     -20.556 -10.528  -3.995  0.00  0.00     0.081 C 
BRANCH   6   7
HETATM    7  C           1     -20.690  -9.098  -4.416  0.00  0.00    -0.056 A 
HETATM    8  C           1     -21.840  -8.379  -4.089  0.00  0.00     0.010 A 
HETATM    9  C           1     -21.964  -7.047  -4.480  0.00  0.00     0.038 A 
HETATM   10  C           1     -20.938  -6.431  -5.198  0.00  0.00     0.081 A 
HETATM   11  C           1     -19.788  -7.150  -5.525  0.00  0.00     0.038 A 
HETATM   12  C           1     -19.663  -8.483  -5.133  0.00  0.00     0.010 A 
BRANCH  10  13
HETATM   13  O           1     -21.059  -5.137  -5.578  0.00  0.00    -0.247 OA
BRANCH  13  14
HETATM   14  P           1     -21.336  -4.828  -7.139  0.00  0.00     0.411 P 
HETATM   15  O           1     -22.718  -4.326  -7.304  0.00  0.00    -0.624 OA
HETATM   16  O           1     -21.162  -6.070  -7.925  0.00  0.00    -0.624 OA
BRANCH  14  17
HETATM   17  O           1     -20.291  -3.712  -7.660  0.00  0.00    -0.300 OA
HETATM   18  H           1     -20.061  -3.216  -6.894  0.00  0.00     0.223 HD
ENDBRANCH  14  17
ENDBRANCH  13  14
ENDBRANCH  10  13
ENDBRANCH   6   7
ENDBRANCH   1   6
BRANCH   1  19
HETATM   19  C           1     -19.430 -10.907  -1.823  0.00  0.00     0.249 C 
HETATM   20  O           1     -18.583 -11.443  -1.148  0.00  0.00    -0.271 OA
HETATM   21  N           1     -20.585 -10.455  -1.242  0.00  0.00    -0.345 N 
HETATM   22  H           1     -21.293 -10.006  -1.806  0.00  0.00     0.163 HD
BRANCH  21  23
HETATM   23  C           1     -20.791 -10.623   0.184  0.00  0.00     0.186 C 
BRANCH  23  24
HETATM   24  C           1     -21.954 -11.557   0.416  0.00  0.00     0.196 C 
HETATM   25  O           1     -21.745 -12.742   0.755  0.00  0.00    -0.646 OA
HETATM   26  O           1     -23.125 -11.146   0.270  0.00  0.00    -0.646 OA
ENDBRANCH  23  24
BRANCH  23  27
HETATM   27  C           1     -21.092  -9.271   0.817  0.00  0.00     0.045 C 
BRANCH  27  28
HETATM   28  C           1     -21.136  -8.201  -0.266  0.00  0.00     0.105 C 
BRANCH  28  29
HETATM   29  C           1     -22.496  -7.546  -0.273  0.00  0.00     0.215 C 
HETATM   30  N           1     -23.489  -8.025   0.538  0.00  0.00    -0.370 N 
HETATM   31  H           1     -24.402  -7.587   0.533  0.00  0.00     0.159 HD
HETATM   32  H           1     -23.312  -8.817   1.142  0.00  0.00     0.159 HD
HETATM   33  O           1     -22.707  -6.601  -0.995  0.00  0.00    -0.274 OA
ENDBRANCH  28  29
ENDBRANCH  27  28
ENDBRANCH  23  27
ENDBRANCH  21  23
ENDBRANCH   1  19
TORSDOF 12
ENDMDL
