MODEL 1
REMARK VINA RESULT:      -6.0      0.000      0.000
REMARK  8 active torsions:
REMARK  status: ('A' for Active; 'I' for Inactive)
REMARK    1  A    between atoms: N_3  and  C_14 
REMARK    2  A    between atoms: C_7  and  C_8 
REMARK    3  A    between atoms: C_8  and  C_21 
REMARK    4  A    between atoms: N_11  and  C_21 
REMARK       I    between atoms: N_11  and  C_12 
REMARK    5  A    between atoms: C_12  and  C_14 
REMARK    6  A    between atoms: C_14  and  C_15 
REMARK    7  A    between atoms: C_15  and  O_16 
REMARK    8  A    between atoms: C_19  and  C_21 
ROOT
HETATM    1  O           1     -33.479  -2.163 -11.141  0.00  0.00    -0.271 OA
HETATM    2  N           1     -35.135  -1.818 -12.599  0.00  0.00    -0.344 N 
HETATM    3  C           1     -34.172  -2.605 -12.025  0.00  0.00     0.251 C 
HETATM    4  H           1     -35.717  -2.187 -13.340  0.00  0.00     0.163 HD
ENDROOT
BRANCH   3   5
HETATM    5  C           1     -33.979  -4.024 -12.499  0.00  0.00     0.302 C 
BRANCH   5   6
HETATM    6  N           1     -32.555  -4.437 -12.274  0.00  0.00    -0.064 N 
HETATM    7  H           1     -32.529  -5.409 -11.892  0.00  0.00     0.275 HD
HETATM    8  H           1     -32.038  -4.406 -13.182  0.00  0.00     0.275 HD
HETATM    9  H           1     -32.106  -3.783 -11.594  0.00  0.00     0.275 HD
ENDBRANCH   5   6
BRANCH   5  10
HETATM   10  C           1     -34.903  -4.950 -11.718  0.00  0.00     0.153 C 
HETATM   11  C           1     -34.079  -5.797 -10.758  0.00  0.00     0.042 C 
BRANCH  10  12
HETATM   12  O           1     -35.828  -4.186 -10.993  0.00  0.00    -0.393 OA
HETATM   13  H           1     -36.368  -4.793 -10.514  0.00  0.00     0.210 HD
ENDBRANCH  10  12
ENDBRANCH   5  10
ENDBRANCH   3   5
BRANCH   2  14
HETATM   14  C           1     -35.321  -0.453 -12.144  0.00  0.00     0.189 C 
BRANCH  14  15
HETATM   15  C           1     -35.754   0.417 -13.316  0.00  0.00     0.014 C 
HETATM   16  C           1     -34.535   1.114 -13.907  0.00  0.00     0.012 C 
BRANCH  15  17
HETATM   17  C           1     -36.408  -0.454 -14.381  0.00  0.00     0.002 C 
HETATM   18  C           1     -35.858  -0.080 -15.751  0.00  0.00     0.005 C 
ENDBRANCH  15  17
ENDBRANCH  14  15
BRANCH  14  19
HETATM   19  C           1     -36.385  -0.421 -11.074  0.00  0.00     0.197 C 
HETATM   20  O           1     -37.217  -1.350 -10.993  0.00  0.00    -0.646 OA
HETATM   21  O           1     -36.434   0.534 -10.269  0.00  0.00    -0.646 OA
ENDBRANCH  14  19
ENDBRANCH   2  14
TORSDOF 8
ENDMDL
MODEL 2
REMARK VINA RESULT:      -5.6      2.259      4.998
REMARK  8 active torsions:
REMARK  status: ('A' for Active; 'I' for Inactive)
REMARK    1  A    between atoms: N_3  and  C_14 
REMARK    2  A    between atoms: C_7  and  C_8 
REMARK    3  A    between atoms: C_8  and  C_21 
REMARK    4  A    between atoms: N_11  and  C_21 
REMARK       I    between atoms: N_11  and  C_12 
REMARK    5  A    between atoms: C_12  and  C_14 
REMARK    6  A    between atoms: C_14  and  C_15 
REMARK    7  A    between atoms: C_15  and  O_16 
REMARK    8  A    between atoms: C_19  and  C_21 
ROOT
HETATM    1  O           1     -37.351  -0.940 -13.530  0.00  0.00    -0.271 OA
HETATM    2  N           1     -35.479  -0.791 -12.322  0.00  0.00    -0.344 N 
HETATM    3  C           1     -36.196  -0.592 -13.471  0.00  0.00     0.251 C 
HETATM    4  H           1     -34.511  -0.500 -12.271  0.00  0.00     0.163 HD
ENDROOT
BRANCH   3   5
HETATM    5  C           1     -35.542   0.062 -14.663  0.00  0.00     0.302 C 
BRANCH   5   6
HETATM    6  N           1     -34.972  -0.994 -15.562  0.00  0.00    -0.064 N 
HETATM    7  H           1     -34.762  -1.853 -15.004  0.00  0.00     0.275 HD
HETATM    8  H           1     -35.666  -1.226 -16.309  0.00  0.00     0.275 HD
HETATM    9  H           1     -34.092  -0.641 -16.001  0.00  0.00     0.275 HD
ENDBRANCH   5   6
BRANCH   5  10
HETATM   10  C           1     -36.579   0.873 -15.430  0.00  0.00     0.153 C 
HETATM   11  C           1     -35.921   2.115 -16.015  0.00  0.00     0.042 C 
BRANCH  10  12
HETATM   12  O           1     -37.109   0.093 -16.467  0.00  0.00    -0.393 OA
HETATM   13  H           1     -37.627   0.668 -17.006  0.00  0.00     0.210 HD
ENDBRANCH  10  12
ENDBRANCH   5  10
ENDBRANCH   3   5
BRANCH   2  14
HETATM   14  C           1     -36.108  -1.420 -11.175  0.00  0.00     0.189 C 
BRANCH  14  15
HETATM   15  C           1     -35.131  -2.397 -10.535  0.00  0.00     0.014 C 
HETATM   16  C           1     -35.523  -3.821 -10.903  0.00  0.00     0.012 C 
BRANCH  15  17
HETATM   17  C           1     -33.722  -2.110 -11.039  0.00  0.00     0.002 C 
HETATM   18  C           1     -33.054  -3.416 -11.449  0.00  0.00     0.005 C 
ENDBRANCH  15  17
ENDBRANCH  14  15
BRANCH  14  19
HETATM   19  C           1     -36.494  -0.362 -10.171  0.00  0.00     0.197 C 
HETATM   20  O           1     -35.959  -0.348  -9.042  0.00  0.00    -0.646 OA
HETATM   21  O           1     -37.349   0.500 -10.468  0.00  0.00    -0.646 OA
ENDBRANCH  14  19
ENDBRANCH   2  14
TORSDOF 8
ENDMDL
MODEL 3
REMARK VINA RESULT:      -5.6     10.215     11.928
REMARK  8 active torsions:
REMARK  status: ('A' for Active; 'I' for Inactive)
REMARK    1  A    between atoms: N_3  and  C_14 
REMARK    2  A    between atoms: C_7  and  C_8 
REMARK    3  A    between atoms: C_8  and  C_21 
REMARK    4  A    between atoms: N_11  and  C_21 
REMARK       I    between atoms: N_11  and  C_12 
REMARK    5  A    between atoms: C_12  and  C_14 
REMARK    6  A    between atoms: C_14  and  C_15 
REMARK    7  A    between atoms: C_15  and  O_16 
REMARK    8  A    between atoms: C_19  and  C_21 
ROOT
HETATM    1  O           1     -24.677  -6.363 -18.265  0.00  0.00    -0.271 OA
HETATM    2  N           1     -26.885  -6.689 -18.187  0.00  0.00    -0.344 N 
HETATM    3  C           1     -25.664  -6.820 -18.791  0.00  0.00     0.251 C 
HETATM    4  H           1     -27.713  -7.071 -18.627  0.00  0.00     0.163 HD
ENDROOT
BRANCH   3   5
HETATM    5  C           1     -25.551  -7.537 -20.114  0.00  0.00     0.302 C 
BRANCH   5   6
HETATM    6  N           1     -26.918  -7.708 -20.708  0.00  0.00    -0.064 N 
HETATM    7  H           1     -26.832  -7.922 -21.727  0.00  0.00     0.275 HD
HETATM    8  H           1     -27.408  -8.496 -20.227  0.00  0.00     0.275 HD
HETATM    9  H           1     -27.466  -6.828 -20.582  0.00  0.00     0.275 HD
ENDBRANCH   5   6
BRANCH   5  10
HETATM   10  C           1     -24.686  -6.717 -21.064  0.00  0.00     0.153 C 
HETATM   11  C           1     -24.375  -7.541 -22.306  0.00  0.00     0.042 C 
BRANCH  10  12
HETATM   12  O           1     -25.374  -5.553 -21.435  0.00  0.00    -0.393 OA
HETATM   13  H           1     -25.086  -5.331 -22.305  0.00  0.00     0.210 HD
ENDBRANCH  10  12
ENDBRANCH   5  10
ENDBRANCH   3   5
BRANCH   2  14
HETATM   14  C           1     -26.995  -6.000 -16.915  0.00  0.00     0.189 C 
BRANCH  14  15
HETATM   15  C           1     -28.363  -5.339 -16.812  0.00  0.00     0.014 C 
HETATM   16  C           1     -28.198  -3.826 -16.843  0.00  0.00     0.012 C 
BRANCH  15  17
HETATM   17  C           1     -29.229  -5.781 -17.985  0.00  0.00     0.002 C 
HETATM   18  C           1     -30.431  -6.557 -17.465  0.00  0.00     0.005 C 
ENDBRANCH  15  17
ENDBRANCH  14  15
BRANCH  14  19
HETATM   19  C           1     -26.829  -6.992 -15.790  0.00  0.00     0.197 C 
HETATM   20  O           1     -25.685  -7.357 -15.444  0.00  0.00    -0.646 OA
HETATM   21  O           1     -27.835  -7.450 -15.206  0.00  0.00    -0.646 OA
ENDBRANCH  14  19
ENDBRANCH   2  14
TORSDOF 8
ENDMDL
MODEL 4
REMARK VINA RESULT:      -5.1      1.636      4.999
REMARK  8 active torsions:
REMARK  status: ('A' for Active; 'I' for Inactive)
REMARK    1  A    between atoms: N_3  and  C_14 
REMARK    2  A    between atoms: C_7  and  C_8 
REMARK    3  A    between atoms: C_8  and  C_21 
REMARK    4  A    between atoms: N_11  and  C_21 
REMARK       I    between atoms: N_11  and  C_12 
REMARK    5  A    between atoms: C_12  and  C_14 
REMARK    6  A    between atoms: C_14  and  C_15 
REMARK    7  A    between atoms: C_15  and  O_16 
REMARK    8  A    between atoms: C_19  and  C_21 
ROOT
HETATM    1  O           1     -35.998   0.034 -11.392  0.00  0.00    -0.271 OA
HETATM    2  N           1     -35.114  -1.700 -12.487  0.00  0.00    -0.344 N 
HETATM    3  C           1     -35.623  -0.430 -12.442  0.00  0.00     0.251 C 
HETATM    4  H           1     -34.799  -2.089 -13.367  0.00  0.00     0.163 HD
ENDROOT
BRANCH   3   5
HETATM    5  C           1     -35.714   0.390 -13.705  0.00  0.00     0.302 C 
BRANCH   5   6
HETATM    6  N           1     -34.623  -0.022 -14.649  0.00  0.00    -0.064 N 
HETATM    7  H           1     -34.819  -0.982 -15.012  0.00  0.00     0.275 HD
HETATM    8  H           1     -34.583   0.651 -15.448  0.00  0.00     0.275 HD
HETATM    9  H           1     -33.708  -0.020 -14.145  0.00  0.00     0.275 HD
ENDBRANCH   5   6
BRANCH   5  10
HETATM   10  C           1     -37.067   0.157 -14.365  0.00  0.00     0.153 C 
HETATM   11  C           1     -36.858  -0.334 -15.792  0.00  0.00     0.042 C 
BRANCH  10  12
HETATM   12  O           1     -37.782  -0.805 -13.640  0.00  0.00    -0.393 OA
HETATM   13  H           1     -38.208  -1.363 -14.270  0.00  0.00     0.210 HD
ENDBRANCH  10  12
ENDBRANCH   5  10
ENDBRANCH   3   5
BRANCH   2  14
HETATM   14  C           1     -35.026  -2.489 -11.273  0.00  0.00     0.189 C 
BRANCH  14  15
HETATM   15  C           1     -34.929  -3.965 -11.634  0.00  0.00     0.014 C 
HETATM   16  C           1     -34.323  -4.108 -13.024  0.00  0.00     0.012 C 
BRANCH  15  17
HETATM   17  C           1     -34.046  -4.679 -10.618  0.00  0.00     0.002 C 
HETATM   18  C           1     -34.481  -6.134 -10.501  0.00  0.00     0.005 C 
ENDBRANCH  15  17
ENDBRANCH  14  15
BRANCH  14  19
HETATM   19  C           1     -33.800  -2.079 -10.495  0.00  0.00     0.197 C 
HETATM   20  O           1     -33.922  -1.575  -9.358  0.00  0.00    -0.646 OA
HETATM   21  O           1     -32.663  -2.242 -10.988  0.00  0.00    -0.646 OA
ENDBRANCH  14  19
ENDBRANCH   2  14
TORSDOF 8
ENDMDL
MODEL 5
REMARK VINA RESULT:      -5.0      9.612     11.088
REMARK  8 active torsions:
REMARK  status: ('A' for Active; 'I' for Inactive)
REMARK    1  A    between atoms: N_3  and  C_14 
REMARK    2  A    between atoms: C_7  and  C_8 
REMARK    3  A    between atoms: C_8  and  C_21 
REMARK    4  A    between atoms: N_11  and  C_21 
REMARK       I    between atoms: N_11  and  C_12 
REMARK    5  A    between atoms: C_12  and  C_14 
REMARK    6  A    between atoms: C_14  and  C_15 
REMARK    7  A    between atoms: C_15  and  O_16 
REMARK    8  A    between atoms: C_19  and  C_21 
ROOT
HETATM    1  O           1     -25.976  -7.006 -16.987  0.00  0.00    -0.271 OA
HETATM    2  N           1     -27.610  -6.340 -18.357  0.00  0.00    -0.344 N 
HETATM    3  C           1     -26.304  -6.655 -18.096  0.00  0.00     0.251 C 
HETATM    4  H           1     -27.885  -6.045 -19.285  0.00  0.00     0.163 HD
ENDROOT
BRANCH   3   5
HETATM    5  C           1     -25.273  -6.563 -19.194  0.00  0.00     0.302 C 
BRANCH   5   6
HETATM    6  N           1     -24.163  -7.534 -18.921  0.00  0.00    -0.064 N 
HETATM    7  H           1     -24.566  -8.467 -18.679  0.00  0.00     0.275 HD
HETATM    8  H           1     -23.563  -7.623 -19.772  0.00  0.00     0.275 HD
HETATM    9  H           1     -23.585  -7.187 -18.123  0.00  0.00     0.275 HD
ENDBRANCH   5   6
BRANCH   5  10
HETATM   10  C           1     -25.923  -6.902 -20.530  0.00  0.00     0.153 C 
HETATM   11  C           1     -24.855  -7.371 -21.509  0.00  0.00     0.042 C 
BRANCH  10  12
HETATM   12  O           1     -26.868  -7.920 -20.345  0.00  0.00    -0.393 OA
HETATM   13  H           1     -27.130  -8.210 -21.204  0.00  0.00     0.210 HD
ENDBRANCH  10  12
ENDBRANCH   5  10
ENDBRANCH   3   5
BRANCH   2  14
HETATM   14  C           1     -28.602  -6.428 -17.301  0.00  0.00     0.189 C 
BRANCH  14  15
HETATM   15  C           1     -29.105  -5.032 -16.960  0.00  0.00     0.014 C 
HETATM   16  C           1     -27.946  -4.186 -16.451  0.00  0.00     0.012 C 
BRANCH  15  17
HETATM   17  C           1     -29.695  -4.387 -18.208  0.00  0.00     0.002 C 
HETATM   18  C           1     -30.906  -3.548 -17.821  0.00  0.00     0.005 C 
ENDBRANCH  15  17
ENDBRANCH  14  15
BRANCH  14  19
HETATM   19  C           1     -29.757  -7.281 -17.767  0.00  0.00     0.197 C 
HETATM   20  O           1     -30.875  -7.169 -17.220  0.00  0.00    -0.646 OA
HETATM   21  O           1     -29.595  -8.098 -18.698  0.00  0.00    -0.646 OA
ENDBRANCH  14  19
ENDBRANCH   2  14
TORSDOF 8
ENDMDL
MODEL 6
REMARK VINA RESULT:      -5.0     14.262     16.988
REMARK  8 active torsions:
REMARK  status: ('A' for Active; 'I' for Inactive)
REMARK    1  A    between atoms: N_3  and  C_14 
REMARK    2  A    between atoms: C_7  and  C_8 
REMARK    3  A    between atoms: C_8  and  C_21 
REMARK    4  A    between atoms: N_11  and  C_21 
REMARK       I    between atoms: N_11  and  C_12 
REMARK    5  A    between atoms: C_12  and  C_14 
REMARK    6  A    between atoms: C_14  and  C_15 
REMARK    7  A    between atoms: C_15  and  O_16 
REMARK    8  A    between atoms: C_19  and  C_21 
ROOT
HETATM    1  O           1     -19.874  -5.008  -6.094  0.00  0.00    -0.271 OA
HETATM    2  N           1     -21.501  -6.451  -5.588  0.00  0.00    -0.344 N 
HETATM    3  C           1     -21.022  -5.350  -6.245  0.00  0.00     0.251 C 
HETATM    4  H           1     -22.463  -6.739  -5.715  0.00  0.00     0.163 HD
ENDROOT
BRANCH   3   5
HETATM    5  C           1     -21.930  -4.563  -7.158  0.00  0.00     0.302 C 
BRANCH   5   6
HETATM    6  N           1     -21.617  -3.101  -7.038  0.00  0.00    -0.064 N 
HETATM    7  H           1     -22.406  -2.541  -7.431  0.00  0.00     0.275 HD
HETATM    8  H           1     -21.486  -2.857  -6.030  0.00  0.00     0.275 HD
HETATM    9  H           1     -20.741  -2.888  -7.565  0.00  0.00     0.275 HD
ENDBRANCH   5   6
BRANCH   5  10
HETATM   10  C           1     -21.712  -5.010  -8.599  0.00  0.00     0.153 C 
HETATM   11  C           1     -22.639  -4.226  -9.518  0.00  0.00     0.042 C 
BRANCH  10  12
HETATM   12  O           1     -20.381  -4.773  -8.966  0.00  0.00    -0.393 OA
HETATM   13  H           1     -20.147  -5.438  -9.592  0.00  0.00     0.210 HD
ENDBRANCH  10  12
ENDBRANCH   5  10
ENDBRANCH   3   5
BRANCH   2  14
HETATM   14  C           1     -20.628  -7.208  -4.710  0.00  0.00     0.189 C 
BRANCH  14  15
HETATM   15  C           1     -21.368  -7.534  -3.420  0.00  0.00     0.014 C 
HETATM   16  C           1     -20.427  -8.259  -2.467  0.00  0.00     0.012 C 
BRANCH  15  17
HETATM   17  C           1     -21.853  -6.244  -2.773  0.00  0.00     0.002 C 
HETATM   18  C           1     -22.265  -6.521  -1.333  0.00  0.00     0.005 C 
ENDBRANCH  15  17
ENDBRANCH  14  15
BRANCH  14  19
HETATM   19  C           1     -20.217  -8.489  -5.393  0.00  0.00     0.197 C 
HETATM   20  O           1     -19.012  -8.701  -5.650  0.00  0.00    -0.646 OA
HETATM   21  O           1     -21.081  -9.338  -5.703  0.00  0.00    -0.646 OA
ENDBRANCH  14  19
ENDBRANCH   2  14
TORSDOF 8
ENDMDL
MODEL 7
REMARK VINA RESULT:      -4.8     17.048     19.043
REMARK  8 active torsions:
REMARK  status: ('A' for Active; 'I' for Inactive)
REMARK    1  A    between atoms: N_3  and  C_14 
REMARK    2  A    between atoms: C_7  and  C_8 
REMARK    3  A    between atoms: C_8  and  C_21 
REMARK    4  A    between atoms: N_11  and  C_21 
REMARK       I    between atoms: N_11  and  C_12 
REMARK    5  A    between atoms: C_12  and  C_14 
REMARK    6  A    between atoms: C_14  and  C_15 
REMARK    7  A    between atoms: C_15  and  O_16 
REMARK    8  A    between atoms: C_19  and  C_21 
ROOT
HETATM    1  O           1     -20.871  -6.984  -2.257  0.00  0.00    -0.271 OA
HETATM    2  N           1     -21.622  -9.087  -2.220  0.00  0.00    -0.344 N 
HETATM    3  C           1     -21.404  -7.891  -2.850  0.00  0.00     0.251 C 
HETATM    4  H           1     -22.069  -9.848  -2.716  0.00  0.00     0.163 HD
ENDROOT
BRANCH   3   5
HETATM    5  C           1     -21.832  -7.707  -4.285  0.00  0.00     0.302 C 
BRANCH   5   6
HETATM    6  N           1     -22.342  -6.309  -4.479  0.00  0.00    -0.064 N 
HETATM    7  H           1     -23.050  -6.091  -3.743  0.00  0.00     0.275 HD
HETATM    8  H           1     -21.545  -5.637  -4.406  0.00  0.00     0.275 HD
HETATM    9  H           1     -22.783  -6.227  -5.423  0.00  0.00     0.275 HD
ENDBRANCH   5   6
BRANCH   5  10
HETATM   10  C           1     -20.640  -7.943  -5.205  0.00  0.00     0.153 C 
HETATM   11  C           1     -20.249  -6.632  -5.874  0.00  0.00     0.042 C 
BRANCH  10  12
HETATM   12  O           1     -19.559  -8.426  -4.455  0.00  0.00    -0.393 OA
HETATM   13  H           1     -19.764  -9.317  -4.222  0.00  0.00     0.210 HD
ENDBRANCH  10  12
ENDBRANCH   5  10
ENDBRANCH   3   5
BRANCH   2  14
HETATM   14  C           1     -21.210  -9.265  -0.840  0.00  0.00     0.189 C 
BRANCH  14  15
HETATM   15  C           1     -22.434  -9.548   0.020  0.00  0.00     0.014 C 
HETATM   16  C           1     -23.102  -8.233   0.399  0.00  0.00     0.012 C 
BRANCH  15  17
HETATM   17  C           1     -23.416 -10.411  -0.762  0.00  0.00     0.002 C 
HETATM   18  C           1     -23.762 -11.651   0.051  0.00  0.00     0.005 C 
ENDBRANCH  15  17
ENDBRANCH  14  15
BRANCH  14  19
HETATM   19  C           1     -20.250 -10.426  -0.748  0.00  0.00     0.197 C 
HETATM   20  O           1     -19.604 -10.783  -1.756  0.00  0.00    -0.646 OA
HETATM   21  O           1     -20.102 -11.030   0.336  0.00  0.00    -0.646 OA
ENDBRANCH  14  19
ENDBRANCH   2  14
TORSDOF 8
ENDMDL
MODEL 8
REMARK VINA RESULT:      -4.7      2.428      4.945
REMARK  8 active torsions:
REMARK  status: ('A' for Active; 'I' for Inactive)
REMARK    1  A    between atoms: N_3  and  C_14 
REMARK    2  A    between atoms: C_7  and  C_8 
REMARK    3  A    between atoms: C_8  and  C_21 
REMARK    4  A    between atoms: N_11  and  C_21 
REMARK       I    between atoms: N_11  and  C_12 
REMARK    5  A    between atoms: C_12  and  C_14 
REMARK    6  A    between atoms: C_14  and  C_15 
REMARK    7  A    between atoms: C_15  and  O_16 
REMARK    8  A    between atoms: C_19  and  C_21 
ROOT
HETATM    1  O           1     -34.569   1.160 -13.726  0.00  0.00    -0.271 OA
HETATM    2  N           1     -35.912  -0.509 -13.094  0.00  0.00    -0.344 N 
HETATM    3  C           1     -35.356   0.302 -14.046  0.00  0.00     0.251 C 
HETATM    4  H           1     -36.572  -1.228 -13.361  0.00  0.00     0.163 HD
ENDROOT
BRANCH   3   5
HETATM    5  C           1     -35.729   0.123 -15.498  0.00  0.00     0.302 C 
BRANCH   5   6
HETATM    6  N           1     -34.863  -0.940 -16.108  0.00  0.00    -0.064 N 
HETATM    7  H           1     -34.087  -0.492 -16.646  0.00  0.00     0.275 HD
HETATM    8  H           1     -34.461  -1.537 -15.351  0.00  0.00     0.275 HD
HETATM    9  H           1     -35.437  -1.530 -16.751  0.00  0.00     0.275 HD
ENDBRANCH   5   6
BRANCH   5  10
HETATM   10  C           1     -37.190  -0.296 -15.599  0.00  0.00     0.153 C 
HETATM   11  C           1     -38.069   0.945 -15.671  0.00  0.00     0.042 C 
BRANCH  10  12
HETATM   12  O           1     -37.376  -1.069 -16.754  0.00  0.00    -0.393 OA
HETATM   13  H           1     -38.165  -1.569 -16.625  0.00  0.00     0.210 HD
ENDBRANCH  10  12
ENDBRANCH   5  10
ENDBRANCH   3   5
BRANCH   2  14
HETATM   14  C           1     -35.555  -0.337 -11.698  0.00  0.00     0.189 C 
BRANCH  14  15
HETATM   15  C           1     -36.759   0.188 -10.928  0.00  0.00     0.014 C 
HETATM   16  C           1     -38.037  -0.197 -11.662  0.00  0.00     0.012 C 
BRANCH  15  17
HETATM   17  C           1     -36.772  -0.419  -9.531  0.00  0.00     0.002 C 
HETATM   18  C           1     -37.769   0.333  -8.659  0.00  0.00     0.005 C 
ENDBRANCH  15  17
ENDBRANCH  14  15
BRANCH  14  19
HETATM   19  C           1     -35.128  -1.665 -11.121  0.00  0.00     0.197 C 
HETATM   20  O           1     -35.784  -2.697 -11.378  0.00  0.00    -0.646 OA
HETATM   21  O           1     -34.118  -1.732 -10.387  0.00  0.00    -0.646 OA
ENDBRANCH  14  19
ENDBRANCH   2  14
TORSDOF 8
ENDMDL
MODEL 9
REMARK VINA RESULT:      -4.5     17.948     19.148
REMARK  8 active torsions:
REMARK  status: ('A' for Active; 'I' for Inactive)
REMARK    1  A    between atoms: N_3  and  C_14 
REMARK    2  A    between atoms: C_7  and  C_8 
REMARK    3  A    between atoms: C_8  and  C_21 
REMARK    4  A    between atoms: N_11  and  C_21 
REMARK       I    between atoms: N_11  and  C_12 
REMARK    5  A    between atoms: C_12  and  C_14 
REMARK    6  A    between atoms: C_14  and  C_15 
REMARK    7  A    between atoms: C_15  and  O_16 
REMARK    8  A    between atoms: C_19  and  C_21 
ROOT
HETATM    1  O           1     -22.836 -10.792  -3.328  0.00  0.00    -0.271 OA
HETATM    2  N           1     -21.539 -10.165  -1.621  0.00  0.00    -0.344 N 
HETATM    3  C           1     -22.311 -11.084  -2.280  0.00  0.00     0.251 C 
HETATM    4  H           1     -21.099 -10.408  -0.743  0.00  0.00     0.163 HD
ENDROOT
BRANCH   3   5
HETATM    5  C           1     -22.506 -12.461  -1.695  0.00  0.00     0.302 C 
BRANCH   5   6
HETATM    6  N           1     -21.252 -12.887  -0.991  0.00  0.00    -0.064 N 
HETATM    7  H           1     -20.524 -12.145  -1.093  0.00  0.00     0.275 HD
HETATM    8  H           1     -21.457 -13.035   0.023  0.00  0.00     0.275 HD
HETATM    9  H           1     -20.903 -13.778  -1.409  0.00  0.00     0.275 HD
ENDBRANCH   5   6
BRANCH   5  10
HETATM   10  C           1     -23.659 -12.431  -0.699  0.00  0.00     0.153 C 
HETATM   11  C           1     -23.129 -12.711   0.700  0.00  0.00     0.042 C 
BRANCH  10  12
HETATM   12  O           1     -24.267 -11.168  -0.725  0.00  0.00    -0.393 OA
HETATM   13  H           1     -25.148 -11.294  -1.036  0.00  0.00     0.210 HD
ENDBRANCH  10  12
ENDBRANCH   5  10
ENDBRANCH   3   5
BRANCH   2  14
HETATM   14  C           1     -21.351  -8.841  -2.183  0.00  0.00     0.189 C 
BRANCH  14  15
HETATM   15  C           1     -21.322  -7.813  -1.060  0.00  0.00     0.014 C 
HETATM   16  C           1     -22.264  -6.666  -1.399  0.00  0.00     0.012 C 
BRANCH  15  17
HETATM   17  C           1     -21.767  -8.470   0.240  0.00  0.00     0.002 C 
HETATM   18  C           1     -23.174  -8.004   0.589  0.00  0.00     0.005 C 
ENDBRANCH  15  17
ENDBRANCH  14  15
BRANCH  14  19
HETATM   19  C           1     -20.045  -8.797  -2.940  0.00  0.00     0.197 C 
HETATM   20  O           1     -20.002  -8.291  -4.082  0.00  0.00    -0.646 OA
HETATM   21  O           1     -19.008  -9.267  -2.425  0.00  0.00    -0.646 OA
ENDBRANCH  14  19
ENDBRANCH   2  14
TORSDOF 8
ENDMDL
