MODEL 1
REMARK VINA RESULT:      -6.7      0.000      0.000
REMARK  9 active torsions:
REMARK  status: ('A' for Active; 'I' for Inactive)
REMARK    1  A    between atoms: C_1  and  C_2 
REMARK    2  A    between atoms: C_1  and  C_9 
REMARK    3  A    between atoms: C_2  and  C_3 
REMARK       I    between atoms: C_3  and  N_5 
REMARK    4  A    between atoms: C_7  and  C_20 
REMARK    5  A    between atoms: C_9  and  C_19 
REMARK    6  A    between atoms: C_9  and  N_16 
REMARK    7  A    between atoms: C_14  and  C_15 
REMARK    8  A    between atoms: C_14  and  C_20 
REMARK    9  A    between atoms: C_14  and  N_24 
REMARK       I    between atoms: C_15  and  N_16 
ROOT
HETATM    1  O           1     -26.273  -5.929 -17.187  0.00  0.00    -0.271 OA
HETATM    2  H           1     -27.565  -7.076 -19.806  0.00  0.00     0.163 HD
HETATM    3  C           1     -26.318  -6.396 -18.301  0.00  0.00     0.249 C 
HETATM    4  N           1     -27.528  -6.686 -18.874  0.00  0.00    -0.345 N 
ENDROOT
BRANCH   4   5
HETATM    5  C           1     -28.754  -6.431 -18.144  0.00  0.00     0.186 C 
BRANCH   5   6
HETATM    6  C           1     -29.333  -5.091 -18.578  0.00  0.00     0.045 C 
BRANCH   6   7
HETATM    7  C           1     -29.611  -4.235 -17.349  0.00  0.00     0.105 C 
BRANCH   7   8
HETATM    8  C           1     -31.099  -4.037 -17.199  0.00  0.00     0.215 C 
HETATM    9  O           1     -31.623  -3.041 -17.638  0.00  0.00    -0.274 OA
HETATM   10  N           1     -31.856  -4.986 -16.566  0.00  0.00    -0.370 N 
HETATM   11  H           1     -31.417  -5.820 -16.198  0.00  0.00     0.159 HD
HETATM   12  H           1     -32.854  -4.853 -16.465  0.00  0.00     0.159 HD
ENDBRANCH   7   8
ENDBRANCH   6   7
ENDBRANCH   5   6
BRANCH   5  13
HETATM   13  C           1     -29.750  -7.527 -18.437  0.00  0.00     0.196 C 
HETATM   14  O           1     -30.883  -7.500 -17.909  0.00  0.00    -0.646 OA
HETATM   15  O           1     -29.440  -8.463 -19.206  0.00  0.00    -0.646 OA
ENDBRANCH   5  13
ENDBRANCH   4   5
BRANCH   3  16
HETATM   16  C           1     -25.041  -6.660 -19.060  0.00  0.00     0.278 C 
BRANCH  16  17
HETATM   17  C           1     -25.373  -7.192 -20.447  0.00  0.00     0.021 C 
HETATM   18  C           1     -25.436  -6.033 -21.434  0.00  0.00     0.012 C 
BRANCH  17  19
HETATM   19  C           1     -24.292  -8.172 -20.886  0.00  0.00     0.002 C 
HETATM   20  C           1     -23.921  -7.903 -22.338  0.00  0.00     0.005 C 
ENDBRANCH  17  19
ENDBRANCH  16  17
BRANCH  16  21
HETATM   21  N           1     -24.221  -7.675 -18.320  0.00  0.00    -0.066 N 
HETATM   22  H           1     -23.719  -8.283 -19.006  0.00  0.00     0.275 HD
HETATM   23  H           1     -23.526  -7.188 -17.712  0.00  0.00     0.275 HD
HETATM   24  H           1     -24.850  -8.264 -17.727  0.00  0.00     0.275 HD
ENDBRANCH  16  21
ENDBRANCH   3  16
TORSDOF 9
ENDMDL
MODEL 2
REMARK VINA RESULT:      -6.2      9.482     11.876
REMARK  9 active torsions:
REMARK  status: ('A' for Active; 'I' for Inactive)
REMARK    1  A    between atoms: C_1  and  C_2 
REMARK    2  A    between atoms: C_1  and  C_9 
REMARK    3  A    between atoms: C_2  and  C_3 
REMARK       I    between atoms: C_3  and  N_5 
REMARK    4  A    between atoms: C_7  and  C_20 
REMARK    5  A    between atoms: C_9  and  C_19 
REMARK    6  A    between atoms: C_9  and  N_16 
REMARK    7  A    between atoms: C_14  and  C_15 
REMARK    8  A    between atoms: C_14  and  C_20 
REMARK    9  A    between atoms: C_14  and  N_24 
REMARK       I    between atoms: C_15  and  N_16 
ROOT
HETATM    1  O           1     -34.350  -1.458 -10.221  0.00  0.00    -0.271 OA
HETATM    2  H           1     -35.998  -3.367 -12.087  0.00  0.00     0.163 HD
HETATM    3  C           1     -35.240  -1.804 -10.962  0.00  0.00     0.249 C 
HETATM    4  N           1     -35.253  -3.077 -11.467  0.00  0.00    -0.345 N 
ENDROOT
BRANCH   4   5
HETATM    5  C           1     -34.201  -4.009 -11.111  0.00  0.00     0.186 C 
BRANCH   5   6
HETATM    6  C           1     -34.815  -5.363 -10.779  0.00  0.00     0.045 C 
BRANCH   6   7
HETATM    7  C           1     -33.728  -6.430 -10.793  0.00  0.00     0.105 C 
BRANCH   7   8
HETATM    8  C           1     -34.277  -7.715 -10.224  0.00  0.00     0.215 C 
HETATM    9  O           1     -35.379  -7.734  -9.729  0.00  0.00    -0.274 OA
HETATM   10  N           1     -33.528  -8.859 -10.268  0.00  0.00    -0.370 N 
HETATM   11  H           1     -32.605  -8.843 -10.683  0.00  0.00     0.159 HD
HETATM   12  H           1     -33.896  -9.721  -9.887  0.00  0.00     0.159 HD
ENDBRANCH   7   8
ENDBRANCH   6   7
ENDBRANCH   5   6
BRANCH   5  13
HETATM   13  C           1     -33.249  -4.159 -12.273  0.00  0.00     0.196 C 
HETATM   14  O           1     -33.649  -3.950 -13.440  0.00  0.00    -0.646 OA
HETATM   15  O           1     -32.062  -4.493 -12.069  0.00  0.00    -0.646 OA
ENDBRANCH   5  13
ENDBRANCH   4   5
BRANCH   3  16
HETATM   16  C           1     -36.334  -0.834 -11.331  0.00  0.00     0.278 C 
BRANCH  16  17
HETATM   17  C           1     -36.239  -0.497 -12.813  0.00  0.00     0.021 C 
HETATM   18  C           1     -37.604  -0.050 -13.322  0.00  0.00     0.012 C 
BRANCH  17  19
HETATM   19  C           1     -35.230   0.627 -13.013  0.00  0.00     0.002 C 
HETATM   20  C           1     -34.923   0.776 -14.497  0.00  0.00     0.005 C 
ENDBRANCH  17  19
ENDBRANCH  16  17
BRANCH  16  21
HETATM   21  N           1     -36.182   0.421 -10.524  0.00  0.00    -0.066 N 
HETATM   22  H           1     -36.564   0.265  -9.564  0.00  0.00     0.275 HD
HETATM   23  H           1     -35.171   0.674 -10.459  0.00  0.00     0.275 HD
HETATM   24  H           1     -36.706   1.198 -10.987  0.00  0.00     0.275 HD
ENDBRANCH  16  21
ENDBRANCH   3  16
TORSDOF 9
ENDMDL
MODEL 3
REMARK VINA RESULT:      -6.0     13.593     15.130
REMARK  9 active torsions:
REMARK  status: ('A' for Active; 'I' for Inactive)
REMARK    1  A    between atoms: C_1  and  C_2 
REMARK    2  A    between atoms: C_1  and  C_9 
REMARK    3  A    between atoms: C_2  and  C_3 
REMARK       I    between atoms: C_3  and  N_5 
REMARK    4  A    between atoms: C_7  and  C_20 
REMARK    5  A    between atoms: C_9  and  C_19 
REMARK    6  A    between atoms: C_9  and  N_16 
REMARK    7  A    between atoms: C_14  and  C_15 
REMARK    8  A    between atoms: C_14  and  C_20 
REMARK    9  A    between atoms: C_14  and  N_24 
REMARK       I    between atoms: C_15  and  N_16 
ROOT
HETATM    1  O           1     -21.058  -4.155  -6.158  0.00  0.00    -0.271 OA
HETATM    2  H           1     -21.962  -7.102  -6.743  0.00  0.00     0.163 HD
HETATM    3  C           1     -21.563  -5.072  -6.763  0.00  0.00     0.249 C 
HETATM    4  N           1     -21.539  -6.335  -6.236  0.00  0.00    -0.345 N 
ENDROOT
BRANCH   4   5
HETATM    5  C           1     -20.909  -6.573  -4.952  0.00  0.00     0.186 C 
BRANCH   5   6
HETATM    6  C           1     -21.979  -6.880  -3.913  0.00  0.00     0.045 C 
BRANCH   6   7
HETATM    7  C           1     -21.683  -6.104  -2.636  0.00  0.00     0.105 C 
BRANCH   7   8
HETATM    8  C           1     -21.835  -7.017  -1.444  0.00  0.00     0.215 C 
HETATM    9  O           1     -22.783  -6.892  -0.705  0.00  0.00    -0.274 OA
HETATM   10  N           1     -20.901  -7.986  -1.201  0.00  0.00    -0.370 N 
HETATM   11  H           1     -20.107  -8.091  -1.820  0.00  0.00     0.159 HD
HETATM   12  H           1     -21.003  -8.599  -0.401  0.00  0.00     0.159 HD
ENDBRANCH   7   8
ENDBRANCH   6   7
ENDBRANCH   5   6
BRANCH   5  13
HETATM   13  C           1     -19.966  -7.747  -5.065  0.00  0.00     0.196 C 
HETATM   14  O           1     -19.382  -7.978  -6.147  0.00  0.00    -0.646 OA
HETATM   15  O           1     -19.769  -8.487  -4.078  0.00  0.00    -0.646 OA
ENDBRANCH   5  13
ENDBRANCH   4   5
BRANCH   3  16
HETATM   16  C           1     -22.219  -4.823  -8.099  0.00  0.00     0.278 C 
BRANCH  16  17
HETATM   17  C           1     -21.294  -3.987  -8.973  0.00  0.00     0.021 C 
HETATM   18  C           1     -20.061  -4.804  -9.336  0.00  0.00     0.012 C 
BRANCH  17  19
HETATM   19  C           1     -22.028  -3.583 -10.245  0.00  0.00     0.002 C 
HETATM   20  C           1     -21.210  -4.004 -11.459  0.00  0.00     0.005 C 
ENDBRANCH  17  19
ENDBRANCH  16  17
BRANCH  16  21
HETATM   21  N           1     -23.510  -4.088  -7.892  0.00  0.00    -0.066 N 
HETATM   22  H           1     -24.171  -4.692  -7.354  0.00  0.00     0.275 HD
HETATM   23  H           1     -23.329  -3.208  -7.359  0.00  0.00     0.275 HD
HETATM   24  H           1     -23.928  -3.852  -8.821  0.00  0.00     0.275 HD
ENDBRANCH  16  21
ENDBRANCH   3  16
TORSDOF 9
ENDMDL
MODEL 4
REMARK VINA RESULT:      -5.8     13.542     15.253
REMARK  9 active torsions:
REMARK  status: ('A' for Active; 'I' for Inactive)
REMARK    1  A    between atoms: C_1  and  C_2 
REMARK    2  A    between atoms: C_1  and  C_9 
REMARK    3  A    between atoms: C_2  and  C_3 
REMARK       I    between atoms: C_3  and  N_5 
REMARK    4  A    between atoms: C_7  and  C_20 
REMARK    5  A    between atoms: C_9  and  C_19 
REMARK    6  A    between atoms: C_9  and  N_16 
REMARK    7  A    between atoms: C_14  and  C_15 
REMARK    8  A    between atoms: C_14  and  C_20 
REMARK    9  A    between atoms: C_14  and  N_24 
REMARK       I    between atoms: C_15  and  N_16 
ROOT
HETATM    1  O           1     -20.723  -7.893  -6.041  0.00  0.00    -0.271 OA
HETATM    2  H           1     -22.335  -5.361  -5.127  0.00  0.00     0.163 HD
HETATM    3  C           1     -21.419  -7.206  -5.332  0.00  0.00     0.249 C 
HETATM    4  N           1     -21.752  -5.936  -5.722  0.00  0.00    -0.345 N 
ENDROOT
BRANCH   4   5
HETATM    5  C           1     -21.270  -5.417  -6.987  0.00  0.00     0.186 C 
BRANCH   5   6
HETATM    6  C           1     -22.275  -4.415  -7.538  0.00  0.00     0.045 C 
BRANCH   6   7
HETATM    7  C           1     -22.195  -4.400  -9.059  0.00  0.00     0.105 C 
BRANCH   7   8
HETATM    8  C           1     -23.407  -3.699  -9.621  0.00  0.00     0.215 C 
HETATM    9  O           1     -23.426  -3.362 -10.781  0.00  0.00    -0.274 OA
HETATM   10  N           1     -24.485  -3.445  -8.817  0.00  0.00    -0.370 N 
HETATM   11  H           1     -24.469  -3.728  -7.846  0.00  0.00     0.159 HD
HETATM   12  H           1     -25.298  -2.975  -9.194  0.00  0.00     0.159 HD
ENDBRANCH   7   8
ENDBRANCH   6   7
ENDBRANCH   5   6
BRANCH   5  13
HETATM   13  C           1     -19.941  -4.733  -6.774  0.00  0.00     0.196 C 
HETATM   14  O           1     -19.184  -4.522  -7.747  0.00  0.00    -0.646 OA
HETATM   15  O           1     -19.598  -4.376  -5.626  0.00  0.00    -0.646 OA
ENDBRANCH   5  13
ENDBRANCH   4   5
BRANCH   3  16
HETATM   16  C           1     -21.921  -7.748  -4.016  0.00  0.00     0.278 C 
BRANCH  16  17
HETATM   17  C           1     -21.183  -7.068  -2.870  0.00  0.00     0.021 C 
HETATM   18  C           1     -22.157  -6.201  -2.082  0.00  0.00     0.012 C 
BRANCH  17  19
HETATM   19  C           1     -20.590  -8.128  -1.951  0.00  0.00     0.002 C 
HETATM   20  C           1     -21.259  -8.048  -0.585  0.00  0.00     0.005 C 
ENDBRANCH  17  19
ENDBRANCH  16  17
BRANCH  16  21
HETATM   21  N           1     -21.676  -9.226  -3.959  0.00  0.00    -0.066 N 
HETATM   22  H           1     -21.018  -9.499  -4.724  0.00  0.00     0.275 HD
HETATM   23  H           1     -21.259  -9.476  -3.035  0.00  0.00     0.275 HD
HETATM   24  H           1     -22.582  -9.734  -4.081  0.00  0.00     0.275 HD
ENDBRANCH  16  21
ENDBRANCH   3  16
TORSDOF 9
ENDMDL
MODEL 5
REMARK VINA RESULT:      -5.6      2.072      3.096
REMARK  9 active torsions:
REMARK  status: ('A' for Active; 'I' for Inactive)
REMARK    1  A    between atoms: C_1  and  C_2 
REMARK    2  A    between atoms: C_1  and  C_9 
REMARK    3  A    between atoms: C_2  and  C_3 
REMARK       I    between atoms: C_3  and  N_5 
REMARK    4  A    between atoms: C_7  and  C_20 
REMARK    5  A    between atoms: C_9  and  C_19 
REMARK    6  A    between atoms: C_9  and  N_16 
REMARK    7  A    between atoms: C_14  and  C_15 
REMARK    8  A    between atoms: C_14  and  C_20 
REMARK    9  A    between atoms: C_14  and  N_24 
REMARK       I    between atoms: C_15  and  N_16 
ROOT
HETATM    1  O           1     -24.110  -6.732 -18.051  0.00  0.00    -0.271 OA
HETATM    2  H           1     -27.176  -6.975 -18.670  0.00  0.00     0.163 HD
HETATM    3  C           1     -25.109  -7.059 -18.648  0.00  0.00     0.249 C 
HETATM    4  N           1     -26.341  -6.702 -18.169  0.00  0.00    -0.345 N 
ENDROOT
BRANCH   4   5
HETATM    5  C           1     -26.447  -5.931 -16.946  0.00  0.00     0.186 C 
BRANCH   5   6
HETATM    6  C           1     -27.800  -5.234 -16.903  0.00  0.00     0.045 C 
BRANCH   6   7
HETATM    7  C           1     -28.648  -5.697 -18.080  0.00  0.00     0.105 C 
BRANCH   7   8
HETATM    8  C           1     -29.718  -6.641 -17.590  0.00  0.00     0.215 C 
HETATM    9  O           1     -30.790  -6.209 -17.239  0.00  0.00    -0.274 OA
HETATM   10  N           1     -29.476  -7.987 -17.545  0.00  0.00    -0.370 N 
HETATM   11  H           1     -28.578  -8.350 -17.839  0.00  0.00     0.159 HD
HETATM   12  H           1     -30.194  -8.620 -17.216  0.00  0.00     0.159 HD
ENDBRANCH   7   8
ENDBRANCH   6   7
ENDBRANCH   5   6
BRANCH   5  13
HETATM   13  C           1     -26.318  -6.853 -15.758  0.00  0.00     0.196 C 
HETATM   14  O           1     -25.221  -6.962 -15.168  0.00  0.00    -0.646 OA
HETATM   15  O           1     -27.307  -7.509 -15.366  0.00  0.00    -0.646 OA
ENDBRANCH   5  13
ENDBRANCH   4   5
BRANCH   3  16
HETATM   16  C           1     -24.997  -7.861 -19.922  0.00  0.00     0.278 C 
BRANCH  16  17
HETATM   17  C           1     -23.822  -7.350 -20.744  0.00  0.00     0.021 C 
HETATM   18  C           1     -22.576  -8.160 -20.410  0.00  0.00     0.012 C 
BRANCH  17  19
HETATM   19  C           1     -24.140  -7.497 -22.227  0.00  0.00     0.002 C 
HETATM   20  C           1     -23.055  -8.327 -22.899  0.00  0.00     0.005 C 
ENDBRANCH  17  19
ENDBRANCH  16  17
BRANCH  16  21
HETATM   21  N           1     -26.261  -7.717 -20.715  0.00  0.00    -0.066 N 
HETATM   22  H           1     -26.061  -7.193 -21.597  0.00  0.00     0.275 HD
HETATM   23  H           1     -26.636  -8.663 -20.950  0.00  0.00     0.275 HD
HETATM   24  H           1     -26.968  -7.193 -20.151  0.00  0.00     0.275 HD
ENDBRANCH  16  21
ENDBRANCH   3  16
TORSDOF 9
ENDMDL
MODEL 6
REMARK VINA RESULT:      -5.5     14.061     15.912
REMARK  9 active torsions:
REMARK  status: ('A' for Active; 'I' for Inactive)
REMARK    1  A    between atoms: C_1  and  C_2 
REMARK    2  A    between atoms: C_1  and  C_9 
REMARK    3  A    between atoms: C_2  and  C_3 
REMARK       I    between atoms: C_3  and  N_5 
REMARK    4  A    between atoms: C_7  and  C_20 
REMARK    5  A    between atoms: C_9  and  C_19 
REMARK    6  A    between atoms: C_9  and  N_16 
REMARK    7  A    between atoms: C_14  and  C_15 
REMARK    8  A    between atoms: C_14  and  C_20 
REMARK    9  A    between atoms: C_14  and  N_24 
REMARK       I    between atoms: C_15  and  N_16 
ROOT
HETATM    1  O           1     -22.905  -5.615  -5.777  0.00  0.00    -0.271 OA
HETATM    2  H           1     -19.952  -6.366  -5.030  0.00  0.00     0.163 HD
HETATM    3  C           1     -21.698  -5.566  -5.800  0.00  0.00     0.249 C 
HETATM    4  N           1     -20.963  -6.408  -5.010  0.00  0.00    -0.345 N 
ENDROOT
BRANCH   4   5
HETATM    5  C           1     -21.633  -7.360  -4.145  0.00  0.00     0.186 C 
BRANCH   5   6
HETATM    6  C           1     -20.944  -8.713  -4.253  0.00  0.00     0.045 C 
BRANCH   6   7
HETATM    7  C           1     -19.602  -8.547  -4.953  0.00  0.00     0.105 C 
BRANCH   7   8
HETATM    8  C           1     -18.531  -9.260  -4.166  0.00  0.00     0.215 C 
HETATM    9  O           1     -17.667  -9.877  -4.743  0.00  0.00    -0.274 OA
HETATM   10  N           1     -18.536  -9.208  -2.799  0.00  0.00    -0.370 N 
HETATM   11  H           1     -19.260  -8.691  -2.315  0.00  0.00     0.159 HD
HETATM   12  H           1     -17.817  -9.687  -2.271  0.00  0.00     0.159 HD
ENDBRANCH   7   8
ENDBRANCH   6   7
ENDBRANCH   5   6
BRANCH   5  13
HETATM   13  C           1     -21.568  -6.874  -2.718  0.00  0.00     0.196 C 
HETATM   14  O           1     -20.794  -7.424  -1.905  0.00  0.00    -0.646 OA
HETATM   15  O           1     -22.287  -5.921  -2.349  0.00  0.00    -0.646 OA
ENDBRANCH   5  13
ENDBRANCH   4   5
BRANCH   3  16
HETATM   16  C           1     -21.002  -4.575  -6.701  0.00  0.00     0.278 C 
BRANCH  16  17
HETATM   17  C           1     -21.374  -4.855  -8.150  0.00  0.00     0.021 C 
HETATM   18  C           1     -22.347  -3.791  -8.640  0.00  0.00     0.012 C 
BRANCH  17  19
HETATM   19  C           1     -20.116  -4.826  -9.010  0.00  0.00     0.002 C 
HETATM   20  C           1     -20.456  -4.277 -10.389  0.00  0.00     0.005 C 
ENDBRANCH  17  19
ENDBRANCH  16  17
BRANCH  16  21
HETATM   21  N           1     -19.517  -4.705  -6.533  0.00  0.00    -0.066 N 
HETATM   22  H           1     -19.040  -4.400  -7.411  0.00  0.00     0.275 HD
HETATM   23  H           1     -19.202  -4.105  -5.739  0.00  0.00     0.275 HD
HETATM   24  H           1     -19.276  -5.703  -6.333  0.00  0.00     0.275 HD
ENDBRANCH  16  21
ENDBRANCH   3  16
TORSDOF 9
ENDMDL
MODEL 7
REMARK VINA RESULT:      -5.4     14.176     15.795
REMARK  9 active torsions:
REMARK  status: ('A' for Active; 'I' for Inactive)
REMARK    1  A    between atoms: C_1  and  C_2 
REMARK    2  A    between atoms: C_1  and  C_9 
REMARK    3  A    between atoms: C_2  and  C_3 
REMARK       I    between atoms: C_3  and  N_5 
REMARK    4  A    between atoms: C_7  and  C_20 
REMARK    5  A    between atoms: C_9  and  C_19 
REMARK    6  A    between atoms: C_9  and  N_16 
REMARK    7  A    between atoms: C_14  and  C_15 
REMARK    8  A    between atoms: C_14  and  C_20 
REMARK    9  A    between atoms: C_14  and  N_24 
REMARK       I    between atoms: C_15  and  N_16 
ROOT
HETATM    1  O           1     -22.855  -5.739  -5.706  0.00  0.00    -0.271 OA
HETATM    2  H           1     -19.886  -6.294  -4.856  0.00  0.00     0.163 HD
HETATM    3  C           1     -21.652  -5.615  -5.693  0.00  0.00     0.249 C 
HETATM    4  N           1     -20.892  -6.398  -4.866  0.00  0.00    -0.345 N 
ENDROOT
BRANCH   4   5
HETATM    5  C           1     -21.529  -7.376  -4.006  0.00  0.00     0.186 C 
BRANCH   5   6
HETATM    6  C           1     -20.723  -8.667  -4.024  0.00  0.00     0.045 C 
BRANCH   6   7
HETATM    7  C           1     -21.656  -9.845  -4.274  0.00  0.00     0.105 C 
BRANCH   7   8
HETATM    8  C           1     -22.007 -10.498  -2.960  0.00  0.00     0.215 C 
HETATM    9  O           1     -23.045 -11.106  -2.846  0.00  0.00    -0.274 OA
HETATM   10  N           1     -21.151 -10.402  -1.897  0.00  0.00    -0.370 N 
HETATM   11  H           1     -20.282  -9.893  -1.993  0.00  0.00     0.159 HD
HETATM   12  H           1     -21.387 -10.840  -1.015  0.00  0.00     0.159 HD
ENDBRANCH   7   8
ENDBRANCH   6   7
ENDBRANCH   5   6
BRANCH   5  13
HETATM   13  C           1     -21.590  -6.840  -2.596  0.00  0.00     0.196 C 
HETATM   14  O           1     -22.371  -5.904  -2.316  0.00  0.00    -0.646 OA
HETATM   15  O           1     -20.860  -7.332  -1.708  0.00  0.00    -0.646 OA
ENDBRANCH   5  13
ENDBRANCH   4   5
BRANCH   3  16
HETATM   16  C           1     -20.990  -4.597  -6.589  0.00  0.00     0.278 C 
BRANCH  16  17
HETATM   17  C           1     -21.366  -4.874  -8.038  0.00  0.00     0.021 C 
HETATM   18  C           1     -22.351  -3.816  -8.519  0.00  0.00     0.012 C 
BRANCH  17  19
HETATM   19  C           1     -20.112  -4.829  -8.903  0.00  0.00     0.002 C 
HETATM   20  C           1     -20.476  -4.346 -10.301  0.00  0.00     0.005 C 
ENDBRANCH  17  19
ENDBRANCH  16  17
BRANCH  16  21
HETATM   21  N           1     -19.501  -4.689  -6.433  0.00  0.00    -0.066 N 
HETATM   22  H           1     -19.038  -4.227  -7.249  0.00  0.00     0.275 HD
HETATM   23  H           1     -19.212  -4.210  -5.552  0.00  0.00     0.275 HD
HETATM   24  H           1     -19.217  -5.694  -6.393  0.00  0.00     0.275 HD
ENDBRANCH  16  21
ENDBRANCH   3  16
TORSDOF 9
ENDMDL
MODEL 8
REMARK VINA RESULT:      -5.3      9.738     11.917
REMARK  9 active torsions:
REMARK  status: ('A' for Active; 'I' for Inactive)
REMARK    1  A    between atoms: C_1  and  C_2 
REMARK    2  A    between atoms: C_1  and  C_9 
REMARK    3  A    between atoms: C_2  and  C_3 
REMARK       I    between atoms: C_3  and  N_5 
REMARK    4  A    between atoms: C_7  and  C_20 
REMARK    5  A    between atoms: C_9  and  C_19 
REMARK    6  A    between atoms: C_9  and  N_16 
REMARK    7  A    between atoms: C_14  and  C_15 
REMARK    8  A    between atoms: C_14  and  C_20 
REMARK    9  A    between atoms: C_14  and  N_24 
REMARK       I    between atoms: C_15  and  N_16 
ROOT
HETATM    1  O           1     -34.435   0.499 -13.330  0.00  0.00    -0.271 OA
HETATM    2  H           1     -36.711  -1.620 -12.918  0.00  0.00     0.163 HD
HETATM    3  C           1     -35.487  -0.065 -13.521  0.00  0.00     0.249 C 
HETATM    4  N           1     -35.831  -1.149 -12.758  0.00  0.00    -0.345 N 
ENDROOT
BRANCH   4   5
HETATM    5  C           1     -34.934  -1.619 -11.720  0.00  0.00     0.186 C 
BRANCH   5   6
HETATM    6  C           1     -35.628  -1.520 -10.368  0.00  0.00     0.045 C 
BRANCH   6   7
HETATM    7  C           1     -37.027  -0.949 -10.556  0.00  0.00     0.105 C 
BRANCH   7   8
HETATM    8  C           1     -37.181   0.295  -9.716  0.00  0.00     0.215 C 
HETATM    9  O           1     -38.008   1.124 -10.011  0.00  0.00    -0.274 OA
HETATM   10  N           1     -36.383   0.484  -8.620  0.00  0.00    -0.370 N 
HETATM   11  H           1     -35.690  -0.211  -8.373  0.00  0.00     0.159 HD
HETATM   12  H           1     -36.486   1.319  -8.057  0.00  0.00     0.159 HD
ENDBRANCH   7   8
ENDBRANCH   6   7
ENDBRANCH   5   6
BRANCH   5  13
HETATM   13  C           1     -34.561  -3.056 -11.991  0.00  0.00     0.196 C 
HETATM   14  O           1     -34.228  -3.804 -11.047  0.00  0.00    -0.646 OA
HETATM   15  O           1     -34.586  -3.498 -13.161  0.00  0.00    -0.646 OA
ENDBRANCH   5  13
ENDBRANCH   4   5
BRANCH   3  16
HETATM   16  C           1     -36.419   0.425 -14.601  0.00  0.00     0.278 C 
BRANCH  16  17
HETATM   17  C           1     -36.710  -0.707 -15.576  0.00  0.00     0.021 C 
HETATM   18  C           1     -38.073  -0.486 -16.220  0.00  0.00     0.012 C 
BRANCH  17  19
HETATM   19  C           1     -35.637  -0.732 -16.657  0.00  0.00     0.002 C 
HETATM   20  C           1     -34.991  -2.110 -16.700  0.00  0.00     0.005 C 
ENDBRANCH  17  19
ENDBRANCH  16  17
BRANCH  16  21
HETATM   21  N           1     -35.777   1.564 -15.335  0.00  0.00    -0.066 N 
HETATM   22  H           1     -34.994   1.951 -14.761  0.00  0.00     0.275 HD
HETATM   23  H           1     -35.403   1.224 -16.249  0.00  0.00     0.275 HD
HETATM   24  H           1     -36.487   2.312 -15.506  0.00  0.00     0.275 HD
ENDBRANCH  16  21
ENDBRANCH   3  16
TORSDOF 9
ENDMDL
MODEL 9
REMARK VINA RESULT:      -5.2     18.323     19.820
REMARK  9 active torsions:
REMARK  status: ('A' for Active; 'I' for Inactive)
REMARK    1  A    between atoms: C_1  and  C_2 
REMARK    2  A    between atoms: C_1  and  C_9 
REMARK    3  A    between atoms: C_2  and  C_3 
REMARK       I    between atoms: C_3  and  N_5 
REMARK    4  A    between atoms: C_7  and  C_20 
REMARK    5  A    between atoms: C_9  and  C_19 
REMARK    6  A    between atoms: C_9  and  N_16 
REMARK    7  A    between atoms: C_14  and  C_15 
REMARK    8  A    between atoms: C_14  and  C_20 
REMARK    9  A    between atoms: C_14  and  N_24 
REMARK       I    between atoms: C_15  and  N_16 
ROOT
HETATM    1  O           1     -20.564 -10.304   1.059  0.00  0.00    -0.271 OA
HETATM    2  H           1     -21.960 -10.061  -1.740  0.00  0.00     0.163 HD
HETATM    3  C           1     -21.128 -10.669   0.054  0.00  0.00     0.249 C 
HETATM    4  N           1     -21.487  -9.755  -0.900  0.00  0.00    -0.345 N 
ENDROOT
BRANCH   4   5
HETATM    5  C           1     -21.190  -8.349  -0.705  0.00  0.00     0.186 C 
BRANCH   5   6
HETATM    6  C           1     -20.586  -7.779  -1.981  0.00  0.00     0.045 C 
BRANCH   6   7
HETATM    7  C           1     -21.173  -8.498  -3.188  0.00  0.00     0.105 C 
BRANCH   7   8
HETATM    8  C           1     -21.598  -7.485  -4.221  0.00  0.00     0.215 C 
HETATM    9  O           1     -21.516  -7.750  -5.397  0.00  0.00    -0.274 OA
HETATM   10  N           1     -22.078  -6.265  -3.828  0.00  0.00    -0.370 N 
HETATM   11  H           1     -22.147  -6.042  -2.843  0.00  0.00     0.159 HD
HETATM   12  H           1     -22.363  -5.585  -4.521  0.00  0.00     0.159 HD
ENDBRANCH   7   8
ENDBRANCH   6   7
ENDBRANCH   5   6
BRANCH   5  13
HETATM   13  C           1     -22.463  -7.608  -0.375  0.00  0.00     0.196 C 
HETATM   14  O           1     -22.701  -6.504  -0.914  0.00  0.00    -0.646 OA
HETATM   15  O           1     -23.278  -8.096   0.436  0.00  0.00    -0.646 OA
ENDBRANCH   5  13
ENDBRANCH   4   5
BRANCH   3  16
HETATM   16  C           1     -21.437 -12.132  -0.147  0.00  0.00     0.278 C 
BRANCH  16  17
HETATM   17  C           1     -22.682 -12.504   0.647  0.00  0.00     0.021 C 
HETATM   18  C           1     -23.773 -12.969  -0.309  0.00  0.00     0.012 C 
BRANCH  17  19
HETATM   19  C           1     -22.345 -13.629   1.618  0.00  0.00     0.002 C 
HETATM   20  C           1     -23.607 -14.057   2.355  0.00  0.00     0.005 C 
ENDBRANCH  17  19
ENDBRANCH  16  17
BRANCH  16  21
HETATM   21  N           1     -20.277 -12.956   0.328  0.00  0.00    -0.066 N 
HETATM   22  H           1     -19.402 -12.625  -0.137  0.00  0.00     0.275 HD
HETATM   23  H           1     -20.180 -12.859   1.363  0.00  0.00     0.275 HD
HETATM   24  H           1     -20.442 -13.960   0.087  0.00  0.00     0.275 HD
ENDBRANCH  16  21
ENDBRANCH   3  16
TORSDOF 9
ENDMDL
