MODEL 1
REMARK VINA RESULT:      -8.3      0.000      0.000
REMARK  9 active torsions:
REMARK  status: ('A' for Active; 'I' for Inactive)
REMARK    1  A    between atoms: C_1  and  C_13 
REMARK    2  A    between atoms: C_1  and  C_25 
REMARK    3  A    between atoms: C_1  and  N_28 
REMARK    4  A    between atoms: N_7  and  C_29 
REMARK       I    between atoms: N_7  and  C_13 
REMARK    5  A    between atoms: C_14  and  C_29 
REMARK    6  A    between atoms: C_14  and  C_21 
REMARK    7  A    between atoms: C_17  and  C_29 
REMARK    8  A    between atoms: C_18  and  O_19 
REMARK    9  A    between atoms: C_25  and  C_27 
ROOT
HETATM    1  N           1     -20.722  -7.492  -6.285  0.00  0.00    -0.344 N 
HETATM    2  O           1     -19.114  -6.445  -7.428  0.00  0.00    -0.271 OA
HETATM    3  C           1     -20.138  -6.362  -6.791  0.00  0.00     0.249 C 
HETATM    4  H           1     -21.404  -7.999  -6.835  0.00  0.00     0.163 HD
ENDROOT
BRANCH   3   5
HETATM    5  C           1     -20.772  -5.014  -6.553  0.00  0.00     0.278 C 
BRANCH   5   6
HETATM    6  C           1     -20.297  -4.034  -7.620  0.00  0.00     0.081 C 
BRANCH   6   7
HETATM    7  C           1     -21.111  -4.217  -8.863  0.00  0.00    -0.056 A 
HETATM    8  C           1     -20.489  -4.211 -10.111  0.00  0.00     0.010 A 
HETATM    9  C           1     -21.247  -4.381 -11.270  0.00  0.00     0.037 A 
HETATM   10  C           1     -22.627  -4.557 -11.180  0.00  0.00     0.065 A 
HETATM   11  C           1     -23.250  -4.562  -9.931  0.00  0.00     0.037 A 
HETATM   12  C           1     -22.491  -4.393  -8.773  0.00  0.00     0.010 A 
BRANCH  10  13
HETATM   13  O           1     -23.364  -4.723 -12.305  0.00  0.00    -0.361 OA
HETATM   14  H           1     -23.662  -3.846 -12.601  0.00  0.00     0.217 HD
ENDBRANCH  10  13
ENDBRANCH   6   7
ENDBRANCH   5   6
BRANCH   5  15
HETATM   15  N           1     -20.377  -4.508  -5.199  0.00  0.00    -0.066 N 
HETATM   16  H           1     -19.502  -4.987  -4.889  0.00  0.00     0.275 HD
HETATM   17  H           1     -21.142  -4.706  -4.516  0.00  0.00     0.275 HD
HETATM   18  H           1     -20.211  -3.477  -5.247  0.00  0.00     0.275 HD
ENDBRANCH   5  15
ENDBRANCH   3   5
BRANCH   1  19
HETATM   19  C           1     -20.364  -7.962  -4.961  0.00  0.00     0.189 C 
BRANCH  19  20
HETATM   20  C           1     -21.554  -8.678  -4.337  0.00  0.00     0.074 C 
BRANCH  20  21
HETATM   21  C           1     -21.779  -8.161  -2.950  0.00  0.00    -0.056 A 
HETATM   22  C           1     -21.809  -9.045  -1.872  0.00  0.00     0.007 A 
HETATM   23  C           1     -22.019  -8.563  -0.581  0.00  0.00     0.001 A 
HETATM   24  C           1     -22.200  -7.197  -0.367  0.00  0.00     0.000 A 
HETATM   25  C           1     -22.171  -6.313  -1.445  0.00  0.00     0.001 A 
HETATM   26  C           1     -21.961  -6.795  -2.738  0.00  0.00     0.007 A 
ENDBRANCH  20  21
ENDBRANCH  19  20
BRANCH  19  27
HETATM   27  C           1     -19.199  -8.915  -5.064  0.00  0.00     0.197 C 
HETATM   28  O           1     -18.427  -9.067  -4.091  0.00  0.00    -0.646 OA
HETATM   29  O           1     -19.005  -9.553  -6.121  0.00  0.00    -0.646 OA
ENDBRANCH  19  27
ENDBRANCH   1  19
TORSDOF 9
ENDMDL
MODEL 2
REMARK VINA RESULT:      -8.1      0.985      1.080
REMARK  9 active torsions:
REMARK  status: ('A' for Active; 'I' for Inactive)
REMARK    1  A    between atoms: C_1  and  C_13 
REMARK    2  A    between atoms: C_1  and  C_25 
REMARK    3  A    between atoms: C_1  and  N_28 
REMARK    4  A    between atoms: N_7  and  C_29 
REMARK       I    between atoms: N_7  and  C_13 
REMARK    5  A    between atoms: C_14  and  C_29 
REMARK    6  A    between atoms: C_14  and  C_21 
REMARK    7  A    between atoms: C_17  and  C_29 
REMARK    8  A    between atoms: C_18  and  O_19 
REMARK    9  A    between atoms: C_25  and  C_27 
ROOT
HETATM    1  N           1     -20.599  -8.224  -5.670  0.00  0.00    -0.344 N 
HETATM    2  O           1     -19.290  -6.729  -6.690  0.00  0.00    -0.271 OA
HETATM    3  C           1     -20.387  -7.012  -6.270  0.00  0.00     0.249 C 
HETATM    4  H           1     -20.885  -9.020  -6.226  0.00  0.00     0.163 HD
ENDROOT
BRANCH   3   5
HETATM    5  C           1     -21.524  -6.029  -6.405  0.00  0.00     0.278 C 
BRANCH   5   6
HETATM    6  C           1     -20.983  -4.691  -6.895  0.00  0.00     0.081 C 
BRANCH   6   7
HETATM    7  C           1     -21.260  -4.547  -8.360  0.00  0.00    -0.056 A 
HETATM    8  C           1     -20.206  -4.548  -9.272  0.00  0.00     0.010 A 
HETATM    9  C           1     -20.463  -4.414 -10.636  0.00  0.00     0.037 A 
HETATM   10  C           1     -21.776  -4.278 -11.088  0.00  0.00     0.065 A 
HETATM   11  C           1     -22.831  -4.276 -10.175  0.00  0.00     0.037 A 
HETATM   12  C           1     -22.572  -4.412  -8.810  0.00  0.00     0.010 A 
BRANCH  10  13
HETATM   13  O           1     -22.027  -4.148 -12.413  0.00  0.00    -0.361 OA
HETATM   14  H           1     -22.640  -3.403 -12.531  0.00  0.00     0.217 HD
ENDBRANCH  10  13
ENDBRANCH   6   7
ENDBRANCH   5   6
BRANCH   5  15
HETATM   15  N           1     -22.184  -5.842  -5.072  0.00  0.00    -0.066 N 
HETATM   16  H           1     -23.076  -6.387  -5.045  0.00  0.00     0.275 HD
HETATM   17  H           1     -22.392  -4.829  -4.925  0.00  0.00     0.275 HD
HETATM   18  H           1     -21.546  -6.180  -4.317  0.00  0.00     0.275 HD
ENDBRANCH   5  15
ENDBRANCH   3   5
BRANCH   1  19
HETATM   19  C           1     -20.413  -8.368  -4.239  0.00  0.00     0.189 C 
BRANCH  19  20
HETATM   20  C           1     -21.515  -9.250  -3.670  0.00  0.00     0.074 C 
BRANCH  20  21
HETATM   21  C           1     -21.875  -8.777  -2.296  0.00  0.00    -0.056 A 
HETATM   22  C           1     -22.240  -9.699  -1.315  0.00  0.00     0.007 A 
HETATM   23  C           1     -22.576  -9.258  -0.035  0.00  0.00     0.001 A 
HETATM   24  C           1     -22.547  -7.896   0.264  0.00  0.00     0.000 A 
HETATM   25  C           1     -22.183  -6.975  -0.718  0.00  0.00     0.001 A 
HETATM   26  C           1     -21.847  -7.415  -1.998  0.00  0.00     0.007 A 
ENDBRANCH  20  21
ENDBRANCH  19  20
BRANCH  19  27
HETATM   27  C           1     -19.070  -9.001  -3.968  0.00  0.00     0.197 C 
HETATM   28  O           1     -18.615  -9.026  -2.803  0.00  0.00    -0.646 OA
HETATM   29  O           1     -18.413  -9.499  -4.906  0.00  0.00    -0.646 OA
ENDBRANCH  19  27
ENDBRANCH   1  19
TORSDOF 9
ENDMDL
MODEL 3
REMARK VINA RESULT:      -7.6      2.192      8.157
REMARK  9 active torsions:
REMARK  status: ('A' for Active; 'I' for Inactive)
REMARK    1  A    between atoms: C_1  and  C_13 
REMARK    2  A    between atoms: C_1  and  C_25 
REMARK    3  A    between atoms: C_1  and  N_28 
REMARK    4  A    between atoms: N_7  and  C_29 
REMARK       I    between atoms: N_7  and  C_13 
REMARK    5  A    between atoms: C_14  and  C_29 
REMARK    6  A    between atoms: C_14  and  C_21 
REMARK    7  A    between atoms: C_17  and  C_29 
REMARK    8  A    between atoms: C_18  and  O_19 
REMARK    9  A    between atoms: C_25  and  C_27 
ROOT
HETATM    1  N           1     -22.275  -5.821  -5.634  0.00  0.00    -0.344 N 
HETATM    2  O           1     -21.056  -5.836  -3.763  0.00  0.00    -0.271 OA
HETATM    3  C           1     -21.658  -6.469  -4.597  0.00  0.00     0.249 C 
HETATM    4  H           1     -23.234  -5.514  -5.540  0.00  0.00     0.163 HD
ENDROOT
BRANCH   3   5
HETATM    5  C           1     -21.731  -7.973  -4.497  0.00  0.00     0.278 C 
BRANCH   5   6
HETATM    6  C           1     -20.884  -8.445  -3.322  0.00  0.00     0.081 C 
BRANCH   6   7
HETATM    7  C           1     -21.743  -9.209  -2.362  0.00  0.00    -0.056 A 
HETATM    8  C           1     -22.002  -8.692  -1.094  0.00  0.00     0.010 A 
HETATM    9  C           1     -22.801  -9.404  -0.200  0.00  0.00     0.037 A 
HETATM   10  C           1     -23.343 -10.633  -0.575  0.00  0.00     0.065 A 
HETATM   11  C           1     -23.084 -11.151  -1.844  0.00  0.00     0.037 A 
HETATM   12  C           1     -22.284 -10.438  -2.738  0.00  0.00     0.010 A 
BRANCH  10  13
HETATM   13  O           1     -24.120 -11.325   0.293  0.00  0.00    -0.361 OA
HETATM   14  H           1     -23.609 -12.086   0.614  0.00  0.00     0.217 HD
ENDBRANCH  10  13
ENDBRANCH   6   7
ENDBRANCH   5   6
BRANCH   5  15
HETATM   15  N           1     -21.213  -8.584  -5.764  0.00  0.00    -0.066 N 
HETATM   16  H           1     -20.630  -9.420  -5.536  0.00  0.00     0.275 HD
HETATM   17  H           1     -20.630  -7.883  -6.275  0.00  0.00     0.275 HD
HETATM   18  H           1     -22.017  -8.873  -6.366  0.00  0.00     0.275 HD
ENDBRANCH   5  15
ENDBRANCH   3   5
BRANCH   1  19
HETATM   19  C           1     -21.552  -5.576  -6.867  0.00  0.00     0.189 C 
BRANCH  19  20
HETATM   20  C           1     -21.952  -4.218  -7.428  0.00  0.00     0.074 C 
BRANCH  20  21
HETATM   21  C           1     -21.896  -4.259  -8.924  0.00  0.00    -0.056 A 
HETATM   22  C           1     -23.055  -4.511  -9.658  0.00  0.00     0.007 A 
HETATM   23  C           1     -23.002  -4.550 -11.051  0.00  0.00     0.001 A 
HETATM   24  C           1     -21.791  -4.337 -11.710  0.00  0.00     0.000 A 
HETATM   25  C           1     -20.633  -4.087 -10.975  0.00  0.00     0.001 A 
HETATM   26  C           1     -20.685  -4.048  -9.582  0.00  0.00     0.007 A 
ENDBRANCH  20  21
ENDBRANCH  19  20
BRANCH  19  27
HETATM   27  C           1     -20.069  -5.590  -6.591  0.00  0.00     0.197 C 
HETATM   28  O           1     -19.510  -4.573  -6.122  0.00  0.00    -0.646 OA
HETATM   29  O           1     -19.397  -6.616  -6.832  0.00  0.00    -0.646 OA
ENDBRANCH  19  27
ENDBRANCH   1  19
TORSDOF 9
ENDMDL
MODEL 4
REMARK VINA RESULT:      -7.5      1.723      2.531
REMARK  9 active torsions:
REMARK  status: ('A' for Active; 'I' for Inactive)
REMARK    1  A    between atoms: C_1  and  C_13 
REMARK    2  A    between atoms: C_1  and  C_25 
REMARK    3  A    between atoms: C_1  and  N_28 
REMARK    4  A    between atoms: N_7  and  C_29 
REMARK       I    between atoms: N_7  and  C_13 
REMARK    5  A    between atoms: C_14  and  C_29 
REMARK    6  A    between atoms: C_14  and  C_21 
REMARK    7  A    between atoms: C_17  and  C_29 
REMARK    8  A    between atoms: C_18  and  O_19 
REMARK    9  A    between atoms: C_25  and  C_27 
ROOT
HETATM    1  N           1     -21.278  -7.407  -6.409  0.00  0.00    -0.344 N 
HETATM    2  O           1     -19.101  -6.957  -6.630  0.00  0.00    -0.271 OA
HETATM    3  C           1     -20.234  -6.538  -6.579  0.00  0.00     0.249 C 
HETATM    4  H           1     -21.734  -7.814  -7.215  0.00  0.00     0.163 HD
ENDROOT
BRANCH   3   5
HETATM    5  C           1     -20.498  -5.057  -6.703  0.00  0.00     0.278 C 
BRANCH   5   6
HETATM    6  C           1     -19.759  -4.510  -7.918  0.00  0.00     0.081 C 
BRANCH   6   7
HETATM    7  C           1     -20.674  -4.514  -9.103  0.00  0.00    -0.056 A 
HETATM    8  C           1     -22.054  -4.592  -8.918  0.00  0.00     0.010 A 
HETATM    9  C           1     -22.907  -4.596 -10.022  0.00  0.00     0.037 A 
HETATM   10  C           1     -22.379  -4.524 -11.311  0.00  0.00     0.065 A 
HETATM   11  C           1     -20.999  -4.447 -11.496  0.00  0.00     0.037 A 
HETATM   12  C           1     -20.147  -4.442 -10.391  0.00  0.00     0.010 A 
BRANCH  10  13
HETATM   13  O           1     -23.207  -4.527 -12.383  0.00  0.00    -0.361 OA
HETATM   14  H           1     -23.723  -3.704 -12.368  0.00  0.00     0.217 HD
ENDBRANCH  10  13
ENDBRANCH   6   7
ENDBRANCH   5   6
BRANCH   5  15
HETATM   15  N           1     -20.014  -4.358  -5.468  0.00  0.00    -0.066 N 
HETATM   16  H           1     -20.608  -3.517  -5.288  0.00  0.00     0.275 HD
HETATM   17  H           1     -19.022  -4.060  -5.603  0.00  0.00     0.275 HD
HETATM   18  H           1     -20.075  -5.009  -4.653  0.00  0.00     0.275 HD
ENDBRANCH   5  15
ENDBRANCH   3   5
BRANCH   1  19
HETATM   19  C           1     -21.729  -7.744  -5.073  0.00  0.00     0.189 C 
BRANCH  19  20
HETATM   20  C           1     -20.537  -8.169  -4.227  0.00  0.00     0.074 C 
BRANCH  20  21
HETATM   21  C           1     -21.009  -9.026  -3.093  0.00  0.00    -0.056 A 
HETATM   22  C           1     -21.952 -10.028  -3.322  0.00  0.00     0.007 A 
HETATM   23  C           1     -22.392 -10.826  -2.266  0.00  0.00     0.001 A 
HETATM   24  C           1     -21.890 -10.622  -0.981  0.00  0.00     0.000 A 
HETATM   25  C           1     -20.948  -9.619  -0.752  0.00  0.00     0.001 A 
HETATM   26  C           1     -20.507  -8.821  -1.808  0.00  0.00     0.007 A 
ENDBRANCH  20  21
ENDBRANCH  19  20
BRANCH  19  27
HETATM   27  C           1     -22.387  -6.539  -4.446  0.00  0.00     0.197 C 
HETATM   28  O           1     -23.471  -6.111  -4.901  0.00  0.00    -0.646 OA
HETATM   29  O           1     -21.850  -5.969  -3.473  0.00  0.00    -0.646 OA
ENDBRANCH  19  27
ENDBRANCH   1  19
TORSDOF 9
ENDMDL
MODEL 5
REMARK VINA RESULT:      -7.4      2.303      4.088
REMARK  9 active torsions:
REMARK  status: ('A' for Active; 'I' for Inactive)
REMARK    1  A    between atoms: C_1  and  C_13 
REMARK    2  A    between atoms: C_1  and  C_25 
REMARK    3  A    between atoms: C_1  and  N_28 
REMARK    4  A    between atoms: N_7  and  C_29 
REMARK       I    between atoms: N_7  and  C_13 
REMARK    5  A    between atoms: C_14  and  C_29 
REMARK    6  A    between atoms: C_14  and  C_21 
REMARK    7  A    between atoms: C_17  and  C_29 
REMARK    8  A    between atoms: C_18  and  O_19 
REMARK    9  A    between atoms: C_25  and  C_27 
ROOT
HETATM    1  N           1     -20.595  -7.168  -3.354  0.00  0.00    -0.344 N 
HETATM    2  O           1     -22.365  -6.309  -4.412  0.00  0.00    -0.271 OA
HETATM    3  C           1     -21.181  -6.551  -4.427  0.00  0.00     0.249 C 
HETATM    4  H           1     -20.214  -6.614  -2.598  0.00  0.00     0.163 HD
ENDROOT
BRANCH   3   5
HETATM    5  C           1     -20.348  -6.174  -5.627  0.00  0.00     0.278 C 
BRANCH   5   6
HETATM    6  C           1     -20.428  -4.668  -5.848  0.00  0.00     0.081 C 
BRANCH   6   7
HETATM    7  C           1     -20.922  -4.392  -7.234  0.00  0.00    -0.056 A 
HETATM    8  C           1     -22.280  -4.173  -7.460  0.00  0.00     0.010 A 
HETATM    9  C           1     -22.740  -3.916  -8.752  0.00  0.00     0.037 A 
HETATM   10  C           1     -21.841  -3.879  -9.817  0.00  0.00     0.065 A 
HETATM   11  C           1     -20.482  -4.098  -9.592  0.00  0.00     0.037 A 
HETATM   12  C           1     -20.023  -4.355  -8.299  0.00  0.00     0.010 A 
BRANCH  10  13
HETATM   13  O           1     -22.287  -3.629 -11.072  0.00  0.00    -0.361 OA
HETATM   14  H           1     -23.066  -3.052 -11.005  0.00  0.00     0.217 HD
ENDBRANCH  10  13
ENDBRANCH   6   7
ENDBRANCH   5   6
BRANCH   5  15
HETATM   15  N           1     -20.870  -6.884  -6.841  0.00  0.00    -0.066 N 
HETATM   16  H           1     -21.891  -6.692  -6.945  0.00  0.00     0.275 HD
HETATM   17  H           1     -20.719  -7.912  -6.733  0.00  0.00     0.275 HD
HETATM   18  H           1     -20.362  -6.544  -7.688  0.00  0.00     0.275 HD
ENDBRANCH   5  15
ENDBRANCH   3   5
BRANCH   1  19
HETATM   19  C           1     -20.520  -8.615  -3.302  0.00  0.00     0.189 C 
BRANCH  19  20
HETATM   20  C           1     -19.207  -9.032  -2.656  0.00  0.00     0.074 C 
BRANCH  20  21
HETATM   21  C           1     -18.205  -9.354  -3.721  0.00  0.00    -0.056 A 
HETATM   22  C           1     -16.870  -9.575  -3.379  0.00  0.00     0.007 A 
HETATM   23  C           1     -15.937  -9.874  -4.372  0.00  0.00     0.001 A 
HETATM   24  C           1     -16.338  -9.953  -5.705  0.00  0.00     0.000 A 
HETATM   25  C           1     -17.672  -9.732  -6.046  0.00  0.00     0.001 A 
HETATM   26  C           1     -18.606  -9.432  -5.054  0.00  0.00     0.007 A 
ENDBRANCH  20  21
ENDBRANCH  19  20
BRANCH  19  27
HETATM   27  C           1     -21.674  -9.149  -2.490  0.00  0.00     0.197 C 
HETATM   28  O           1     -22.071  -8.523  -1.482  0.00  0.00    -0.646 OA
HETATM   29  O           1     -22.232 -10.216  -2.823  0.00  0.00    -0.646 OA
ENDBRANCH  19  27
ENDBRANCH   1  19
TORSDOF 9
ENDMDL
MODEL 6
REMARK VINA RESULT:      -7.4      1.545      1.894
REMARK  9 active torsions:
REMARK  status: ('A' for Active; 'I' for Inactive)
REMARK    1  A    between atoms: C_1  and  C_13 
REMARK    2  A    between atoms: C_1  and  C_25 
REMARK    3  A    between atoms: C_1  and  N_28 
REMARK    4  A    between atoms: N_7  and  C_29 
REMARK       I    between atoms: N_7  and  C_13 
REMARK    5  A    between atoms: C_14  and  C_29 
REMARK    6  A    between atoms: C_14  and  C_21 
REMARK    7  A    between atoms: C_17  and  C_29 
REMARK    8  A    between atoms: C_18  and  O_19 
REMARK    9  A    between atoms: C_25  and  C_27 
ROOT
HETATM    1  N           1     -20.911  -6.553  -3.846  0.00  0.00    -0.344 N 
HETATM    2  O           1     -22.634  -6.047  -5.174  0.00  0.00    -0.271 OA
HETATM    3  C           1     -21.437  -6.091  -5.023  0.00  0.00     0.249 C 
HETATM    4  H           1     -20.728  -5.910  -3.087  0.00  0.00     0.163 HD
ENDROOT
BRANCH   3   5
HETATM    5  C           1     -20.519  -5.636  -6.132  0.00  0.00     0.278 C 
BRANCH   5   6
HETATM    6  C           1     -20.856  -4.200  -6.513  0.00  0.00     0.081 C 
BRANCH   6   7
HETATM    7  C           1     -21.207  -4.140  -7.968  0.00  0.00    -0.056 A 
HETATM    8  C           1     -20.196  -4.080  -8.927  0.00  0.00     0.010 A 
HETATM    9  C           1     -20.522  -4.023 -10.282  0.00  0.00     0.037 A 
HETATM   10  C           1     -21.860  -4.026 -10.678  0.00  0.00     0.065 A 
HETATM   11  C           1     -22.871  -4.086  -9.718  0.00  0.00     0.037 A 
HETATM   12  C           1     -22.544  -4.143  -8.363  0.00  0.00     0.010 A 
BRANCH  10  13
HETATM   13  O           1     -22.177  -3.972 -11.994  0.00  0.00    -0.361 OA
HETATM   14  H           1     -21.808  -4.761 -12.425  0.00  0.00     0.217 HD
ENDBRANCH  10  13
ENDBRANCH   6   7
ENDBRANCH   5   6
BRANCH   5  15
HETATM   15  N           1     -20.698  -6.526  -7.325  0.00  0.00    -0.066 N 
HETATM   16  H           1     -21.652  -6.383  -7.726  0.00  0.00     0.275 HD
HETATM   17  H           1     -20.589  -7.524  -7.035  0.00  0.00     0.275 HD
HETATM   18  H           1     -19.978  -6.291  -8.046  0.00  0.00     0.275 HD
ENDBRANCH   5  15
ENDBRANCH   3   5
BRANCH   1  19
HETATM   19  C           1     -20.617  -7.964  -3.689  0.00  0.00     0.189 C 
BRANCH  19  20
HETATM   20  C           1     -21.819  -8.668  -3.075  0.00  0.00     0.074 C 
BRANCH  20  21
HETATM   21  C           1     -21.659  -8.727  -1.588  0.00  0.00    -0.056 A 
HETATM   22  C           1     -20.938  -9.770  -1.005  0.00  0.00     0.007 A 
HETATM   23  C           1     -20.789  -9.825   0.380  0.00  0.00     0.001 A 
HETATM   24  C           1     -21.360  -8.838   1.184  0.00  0.00     0.000 A 
HETATM   25  C           1     -22.081  -7.797   0.601  0.00  0.00     0.001 A 
HETATM   26  C           1     -22.231  -7.741  -0.785  0.00  0.00     0.007 A 
ENDBRANCH  20  21
ENDBRANCH  19  20
BRANCH  19  27
HETATM   27  C           1     -20.315  -8.568  -5.039  0.00  0.00     0.197 C 
HETATM   28  O           1     -19.149  -8.538  -5.490  0.00  0.00    -0.646 OA
HETATM   29  O           1     -21.230  -9.097  -5.706  0.00  0.00    -0.646 OA
ENDBRANCH  19  27
ENDBRANCH   1  19
TORSDOF 9
ENDMDL
MODEL 7
REMARK VINA RESULT:      -7.3      3.350      4.945
REMARK  9 active torsions:
REMARK  status: ('A' for Active; 'I' for Inactive)
REMARK    1  A    between atoms: C_1  and  C_13 
REMARK    2  A    between atoms: C_1  and  C_25 
REMARK    3  A    between atoms: C_1  and  N_28 
REMARK    4  A    between atoms: N_7  and  C_29 
REMARK       I    between atoms: N_7  and  C_13 
REMARK    5  A    between atoms: C_14  and  C_29 
REMARK    6  A    between atoms: C_14  and  C_21 
REMARK    7  A    between atoms: C_17  and  C_29 
REMARK    8  A    between atoms: C_18  and  O_19 
REMARK    9  A    between atoms: C_25  and  C_27 
ROOT
HETATM    1  N           1     -21.087  -7.599  -1.506  0.00  0.00    -0.344 N 
HETATM    2  O           1     -22.259  -5.878  -2.312  0.00  0.00    -0.271 OA
HETATM    3  C           1     -21.630  -6.884  -2.539  0.00  0.00     0.249 C 
HETATM    4  H           1     -20.150  -7.391  -1.184  0.00  0.00     0.163 HD
ENDROOT
BRANCH   3   5
HETATM    5  C           1     -21.444  -7.353  -3.962  0.00  0.00     0.278 C 
BRANCH   5   6
HETATM    6  C           1     -22.424  -6.622  -4.870  0.00  0.00     0.081 C 
BRANCH   6   7
HETATM    7  C           1     -21.664  -5.825  -5.885  0.00  0.00    -0.056 A 
HETATM    8  C           1     -20.299  -6.043  -6.063  0.00  0.00     0.010 A 
HETATM    9  C           1     -19.591  -5.300  -7.008  0.00  0.00     0.037 A 
HETATM   10  C           1     -20.250  -4.340  -7.776  0.00  0.00     0.065 A 
HETATM   11  C           1     -21.617  -4.122  -7.598  0.00  0.00     0.037 A 
HETATM   12  C           1     -22.323  -4.866  -6.652  0.00  0.00     0.010 A 
BRANCH  10  13
HETATM   13  O           1     -19.563  -3.619  -8.695  0.00  0.00    -0.361 OA
HETATM   14  H           1     -18.660  -3.974  -8.741  0.00  0.00     0.217 HD
ENDBRANCH  10  13
ENDBRANCH   6   7
ENDBRANCH   5   6
BRANCH   5  15
HETATM   15  N           1     -21.698  -8.829  -4.038  0.00  0.00    -0.066 N 
HETATM   16  H           1     -22.725  -9.003  -4.114  0.00  0.00     0.275 HD
HETATM   17  H           1     -21.330  -9.291  -3.175  0.00  0.00     0.275 HD
HETATM   18  H           1     -21.214  -9.223  -4.877  0.00  0.00     0.275 HD
ENDBRANCH   5  15
ENDBRANCH   3   5
BRANCH   1  19
HETATM   19  C           1     -21.853  -8.656  -0.874  0.00  0.00     0.189 C 
BRANCH  19  20
HETATM   20  C           1     -20.986  -9.900  -0.740  0.00  0.00     0.074 C 
BRANCH  20  21
HETATM   21  C           1     -21.835 -11.056  -0.307  0.00  0.00    -0.056 A 
HETATM   22  C           1     -21.414 -11.878   0.738  0.00  0.00     0.007 A 
HETATM   23  C           1     -22.203 -12.955   1.140  0.00  0.00     0.001 A 
HETATM   24  C           1     -23.414 -13.211   0.497  0.00  0.00     0.000 A 
HETATM   25  C           1     -23.834 -12.389  -0.550  0.00  0.00     0.001 A 
HETATM   26  C           1     -23.044 -11.312  -0.952  0.00  0.00     0.007 A 
ENDBRANCH  20  21
ENDBRANCH  19  20
BRANCH  19  27
HETATM   27  C           1     -22.300  -8.203   0.494  0.00  0.00     0.197 C 
HETATM   28  O           1     -21.471  -8.117   1.426  0.00  0.00    -0.646 OA
HETATM   29  O           1     -23.499  -7.914   0.696  0.00  0.00    -0.646 OA
ENDBRANCH  19  27
ENDBRANCH   1  19
TORSDOF 9
ENDMDL
MODEL 8
REMARK VINA RESULT:      -7.3      4.572      7.571
REMARK  9 active torsions:
REMARK  status: ('A' for Active; 'I' for Inactive)
REMARK    1  A    between atoms: C_1  and  C_13 
REMARK    2  A    between atoms: C_1  and  C_25 
REMARK    3  A    between atoms: C_1  and  N_28 
REMARK    4  A    between atoms: N_7  and  C_29 
REMARK       I    between atoms: N_7  and  C_13 
REMARK    5  A    between atoms: C_14  and  C_29 
REMARK    6  A    between atoms: C_14  and  C_21 
REMARK    7  A    between atoms: C_17  and  C_29 
REMARK    8  A    between atoms: C_18  and  O_19 
REMARK    9  A    between atoms: C_25  and  C_27 
ROOT
HETATM    1  N           1     -20.762  -7.756  -3.144  0.00  0.00    -0.344 N 
HETATM    2  O           1     -21.597  -8.026  -5.198  0.00  0.00    -0.271 OA
HETATM    3  C           1     -20.868  -8.438  -4.327  0.00  0.00     0.249 C 
HETATM    4  H           1     -20.062  -7.033  -3.038  0.00  0.00     0.163 HD
ENDROOT
BRANCH   3   5
HETATM    5  C           1     -20.074  -9.704  -4.541  0.00  0.00     0.278 C 
BRANCH   5   6
HETATM    6  C           1     -18.595  -9.360  -4.665  0.00  0.00     0.081 C 
BRANCH   6   7
HETATM    7  C           1     -17.836 -10.014  -3.551  0.00  0.00    -0.056 A 
HETATM    8  C           1     -18.486 -10.892  -2.686  0.00  0.00     0.010 A 
HETATM    9  C           1     -17.779 -11.501  -1.649  0.00  0.00     0.037 A 
HETATM   10  C           1     -16.422 -11.230  -1.478  0.00  0.00     0.065 A 
HETATM   11  C           1     -15.771 -10.351  -2.343  0.00  0.00     0.037 A 
HETATM   12  C           1     -16.479  -9.743  -3.381  0.00  0.00     0.010 A 
BRANCH  10  13
HETATM   13  O           1     -15.735 -11.822  -0.471  0.00  0.00    -0.361 OA
HETATM   14  H           1     -14.950 -12.249  -0.853  0.00  0.00     0.217 HD
ENDBRANCH  10  13
ENDBRANCH   6   7
ENDBRANCH   5   6
BRANCH   5  15
HETATM   15  N           1     -20.537 -10.376  -5.799  0.00  0.00    -0.066 N 
HETATM   16  H           1     -21.148 -11.188  -5.555  0.00  0.00     0.275 HD
HETATM   17  H           1     -19.708 -10.715  -6.338  0.00  0.00     0.275 HD
HETATM   18  H           1     -21.076  -9.696  -6.380  0.00  0.00     0.275 HD
ENDBRANCH   5  15
ENDBRANCH   3   5
BRANCH   1  19
HETATM   19  C           1     -21.653  -8.071  -2.044  0.00  0.00     0.189 C 
BRANCH  19  20
HETATM   20  C           1     -20.864  -8.740  -0.927  0.00  0.00     0.074 C 
BRANCH  20  21
HETATM   21  C           1     -21.596  -9.959  -0.458  0.00  0.00    -0.056 A 
HETATM   22  C           1     -22.945 -10.125  -0.771  0.00  0.00     0.007 A 
HETATM   23  C           1     -23.627 -11.260  -0.334  0.00  0.00     0.001 A 
HETATM   24  C           1     -22.961 -12.229   0.416  0.00  0.00     0.000 A 
HETATM   25  C           1     -21.612 -12.061   0.730  0.00  0.00     0.001 A 
HETATM   26  C           1     -20.929 -10.926   0.293  0.00  0.00     0.007 A 
ENDBRANCH  20  21
ENDBRANCH  19  20
BRANCH  19  27
HETATM   27  C           1     -22.279  -6.799  -1.526  0.00  0.00     0.197 C 
HETATM   28  O           1     -22.710  -6.747  -0.353  0.00  0.00    -0.646 OA
HETATM   29  O           1     -22.369  -5.799  -2.269  0.00  0.00    -0.646 OA
ENDBRANCH  19  27
ENDBRANCH   1  19
TORSDOF 9
ENDMDL
MODEL 9
REMARK VINA RESULT:      -7.3      5.647      7.291
REMARK  9 active torsions:
REMARK  status: ('A' for Active; 'I' for Inactive)
REMARK    1  A    between atoms: C_1  and  C_13 
REMARK    2  A    between atoms: C_1  and  C_25 
REMARK    3  A    between atoms: C_1  and  N_28 
REMARK    4  A    between atoms: N_7  and  C_29 
REMARK       I    between atoms: N_7  and  C_13 
REMARK    5  A    between atoms: C_14  and  C_29 
REMARK    6  A    between atoms: C_14  and  C_21 
REMARK    7  A    between atoms: C_17  and  C_29 
REMARK    8  A    between atoms: C_18  and  O_19 
REMARK    9  A    between atoms: C_25  and  C_27 
ROOT
HETATM    1  N           1     -20.525 -10.824  -4.469  0.00  0.00    -0.344 N 
HETATM    2  O           1     -18.474 -11.700  -4.366  0.00  0.00    -0.271 OA
HETATM    3  C           1     -19.326 -11.024  -3.840  0.00  0.00     0.249 C 
HETATM    4  H           1     -20.644 -10.036  -5.093  0.00  0.00     0.163 HD
ENDROOT
BRANCH   3   5
HETATM    5  C           1     -19.070 -10.401  -2.489  0.00  0.00     0.278 C 
BRANCH   5   6
HETATM    6  C           1     -19.311  -8.899  -2.570  0.00  0.00     0.081 C 
BRANCH   6   7
HETATM    7  C           1     -20.456  -8.529  -1.678  0.00  0.00    -0.056 A 
HETATM    8  C           1     -20.650  -9.206  -0.475  0.00  0.00     0.010 A 
HETATM    9  C           1     -21.717  -8.861   0.355  0.00  0.00     0.037 A 
HETATM   10  C           1     -22.590  -7.840  -0.019  0.00  0.00     0.065 A 
HETATM   11  C           1     -22.396  -7.163  -1.224  0.00  0.00     0.037 A 
HETATM   12  C           1     -21.329  -7.508  -2.053  0.00  0.00     0.010 A 
BRANCH  10  13
HETATM   13  O           1     -23.626  -7.505   0.787  0.00  0.00    -0.361 OA
HETATM   14  H           1     -23.651  -8.138   1.524  0.00  0.00     0.217 HD
ENDBRANCH  10  13
ENDBRANCH   6   7
ENDBRANCH   5   6
BRANCH   5  15
HETATM   15  N           1     -17.650 -10.657  -2.082  0.00  0.00    -0.066 N 
HETATM   16  H           1     -17.579 -10.653  -1.040  0.00  0.00     0.275 HD
HETATM   17  H           1     -17.034  -9.910  -2.476  0.00  0.00     0.275 HD
HETATM   18  H           1     -17.345 -11.588  -2.449  0.00  0.00     0.275 HD
ENDBRANCH   5  15
ENDBRANCH   3   5
BRANCH   1  19
HETATM   19  C           1     -21.625 -11.741  -4.241  0.00  0.00     0.189 C 
BRANCH  19  20
HETATM   20  C           1     -22.752 -11.013  -3.521  0.00  0.00     0.074 C 
BRANCH  20  21
HETATM   21  C           1     -22.881 -11.544  -2.127  0.00  0.00    -0.056 A 
HETATM   22  C           1     -23.899 -11.080  -1.295  0.00  0.00     0.007 A 
HETATM   23  C           1     -24.018 -11.574   0.003  0.00  0.00     0.001 A 
HETATM   24  C           1     -23.119 -12.533   0.470  0.00  0.00     0.000 A 
HETATM   25  C           1     -22.100 -12.996  -0.362  0.00  0.00     0.001 A 
HETATM   26  C           1     -21.980 -12.501  -1.661  0.00  0.00     0.007 A 
ENDBRANCH  20  21
ENDBRANCH  19  20
BRANCH  19  27
HETATM   27  C           1     -22.127 -12.262  -5.565  0.00  0.00     0.197 C 
HETATM   28  O           1     -23.027 -13.131  -5.595  0.00  0.00    -0.646 OA
HETATM   29  O           1     -21.645 -11.826  -6.632  0.00  0.00    -0.646 OA
ENDBRANCH  19  27
ENDBRANCH   1  19
TORSDOF 9
ENDMDL
