MODEL 1
REMARK VINA RESULT:      -5.8      0.000      0.000
REMARK  9 active torsions:
REMARK  status: ('A' for Active; 'I' for Inactive)
REMARK    1  A    between atoms: C_1  and  C_16 
REMARK    2  A    between atoms: C_1  and  C_8 
REMARK    3  A    between atoms: C_4  and  C_8 
REMARK    4  A    between atoms: C_5  and  C_6 
REMARK    5  A    between atoms: C_5  and  C_14 
REMARK    6  A    between atoms: C_5  and  N_11 
REMARK       I    between atoms: C_6  and  N_7 
REMARK    7  A    between atoms: N_7  and  C_8 
REMARK       I    between atoms: N_9  and  C_13 
REMARK    8  A    between atoms: C_13  and  C_14 
REMARK    9  A    between atoms: S_15  and  C_16 
ROOT
HETATM    1  C           1     -34.211  -2.787 -11.572  0.00  0.00     0.249 C 
HETATM    2  N           1     -35.339  -2.244 -12.126  0.00  0.00    -0.345 N 
HETATM    3  O           1     -33.474  -2.098 -10.907  0.00  0.00    -0.271 OA
HETATM    4  H           1     -35.956  -2.821 -12.684  0.00  0.00     0.163 HD
ENDROOT
BRANCH   1   5
HETATM    5  C           1     -33.888  -4.244 -11.791  0.00  0.00     0.283 C 
BRANCH   5   6
HETATM    6  C           1     -34.018  -4.997 -10.473  0.00  0.00     0.145 C 
BRANCH   6   7
HETATM    7  C           1     -34.579  -6.374 -10.733  0.00  0.00     0.217 C 
HETATM    8  N           1     -34.911  -6.749 -12.006  0.00  0.00    -0.370 N 
HETATM    9  H           1     -35.287  -7.672 -12.181  0.00  0.00     0.159 HD
HETATM   10  H           1     -34.781  -6.103 -12.774  0.00  0.00     0.159 HD
HETATM   11  O           1     -34.734  -7.146  -9.815  0.00  0.00    -0.274 OA
ENDBRANCH   6   7
ENDBRANCH   5   6
BRANCH   5  12
HETATM   12  N           1     -32.484  -4.372 -12.302  0.00  0.00    -0.066 N 
HETATM   13  H           1     -32.340  -3.705 -13.094  0.00  0.00     0.275 HD
HETATM   14  H           1     -31.812  -4.150 -11.534  0.00  0.00     0.275 HD
HETATM   15  H           1     -32.322  -5.348 -12.637  0.00  0.00     0.275 HD
ENDBRANCH   5  12
ENDBRANCH   1   5
BRANCH   2  16
HETATM   16  C           1     -35.650  -0.844 -11.917  0.00  0.00     0.186 C 
BRANCH  16  17
HETATM   17  C           1     -36.302  -0.275 -13.170  0.00  0.00     0.046 C 
BRANCH  17  18
HETATM   18  C           1     -35.228   0.031 -14.206  0.00  0.00     0.076 C 
BRANCH  18  19
HETATM   19  S           1     -35.800  -0.497 -15.846  0.00  0.00    -0.173 SA
HETATM   20  C           1     -37.560  -0.160 -15.561  0.00  0.00     0.089 C 
ENDBRANCH  18  19
ENDBRANCH  17  18
ENDBRANCH  16  17
BRANCH  16  21
HETATM   21  C           1     -36.598  -0.710 -10.751  0.00  0.00     0.196 C 
HETATM   22  O           1     -37.797  -1.041 -10.880  0.00  0.00    -0.646 OA
HETATM   23  O           1     -36.187  -0.267  -9.657  0.00  0.00    -0.646 OA
ENDBRANCH  16  21
ENDBRANCH   2  16
TORSDOF 9
ENDMDL
MODEL 2
REMARK VINA RESULT:      -5.8      2.978      5.846
REMARK  9 active torsions:
REMARK  status: ('A' for Active; 'I' for Inactive)
REMARK    1  A    between atoms: C_1  and  C_16 
REMARK    2  A    between atoms: C_1  and  C_8 
REMARK    3  A    between atoms: C_4  and  C_8 
REMARK    4  A    between atoms: C_5  and  C_6 
REMARK    5  A    between atoms: C_5  and  C_14 
REMARK    6  A    between atoms: C_5  and  N_11 
REMARK       I    between atoms: C_6  and  N_7 
REMARK    7  A    between atoms: N_7  and  C_8 
REMARK       I    between atoms: N_9  and  C_13 
REMARK    8  A    between atoms: C_13  and  C_14 
REMARK    9  A    between atoms: S_15  and  C_16 
ROOT
HETATM    1  C           1     -35.875  -0.831 -12.949  0.00  0.00     0.249 C 
HETATM    2  N           1     -34.770  -1.638 -12.908  0.00  0.00    -0.345 N 
HETATM    3  O           1     -36.790  -1.021 -12.183  0.00  0.00    -0.271 OA
HETATM    4  H           1     -34.004  -1.479 -13.549  0.00  0.00     0.163 HD
ENDROOT
BRANCH   1   5
HETATM    5  C           1     -35.951   0.297 -13.949  0.00  0.00     0.283 C 
BRANCH   5   6
HETATM    6  C           1     -36.856  -0.109 -15.104  0.00  0.00     0.145 C 
BRANCH   6   7
HETATM    7  C           1     -36.078  -0.958 -16.080  0.00  0.00     0.217 C 
HETATM    8  N           1     -36.212  -0.750 -17.426  0.00  0.00    -0.370 N 
HETATM    9  H           1     -35.690  -1.319 -18.081  0.00  0.00     0.159 HD
HETATM   10  H           1     -36.832  -0.027 -17.768  0.00  0.00     0.159 HD
HETATM   11  O           1     -35.336  -1.820 -15.672  0.00  0.00    -0.274 OA
ENDBRANCH   6   7
ENDBRANCH   5   6
BRANCH   5  12
HETATM   12  N           1     -34.576   0.593 -14.471  0.00  0.00    -0.066 N 
HETATM   13  H           1     -33.934  -0.195 -14.227  0.00  0.00     0.275 HD
HETATM   14  H           1     -34.615   0.702 -15.509  0.00  0.00     0.275 HD
HETATM   15  H           1     -34.222   1.476 -14.039  0.00  0.00     0.275 HD
ENDBRANCH   5  12
ENDBRANCH   1   5
BRANCH   2  16
HETATM   16  C           1     -34.697  -2.721 -11.947  0.00  0.00     0.186 C 
BRANCH  16  17
HETATM   17  C           1     -34.362  -4.019 -12.671  0.00  0.00     0.046 C 
BRANCH  17  18
HETATM   18  C           1     -35.004  -5.189 -11.938  0.00  0.00     0.076 C 
BRANCH  18  19
HETATM   19  S           1     -33.742  -6.064 -10.971  0.00  0.00    -0.173 SA
HETATM   20  C           1     -34.899  -7.020  -9.950  0.00  0.00     0.089 C 
ENDBRANCH  18  19
ENDBRANCH  17  18
ENDBRANCH  16  17
BRANCH  16  21
HETATM   21  C           1     -33.623  -2.419 -10.932  0.00  0.00     0.196 C 
HETATM   22  O           1     -33.888  -1.714  -9.934  0.00  0.00    -0.646 OA
HETATM   23  O           1     -32.469  -2.870 -11.088  0.00  0.00    -0.646 OA
ENDBRANCH  16  21
ENDBRANCH   2  16
TORSDOF 9
ENDMDL
MODEL 3
REMARK VINA RESULT:      -5.8      3.623      5.402
REMARK  9 active torsions:
REMARK  status: ('A' for Active; 'I' for Inactive)
REMARK    1  A    between atoms: C_1  and  C_16 
REMARK    2  A    between atoms: C_1  and  C_8 
REMARK    3  A    between atoms: C_4  and  C_8 
REMARK    4  A    between atoms: C_5  and  C_6 
REMARK    5  A    between atoms: C_5  and  C_14 
REMARK    6  A    between atoms: C_5  and  N_11 
REMARK       I    between atoms: C_6  and  N_7 
REMARK    7  A    between atoms: N_7  and  C_8 
REMARK       I    between atoms: N_9  and  C_13 
REMARK    8  A    between atoms: C_13  and  C_14 
REMARK    9  A    between atoms: S_15  and  C_16 
ROOT
HETATM    1  C           1     -36.860  -0.228 -13.434  0.00  0.00     0.249 C 
HETATM    2  N           1     -36.220  -0.249 -12.225  0.00  0.00    -0.345 N 
HETATM    3  O           1     -38.004  -0.607 -13.518  0.00  0.00    -0.271 OA
HETATM    4  H           1     -35.262   0.068 -12.154  0.00  0.00     0.163 HD
ENDROOT
BRANCH   1   5
HETATM    5  C           1     -36.138   0.271 -14.662  0.00  0.00     0.283 C 
BRANCH   5   6
HETATM    6  C           1     -35.067  -0.734 -15.065  0.00  0.00     0.145 C 
BRANCH   6   7
HETATM    7  C           1     -35.398  -1.307 -16.421  0.00  0.00     0.217 C 
HETATM    8  N           1     -36.303  -0.675 -17.229  0.00  0.00    -0.370 N 
HETATM    9  H           1     -36.525  -1.058 -18.140  0.00  0.00     0.159 HD
HETATM   10  H           1     -36.752   0.177 -16.917  0.00  0.00     0.159 HD
HETATM   11  O           1     -34.862  -2.324 -16.795  0.00  0.00    -0.274 OA
ENDBRANCH   6   7
ENDBRANCH   5   6
BRANCH   5  12
HETATM   12  N           1     -35.496   1.592 -14.361  0.00  0.00    -0.066 N 
HETATM   13  H           1     -36.142   2.168 -13.775  0.00  0.00     0.275 HD
HETATM   14  H           1     -34.603   1.434 -13.842  0.00  0.00     0.275 HD
HETATM   15  H           1     -35.296   2.094 -15.255  0.00  0.00     0.275 HD
ENDBRANCH   5  12
ENDBRANCH   1   5
BRANCH   2  16
HETATM   16  C           1     -36.913  -0.728 -11.044  0.00  0.00     0.186 C 
BRANCH  16  17
HETATM   17  C           1     -36.105  -1.846 -10.400  0.00  0.00     0.046 C 
BRANCH  17  18
HETATM   18  C           1     -35.235  -2.517 -11.454  0.00  0.00     0.076 C 
BRANCH  18  19
HETATM   19  S           1     -33.502  -2.494 -10.914  0.00  0.00    -0.173 SA
HETATM   20  C           1     -32.974  -3.938 -11.878  0.00  0.00     0.089 C 
ENDBRANCH  18  19
ENDBRANCH  17  18
ENDBRANCH  16  17
BRANCH  16  21
HETATM   21  C           1     -37.076   0.407 -10.064  0.00  0.00     0.196 C 
HETATM   22  O           1     -36.212   0.598  -9.181  0.00  0.00    -0.646 OA
HETATM   23  O           1     -38.074   1.156 -10.133  0.00  0.00    -0.646 OA
ENDBRANCH  16  21
ENDBRANCH   2  16
TORSDOF 9
ENDMDL
MODEL 4
REMARK VINA RESULT:      -5.6      2.936      5.994
REMARK  9 active torsions:
REMARK  status: ('A' for Active; 'I' for Inactive)
REMARK    1  A    between atoms: C_1  and  C_16 
REMARK    2  A    between atoms: C_1  and  C_8 
REMARK    3  A    between atoms: C_4  and  C_8 
REMARK    4  A    between atoms: C_5  and  C_6 
REMARK    5  A    between atoms: C_5  and  C_14 
REMARK    6  A    between atoms: C_5  and  N_11 
REMARK       I    between atoms: C_6  and  N_7 
REMARK    7  A    between atoms: N_7  and  C_8 
REMARK       I    between atoms: N_9  and  C_13 
REMARK    8  A    between atoms: C_13  and  C_14 
REMARK    9  A    between atoms: S_15  and  C_16 
ROOT
HETATM    1  C           1     -35.598  -0.502 -13.274  0.00  0.00     0.249 C 
HETATM    2  N           1     -34.746  -0.732 -12.228  0.00  0.00    -0.345 N 
HETATM    3  O           1     -36.515  -1.260 -13.483  0.00  0.00    -0.271 OA
HETATM    4  H           1     -33.977  -0.097 -12.053  0.00  0.00     0.163 HD
ENDROOT
BRANCH   1   5
HETATM    5  C           1     -35.395   0.700 -14.164  0.00  0.00     0.283 C 
BRANCH   5   6
HETATM    6  C           1     -35.812   0.354 -15.588  0.00  0.00     0.145 C 
BRANCH   6   7
HETATM    7  C           1     -36.939   1.261 -16.017  0.00  0.00     0.217 C 
HETATM    8  N           1     -36.678   2.556 -16.372  0.00  0.00    -0.370 N 
HETATM    9  H           1     -37.433   3.165 -16.661  0.00  0.00     0.159 HD
HETATM   10  H           1     -35.729   2.907 -16.346  0.00  0.00     0.159 HD
HETATM   11  O           1     -38.072   0.842 -16.049  0.00  0.00    -0.274 OA
ENDBRANCH   6   7
ENDBRANCH   5   6
BRANCH   5  12
HETATM   12  N           1     -33.948   1.092 -14.149  0.00  0.00    -0.066 N 
HETATM   13  H           1     -33.475   0.650 -13.328  0.00  0.00     0.275 HD
HETATM   14  H           1     -33.490   0.767 -15.029  0.00  0.00     0.275 HD
HETATM   15  H           1     -33.869   2.131 -14.077  0.00  0.00     0.275 HD
ENDBRANCH   5  12
ENDBRANCH   1   5
BRANCH   2  16
HETATM   16  C           1     -34.940  -1.886 -11.373  0.00  0.00     0.186 C 
BRANCH  16  17
HETATM   17  C           1     -33.613  -2.275 -10.735  0.00  0.00     0.046 C 
BRANCH  17  18
HETATM   18  C           1     -33.057  -3.509 -11.432  0.00  0.00     0.076 C 
BRANCH  18  19
HETATM   19  S           1     -34.413  -4.426 -12.214  0.00  0.00    -0.173 SA
HETATM   20  C           1     -34.307  -5.889 -11.145  0.00  0.00     0.089 C 
ENDBRANCH  18  19
ENDBRANCH  17  18
ENDBRANCH  16  17
BRANCH  16  21
HETATM   21  C           1     -35.939  -1.546 -10.293  0.00  0.00     0.196 C 
HETATM   22  O           1     -37.040  -2.136 -10.254  0.00  0.00    -0.646 OA
HETATM   23  O           1     -35.666  -0.674  -9.441  0.00  0.00    -0.646 OA
ENDBRANCH  16  21
ENDBRANCH   2  16
TORSDOF 9
ENDMDL
MODEL 5
REMARK VINA RESULT:      -5.5     14.624     16.637
REMARK  9 active torsions:
REMARK  status: ('A' for Active; 'I' for Inactive)
REMARK    1  A    between atoms: C_1  and  C_16 
REMARK    2  A    between atoms: C_1  and  C_8 
REMARK    3  A    between atoms: C_4  and  C_8 
REMARK    4  A    between atoms: C_5  and  C_6 
REMARK    5  A    between atoms: C_5  and  C_14 
REMARK    6  A    between atoms: C_5  and  N_11 
REMARK       I    between atoms: C_6  and  N_7 
REMARK    7  A    between atoms: N_7  and  C_8 
REMARK       I    between atoms: N_9  and  C_13 
REMARK    8  A    between atoms: C_13  and  C_14 
REMARK    9  A    between atoms: S_15  and  C_16 
ROOT
HETATM    1  C           1     -21.183  -5.161  -7.194  0.00  0.00     0.249 C 
HETATM    2  N           1     -21.288  -6.471  -6.811  0.00  0.00    -0.345 N 
HETATM    3  O           1     -20.685  -4.352  -6.447  0.00  0.00    -0.271 OA
HETATM    4  H           1     -21.706  -7.148  -7.436  0.00  0.00     0.163 HD
ENDROOT
BRANCH   1   5
HETATM    5  C           1     -21.689  -4.726  -8.548  0.00  0.00     0.283 C 
BRANCH   5   6
HETATM    6  C           1     -20.510  -4.330  -9.427  0.00  0.00     0.145 C 
BRANCH   6   7
HETATM    7  C           1     -21.007  -3.986 -10.810  0.00  0.00     0.217 C 
HETATM    8  N           1     -20.359  -3.038 -11.554  0.00  0.00    -0.370 N 
HETATM    9  H           1     -20.691  -2.807 -12.482  0.00  0.00     0.159 HD
HETATM   10  H           1     -19.546  -2.567 -11.177  0.00  0.00     0.159 HD
HETATM   11  O           1     -21.976  -4.550 -11.261  0.00  0.00    -0.274 OA
ENDBRANCH   6   7
ENDBRANCH   5   6
BRANCH   5  12
HETATM   12  N           1     -22.606  -3.551  -8.384  0.00  0.00    -0.066 N 
HETATM   13  H           1     -22.516  -3.171  -7.414  0.00  0.00     0.275 HD
HETATM   14  H           1     -22.349  -2.810  -9.073  0.00  0.00     0.275 HD
HETATM   15  H           1     -23.592  -3.854  -8.548  0.00  0.00     0.275 HD
ENDBRANCH   5  12
ENDBRANCH   1   5
BRANCH   2  16
HETATM   16  C           1     -20.803  -6.889  -5.510  0.00  0.00     0.186 C 
BRANCH  16  17
HETATM   17  C           1     -21.935  -6.802  -4.495  0.00  0.00     0.046 C 
BRANCH  17  18
HETATM   18  C           1     -21.398  -6.248  -3.182  0.00  0.00     0.076 C 
BRANCH  18  19
HETATM   19  S           1     -21.172  -7.605  -1.998  0.00  0.00    -0.173 SA
HETATM   20  C           1     -22.383  -7.012  -0.783  0.00  0.00     0.089 C 
ENDBRANCH  18  19
ENDBRANCH  17  18
ENDBRANCH  16  17
BRANCH  16  21
HETATM   21  C           1     -20.309  -8.312  -5.594  0.00  0.00     0.196 C 
HETATM   22  O           1     -19.081  -8.546  -5.615  0.00  0.00    -0.646 OA
HETATM   23  O           1     -21.126  -9.256  -5.646  0.00  0.00    -0.646 OA
ENDBRANCH  16  21
ENDBRANCH   2  16
TORSDOF 9
ENDMDL
MODEL 6
REMARK VINA RESULT:      -5.4     14.161     16.596
REMARK  9 active torsions:
REMARK  status: ('A' for Active; 'I' for Inactive)
REMARK    1  A    between atoms: C_1  and  C_16 
REMARK    2  A    between atoms: C_1  and  C_8 
REMARK    3  A    between atoms: C_4  and  C_8 
REMARK    4  A    between atoms: C_5  and  C_6 
REMARK    5  A    between atoms: C_5  and  C_14 
REMARK    6  A    between atoms: C_5  and  N_11 
REMARK       I    between atoms: C_6  and  N_7 
REMARK    7  A    between atoms: N_7  and  C_8 
REMARK       I    between atoms: N_9  and  C_13 
REMARK    8  A    between atoms: C_13  and  C_14 
REMARK    9  A    between atoms: S_15  and  C_16 
ROOT
HETATM    1  C           1     -20.603  -4.805  -6.363  0.00  0.00     0.249 C 
HETATM    2  N           1     -21.344  -5.850  -5.881  0.00  0.00    -0.345 N 
HETATM    3  O           1     -19.578  -4.486  -5.808  0.00  0.00    -0.271 OA
HETATM    4  H           1     -22.203  -6.117  -6.345  0.00  0.00     0.163 HD
ENDROOT
BRANCH   1   5
HETATM    5  C           1     -21.064  -4.052  -7.586  0.00  0.00     0.283 C 
BRANCH   5   6
HETATM    6  C           1     -22.280  -4.748  -8.183  0.00  0.00     0.145 C 
BRANCH   6   7
HETATM    7  C           1     -23.007  -3.795  -9.099  0.00  0.00     0.217 C 
HETATM    8  N           1     -24.299  -3.436  -8.827  0.00  0.00    -0.370 N 
HETATM    9  H           1     -24.788  -2.795  -9.441  0.00  0.00     0.159 HD
HETATM   10  H           1     -24.768  -3.810  -8.012  0.00  0.00     0.159 HD
HETATM   11  O           1     -22.448  -3.347 -10.072  0.00  0.00    -0.274 OA
ENDBRANCH   6   7
ENDBRANCH   5   6
BRANCH   5  12
HETATM   12  N           1     -19.958  -4.022  -8.599  0.00  0.00    -0.066 N 
HETATM   13  H           1     -19.040  -4.154  -8.117  0.00  0.00     0.275 HD
HETATM   14  H           1     -20.100  -4.791  -9.292  0.00  0.00     0.275 HD
HETATM   15  H           1     -19.963  -3.102  -9.093  0.00  0.00     0.275 HD
ENDBRANCH   5  12
ENDBRANCH   1   5
BRANCH   2  16
HETATM   16  C           1     -20.902  -6.573  -4.705  0.00  0.00     0.186 C 
BRANCH  16  17
HETATM   17  C           1     -22.051  -6.679  -3.711  0.00  0.00     0.046 C 
BRANCH  17  18
HETATM   18  C           1     -21.630  -6.067  -2.382  0.00  0.00     0.076 C 
BRANCH  18  19
HETATM   19  S           1     -22.288  -7.070  -1.019  0.00  0.00    -0.173 SA
HETATM   20  C           1     -21.560  -8.642  -1.560  0.00  0.00     0.089 C 
ENDBRANCH  18  19
ENDBRANCH  17  18
ENDBRANCH  16  17
BRANCH  16  21
HETATM   21  C           1     -20.455  -7.957  -5.107  0.00  0.00     0.196 C 
HETATM   22  O           1     -19.381  -8.420  -4.665  0.00  0.00    -0.646 OA
HETATM   23  O           1     -21.156  -8.640  -5.884  0.00  0.00    -0.646 OA
ENDBRANCH  16  21
ENDBRANCH   2  16
TORSDOF 9
ENDMDL
MODEL 7
REMARK VINA RESULT:      -5.3      1.641      2.068
REMARK  9 active torsions:
REMARK  status: ('A' for Active; 'I' for Inactive)
REMARK    1  A    between atoms: C_1  and  C_16 
REMARK    2  A    between atoms: C_1  and  C_8 
REMARK    3  A    between atoms: C_4  and  C_8 
REMARK    4  A    between atoms: C_5  and  C_6 
REMARK    5  A    between atoms: C_5  and  C_14 
REMARK    6  A    between atoms: C_5  and  N_11 
REMARK       I    between atoms: C_6  and  N_7 
REMARK    7  A    between atoms: N_7  and  C_8 
REMARK       I    between atoms: N_9  and  C_13 
REMARK    8  A    between atoms: C_13  and  C_14 
REMARK    9  A    between atoms: S_15  and  C_16 
ROOT
HETATM    1  C           1     -35.186  -2.100 -11.217  0.00  0.00     0.249 C 
HETATM    2  N           1     -36.456  -1.598 -11.119  0.00  0.00    -0.345 N 
HETATM    3  O           1     -34.266  -1.365 -11.487  0.00  0.00    -0.271 OA
HETATM    4  H           1     -37.227  -2.214 -10.893  0.00  0.00     0.163 HD
ENDROOT
BRANCH   1   5
HETATM    5  C           1     -34.935  -3.570 -10.987  0.00  0.00     0.283 C 
BRANCH   5   6
HETATM    6  C           1     -33.468  -3.787 -10.641  0.00  0.00     0.145 C 
BRANCH   6   7
HETATM    7  C           1     -32.959  -5.017 -11.352  0.00  0.00     0.217 C 
HETATM    8  N           1     -32.019  -4.898 -12.339  0.00  0.00    -0.370 N 
HETATM    9  H           1     -31.677  -5.723 -12.815  0.00  0.00     0.159 HD
HETATM   10  H           1     -31.665  -3.984 -12.593  0.00  0.00     0.159 HD
HETATM   11  O           1     -33.381  -6.108 -11.048  0.00  0.00    -0.274 OA
ENDBRANCH   6   7
ENDBRANCH   5   6
BRANCH   5  12
HETATM   12  N           1     -35.273  -4.334 -12.231  0.00  0.00    -0.066 N 
HETATM   13  H           1     -34.392  -4.607 -12.723  0.00  0.00     0.275 HD
HETATM   14  H           1     -35.810  -5.194 -11.977  0.00  0.00     0.275 HD
HETATM   15  H           1     -35.852  -3.736 -12.862  0.00  0.00     0.275 HD
ENDBRANCH   5  12
ENDBRANCH   1   5
BRANCH   2  16
HETATM   16  C           1     -36.698  -0.186 -11.341  0.00  0.00     0.186 C 
BRANCH  16  17
HETATM   17  C           1     -37.880  -0.016 -12.286  0.00  0.00     0.046 C 
BRANCH  17  18
HETATM   18  C           1     -37.433  -0.304 -13.713  0.00  0.00     0.076 C 
BRANCH  18  19
HETATM   19  S           1     -35.838   0.502 -14.024  0.00  0.00    -0.173 SA
HETATM   20  C           1     -35.566  -0.219 -15.667  0.00  0.00     0.089 C 
ENDBRANCH  18  19
ENDBRANCH  17  18
ENDBRANCH  16  17
BRANCH  16  21
HETATM   21  C           1     -37.006   0.482 -10.023  0.00  0.00     0.196 C 
HETATM   22  O           1     -36.250   0.308  -9.043  0.00  0.00    -0.646 OA
HETATM   23  O           1     -38.018   1.207  -9.910  0.00  0.00    -0.646 OA
ENDBRANCH  16  21
ENDBRANCH   2  16
TORSDOF 9
ENDMDL
MODEL 8
REMARK VINA RESULT:      -5.2     14.682     17.025
REMARK  9 active torsions:
REMARK  status: ('A' for Active; 'I' for Inactive)
REMARK    1  A    between atoms: C_1  and  C_16 
REMARK    2  A    between atoms: C_1  and  C_8 
REMARK    3  A    between atoms: C_4  and  C_8 
REMARK    4  A    between atoms: C_5  and  C_6 
REMARK    5  A    between atoms: C_5  and  C_14 
REMARK    6  A    between atoms: C_5  and  N_11 
REMARK       I    between atoms: C_6  and  N_7 
REMARK    7  A    between atoms: N_7  and  C_8 
REMARK       I    between atoms: N_9  and  C_13 
REMARK    8  A    between atoms: C_13  and  C_14 
REMARK    9  A    between atoms: S_15  and  C_16 
ROOT
HETATM    1  C           1     -21.489  -5.802  -5.711  0.00  0.00     0.249 C 
HETATM    2  N           1     -20.895  -6.730  -4.899  0.00  0.00    -0.345 N 
HETATM    3  O           1     -22.681  -5.618  -5.647  0.00  0.00    -0.271 OA
HETATM    4  H           1     -19.896  -6.884  -4.953  0.00  0.00     0.163 HD
ENDROOT
BRANCH   1   5
HETATM    5  C           1     -20.654  -5.006  -6.685  0.00  0.00     0.283 C 
BRANCH   5   6
HETATM    6  C           1     -21.357  -3.693  -7.002  0.00  0.00     0.145 C 
BRANCH   6   7
HETATM    7  C           1     -22.259  -3.880  -8.198  0.00  0.00     0.217 C 
HETATM    8  N           1     -23.589  -4.142  -8.018  0.00  0.00    -0.370 N 
HETATM    9  H           1     -24.194  -4.267  -8.820  0.00  0.00     0.159 HD
HETATM   10  H           1     -23.970  -4.211  -7.083  0.00  0.00     0.159 HD
HETATM   11  O           1     -21.805  -3.796  -9.315  0.00  0.00    -0.274 OA
ENDBRANCH   6   7
ENDBRANCH   5   6
BRANCH   5  12
HETATM   12  N           1     -20.475  -5.795  -7.948  0.00  0.00    -0.066 N 
HETATM   13  H           1     -21.398  -6.178  -8.253  0.00  0.00     0.275 HD
HETATM   14  H           1     -20.092  -5.173  -8.695  0.00  0.00     0.275 HD
HETATM   15  H           1     -19.811  -6.582  -7.776  0.00  0.00     0.275 HD
ENDBRANCH   5  12
ENDBRANCH   1   5
BRANCH   2  16
HETATM   16  C           1     -21.696  -7.495  -3.964  0.00  0.00     0.186 C 
BRANCH  16  17
HETATM   17  C           1     -21.194  -8.932  -3.922  0.00  0.00     0.046 C 
BRANCH  17  18
HETATM   18  C           1     -19.952  -9.061  -4.793  0.00  0.00     0.076 C 
BRANCH  18  19
HETATM   19  S           1     -18.516  -9.440  -3.748  0.00  0.00    -0.173 SA
HETATM   20  C           1     -17.423  -9.968  -5.097  0.00  0.00     0.089 C 
ENDBRANCH  18  19
ENDBRANCH  17  18
ENDBRANCH  16  17
BRANCH  16  21
HETATM   21  C           1     -21.584  -6.882  -2.590  0.00  0.00     0.196 C 
HETATM   22  O           1     -22.304  -5.909  -2.280  0.00  0.00    -0.646 OA
HETATM   23  O           1     -20.769  -7.344  -1.763  0.00  0.00    -0.646 OA
ENDBRANCH  16  21
ENDBRANCH   2  16
TORSDOF 9
ENDMDL
MODEL 9
REMARK VINA RESULT:      -5.2     14.338     16.765
REMARK  9 active torsions:
REMARK  status: ('A' for Active; 'I' for Inactive)
REMARK    1  A    between atoms: C_1  and  C_16 
REMARK    2  A    between atoms: C_1  and  C_8 
REMARK    3  A    between atoms: C_4  and  C_8 
REMARK    4  A    between atoms: C_5  and  C_6 
REMARK    5  A    between atoms: C_5  and  C_14 
REMARK    6  A    between atoms: C_5  and  N_11 
REMARK       I    between atoms: C_6  and  N_7 
REMARK    7  A    between atoms: N_7  and  C_8 
REMARK       I    between atoms: N_9  and  C_13 
REMARK    8  A    between atoms: C_13  and  C_14 
REMARK    9  A    between atoms: S_15  and  C_16 
ROOT
HETATM    1  C           1     -21.772  -5.714  -5.728  0.00  0.00     0.249 C 
HETATM    2  N           1     -20.975  -6.543  -4.985  0.00  0.00    -0.345 N 
HETATM    3  O           1     -22.974  -5.775  -5.618  0.00  0.00    -0.271 OA
HETATM    4  H           1     -19.968  -6.492  -5.077  0.00  0.00     0.163 HD
ENDROOT
BRANCH   1   5
HETATM    5  C           1     -21.151  -4.724  -6.682  0.00  0.00     0.283 C 
BRANCH   5   6
HETATM    6  C           1     -21.473  -5.128  -8.115  0.00  0.00     0.145 C 
BRANCH   6   7
HETATM    7  C           1     -22.518  -4.196  -8.679  0.00  0.00     0.217 C 
HETATM    8  N           1     -23.727  -4.064  -8.053  0.00  0.00    -0.370 N 
HETATM    9  H           1     -24.428  -3.438  -8.430  0.00  0.00     0.159 HD
HETATM   10  H           1     -23.922  -4.592  -7.212  0.00  0.00     0.159 HD
HETATM   11  O           1     -22.285  -3.564  -9.683  0.00  0.00    -0.274 OA
ENDBRANCH   6   7
ENDBRANCH   5   6
BRANCH   5  12
HETATM   12  N           1     -19.664  -4.711  -6.489  0.00  0.00    -0.066 N 
HETATM   13  H           1     -19.445  -4.604  -5.473  0.00  0.00     0.275 HD
HETATM   14  H           1     -19.260  -5.608  -6.839  0.00  0.00     0.275 HD
HETATM   15  H           1     -19.251  -3.911  -7.019  0.00  0.00     0.275 HD
ENDBRANCH   5  12
ENDBRANCH   1   5
BRANCH   2  16
HETATM   16  C           1     -21.571  -7.495  -4.068  0.00  0.00     0.186 C 
BRANCH  16  17
HETATM   17  C           1     -20.814  -8.814  -4.143  0.00  0.00     0.046 C 
BRANCH  17  18
HETATM   18  C           1     -21.794  -9.971  -4.003  0.00  0.00     0.076 C 
BRANCH  18  19
HETATM   19  S           1     -21.325 -10.993  -2.579  0.00  0.00    -0.173 SA
HETATM   20  C           1     -22.666 -10.443  -1.487  0.00  0.00     0.089 C 
ENDBRANCH  18  19
ENDBRANCH  17  18
ENDBRANCH  16  17
BRANCH  16  21
HETATM   21  C           1     -21.497  -6.950  -2.663  0.00  0.00     0.196 C 
HETATM   22  O           1     -20.663  -7.414  -1.857  0.00  0.00    -0.646 OA
HETATM   23  O           1     -22.271  -6.036  -2.305  0.00  0.00    -0.646 OA
ENDBRANCH  16  21
ENDBRANCH   2  16
TORSDOF 9
ENDMDL
