MODEL 1
REMARK VINA RESULT:      -6.4      0.000      0.000
REMARK  5 active torsions:
REMARK  status: ('A' for Active; 'I' for Inactive)
REMARK    1  A    between atoms: C_2  and  C_24 
REMARK    2  A    between atoms: C_5  and  C_6 
REMARK    3  A    between atoms: C_6  and  C_20 
REMARK    4  A    between atoms: C_6  and  N_23 
REMARK    5  A    between atoms: O_18  and  C_20 
REMARK       I    between atoms: N_23  and  C_24 
ROOT
HETATM    1  C           1     -35.272  -1.289 -11.272  0.00  0.00     0.274 C 
HETATM    2  C           1     -33.395  -4.248 -11.866  0.00  0.00     0.027 C 
HETATM    3  C           1     -34.028  -3.034 -12.533  0.00  0.00     0.004 C 
HETATM    4  C           1     -34.099  -4.525 -10.543  0.00  0.00     0.229 C 
HETATM    5  H           1     -37.005  -1.990 -10.327  0.00  0.00     0.275 HD
HETATM    6  H           1     -36.152  -3.188 -11.195  0.00  0.00     0.275 HD
HETATM    7  C           1     -33.889  -1.822 -11.622  0.00  0.00     0.042 C 
HETATM    8  N           1     -36.056  -2.357 -10.568  0.00  0.00    -0.067 N 
HETATM    9  H           1     -35.986  -3.962 -11.253  0.00  0.00     0.274 HD
HETATM   10  H           1     -35.558  -2.636  -9.693  0.00  0.00     0.275 HD
HETATM   11  H           1     -35.647  -5.626 -11.423  0.00  0.00     0.274 HD
HETATM   12  H           1     -36.034  -4.986  -9.890  0.00  0.00     0.274 HD
HETATM   13  N           1     -35.552  -4.795 -10.796  0.00  0.00    -0.079 N 
ENDROOT
BRANCH   1  14
HETATM   14  C           1     -35.992  -0.886 -12.535  0.00  0.00     0.249 C 
HETATM   15  O           1     -37.187  -1.042 -12.625  0.00  0.00    -0.271 OA
HETATM   16  N           1     -35.292  -0.346 -13.580  0.00  0.00    -0.343 N 
HETATM   17  H           1     -34.291  -0.217 -13.505  0.00  0.00     0.163 HD
BRANCH  16  18
HETATM   18  C           1     -35.985   0.040 -14.794  0.00  0.00     0.209 C 
BRANCH  18  19
HETATM   19  C           1     -35.692  -0.965 -15.881  0.00  0.00     0.198 C 
HETATM   20  O           1     -34.975  -1.958 -15.637  0.00  0.00    -0.646 OA
HETATM   21  O           1     -36.167  -0.803 -17.026  0.00  0.00    -0.646 OA
ENDBRANCH  18  19
BRANCH  18  22
HETATM   22  C           1     -35.507   1.418 -15.234  0.00  0.00     0.200 C 
BRANCH  22  23
HETATM   23  O           1     -36.436   1.974 -16.125  0.00  0.00    -0.398 OA
HETATM   24  H           1     -35.983   2.640 -16.613  0.00  0.00     0.209 HD
ENDBRANCH  22  23
ENDBRANCH  18  22
ENDBRANCH  16  18
ENDBRANCH   1  14
TORSDOF 5
ENDMDL
MODEL 2
REMARK VINA RESULT:      -6.1      1.294      2.059
REMARK  5 active torsions:
REMARK  status: ('A' for Active; 'I' for Inactive)
REMARK    1  A    between atoms: C_2  and  C_24 
REMARK    2  A    between atoms: C_5  and  C_6 
REMARK    3  A    between atoms: C_6  and  C_20 
REMARK    4  A    between atoms: C_6  and  N_23 
REMARK    5  A    between atoms: O_18  and  C_20 
REMARK       I    between atoms: N_23  and  C_24 
ROOT
HETATM    1  C           1     -34.961  -1.991 -10.886  0.00  0.00     0.274 C 
HETATM    2  C           1     -32.708  -4.633 -11.646  0.00  0.00     0.027 C 
HETATM    3  C           1     -33.091  -3.201 -11.994  0.00  0.00     0.004 C 
HETATM    4  C           1     -33.908  -5.345 -11.033  0.00  0.00     0.229 C 
HETATM    5  H           1     -36.845  -2.843 -11.218  0.00  0.00     0.275 HD
HETATM    6  H           1     -35.561  -3.673 -11.980  0.00  0.00     0.275 HD
HETATM    7  C           1     -33.524  -2.469 -10.730  0.00  0.00     0.042 C 
HETATM    8  N           1     -35.859  -3.172 -11.112  0.00  0.00    -0.067 N 
HETATM    9  H           1     -35.304  -4.372 -12.254  0.00  0.00     0.274 HD
HETATM   10  H           1     -35.793  -3.821 -10.296  0.00  0.00     0.275 HD
HETATM   11  H           1     -34.743  -5.856 -12.884  0.00  0.00     0.274 HD
HETATM   12  H           1     -35.863  -5.844 -11.596  0.00  0.00     0.274 HD
HETATM   13  N           1     -35.041  -5.355 -12.016  0.00  0.00    -0.079 N 
ENDROOT
BRANCH   1  14
HETATM   14  C           1     -35.056  -1.055 -12.065  0.00  0.00     0.249 C 
HETATM   15  O           1     -34.646   0.078 -11.972  0.00  0.00    -0.271 OA
HETATM   16  N           1     -35.608  -1.488 -13.240  0.00  0.00    -0.343 N 
HETATM   17  H           1     -35.953  -2.436 -13.319  0.00  0.00     0.163 HD
BRANCH  16  18
HETATM   18  C           1     -35.699  -0.588 -14.373  0.00  0.00     0.209 C 
BRANCH  18  19
HETATM   19  C           1     -37.133  -0.154 -14.557  0.00  0.00     0.198 C 
HETATM   20  O           1     -37.394   0.872 -15.221  0.00  0.00    -0.646 OA
HETATM   21  O           1     -38.058  -0.821 -14.046  0.00  0.00    -0.646 OA
ENDBRANCH  18  19
BRANCH  18  22
HETATM   22  C           1     -35.219  -1.303 -15.630  0.00  0.00     0.200 C 
BRANCH  22  23
HETATM   23  O           1     -36.138  -1.093 -16.668  0.00  0.00    -0.398 OA
HETATM   24  H           1     -35.726  -0.512 -17.285  0.00  0.00     0.209 HD
ENDBRANCH  22  23
ENDBRANCH  18  22
ENDBRANCH  16  18
ENDBRANCH   1  14
TORSDOF 5
ENDMDL
MODEL 3
REMARK VINA RESULT:      -6.1      9.532     11.199
REMARK  5 active torsions:
REMARK  status: ('A' for Active; 'I' for Inactive)
REMARK    1  A    between atoms: C_2  and  C_24 
REMARK    2  A    between atoms: C_5  and  C_6 
REMARK    3  A    between atoms: C_6  and  C_20 
REMARK    4  A    between atoms: C_6  and  N_23 
REMARK    5  A    between atoms: O_18  and  C_20 
REMARK       I    between atoms: N_23  and  C_24 
ROOT
HETATM    1  C           1     -28.927  -6.260 -17.909  0.00  0.00     0.274 C 
HETATM    2  C           1     -30.759  -3.234 -17.564  0.00  0.00     0.027 C 
HETATM    3  C           1     -29.360  -3.821 -17.685  0.00  0.00     0.004 C 
HETATM    4  C           1     -31.711  -4.297 -17.028  0.00  0.00     0.229 C 
HETATM    5  H           1     -29.531  -7.390 -16.252  0.00  0.00     0.275 HD
HETATM    6  H           1     -29.827  -5.715 -16.098  0.00  0.00     0.275 HD
HETATM    7  C           1     -29.386  -5.006 -18.641  0.00  0.00     0.042 C 
HETATM    8  N           1     -29.847  -6.529 -16.753  0.00  0.00    -0.067 N 
HETATM    9  H           1     -30.283  -5.158 -15.762  0.00  0.00     0.274 HD
HETATM   10  H           1     -30.820  -6.667 -17.107  0.00  0.00     0.275 HD
HETATM   11  H           1     -31.223  -3.940 -15.023  0.00  0.00     0.274 HD
HETATM   12  H           1     -31.895  -5.482 -15.311  0.00  0.00     0.274 HD
HETATM   13  N           1     -31.243  -4.754 -15.679  0.00  0.00    -0.079 N 
ENDROOT
BRANCH   1  14
HETATM   14  C           1     -27.522  -6.060 -17.396  0.00  0.00     0.249 C 
HETATM   15  O           1     -27.327  -5.370 -16.424  0.00  0.00    -0.271 OA
HETATM   16  N           1     -26.469  -6.659 -18.034  0.00  0.00    -0.343 N 
HETATM   17  H           1     -26.633  -7.236 -18.849  0.00  0.00     0.163 HD
BRANCH  16  18
HETATM   18  C           1     -25.120  -6.465 -17.541  0.00  0.00     0.209 C 
BRANCH  18  19
HETATM   19  C           1     -24.132  -6.958 -18.571  0.00  0.00     0.198 C 
HETATM   20  O           1     -22.913  -6.730 -18.426  0.00  0.00    -0.646 OA
HETATM   21  O           1     -24.535  -7.595 -19.569  0.00  0.00    -0.646 OA
ENDBRANCH  18  19
BRANCH  18  22
HETATM   22  C           1     -24.936  -7.247 -16.247  0.00  0.00     0.200 C 
BRANCH  22  23
HETATM   23  O           1     -24.202  -8.414 -16.504  0.00  0.00    -0.398 OA
HETATM   24  H           1     -24.079  -8.848 -15.677  0.00  0.00     0.209 HD
ENDBRANCH  22  23
ENDBRANCH  18  22
ENDBRANCH  16  18
ENDBRANCH   1  14
TORSDOF 5
ENDMDL
MODEL 4
REMARK VINA RESULT:      -6.0     13.644     15.146
REMARK  5 active torsions:
REMARK  status: ('A' for Active; 'I' for Inactive)
REMARK    1  A    between atoms: C_2  and  C_24 
REMARK    2  A    between atoms: C_5  and  C_6 
REMARK    3  A    between atoms: C_6  and  C_20 
REMARK    4  A    between atoms: C_6  and  N_23 
REMARK    5  A    between atoms: O_18  and  C_20 
REMARK       I    between atoms: N_23  and  C_24 
ROOT
HETATM    1  C           1     -20.943  -4.050  -6.940  0.00  0.00     0.274 C 
HETATM    2  C           1     -20.593  -6.972  -4.947  0.00  0.00     0.027 C 
HETATM    3  C           1     -20.336  -6.383  -6.327  0.00  0.00     0.004 C 
HETATM    4  C           1     -21.721  -6.204  -4.269  0.00  0.00     0.229 C 
HETATM    5  H           1     -23.000  -3.659  -6.877  0.00  0.00     0.275 HD
HETATM    6  H           1     -22.583  -5.261  -6.458  0.00  0.00     0.275 HD
HETATM    7  C           1     -19.941  -4.919  -6.191  0.00  0.00     0.042 C 
HETATM    8  N           1     -22.313  -4.256  -6.363  0.00  0.00    -0.067 N 
HETATM    9  H           1     -22.791  -5.905  -6.044  0.00  0.00     0.274 HD
HETATM   10  H           1     -22.309  -3.990  -5.352  0.00  0.00     0.275 HD
HETATM   11  H           1     -23.237  -7.315  -5.192  0.00  0.00     0.274 HD
HETATM   12  H           1     -23.740  -5.784  -4.632  0.00  0.00     0.274 HD
HETATM   13  N           1     -22.967  -6.310  -5.096  0.00  0.00    -0.079 N 
ENDROOT
BRANCH   1  14
HETATM   14  C           1     -20.950  -4.433  -8.400  0.00  0.00     0.249 C 
HETATM   15  O           1     -19.973  -4.944  -8.895  0.00  0.00    -0.271 OA
HETATM   16  N           1     -22.063  -4.202  -9.162  0.00  0.00    -0.343 N 
HETATM   17  H           1     -22.881  -3.774  -8.748  0.00  0.00     0.163 HD
BRANCH  16  18
HETATM   18  C           1     -22.069  -4.571 -10.565  0.00  0.00     0.209 C 
BRANCH  18  19
HETATM   19  C           1     -21.366  -3.504 -11.368  0.00  0.00     0.198 C 
HETATM   20  O           1     -20.197  -3.692 -11.767  0.00  0.00    -0.646 OA
HETATM   21  O           1     -21.954  -2.433 -11.634  0.00  0.00    -0.646 OA
ENDBRANCH  18  19
BRANCH  18  22
HETATM   22  C           1     -23.508  -4.705 -11.047  0.00  0.00     0.200 C 
BRANCH  22  23
HETATM   23  O           1     -23.529  -4.758 -12.448  0.00  0.00    -0.398 OA
HETATM   24  H           1     -23.163  -5.590 -12.696  0.00  0.00     0.209 HD
ENDBRANCH  22  23
ENDBRANCH  18  22
ENDBRANCH  16  18
ENDBRANCH   1  14
TORSDOF 5
ENDMDL
MODEL 5
REMARK VINA RESULT:      -5.9     10.496     11.935
REMARK  5 active torsions:
REMARK  status: ('A' for Active; 'I' for Inactive)
REMARK    1  A    between atoms: C_2  and  C_24 
REMARK    2  A    between atoms: C_5  and  C_6 
REMARK    3  A    between atoms: C_6  and  C_20 
REMARK    4  A    between atoms: C_6  and  N_23 
REMARK    5  A    between atoms: O_18  and  C_20 
REMARK       I    between atoms: N_23  and  C_24 
ROOT
HETATM    1  C           1     -28.676  -6.298 -18.888  0.00  0.00     0.274 C 
HETATM    2  C           1     -28.369  -4.734 -15.712  0.00  0.00     0.027 C 
HETATM    3  C           1     -27.792  -4.789 -17.119  0.00  0.00     0.004 C 
HETATM    4  C           1     -29.080  -6.045 -15.402  0.00  0.00     0.229 C 
HETATM    5  H           1     -28.471  -8.336 -18.452  0.00  0.00     0.275 HD
HETATM    6  H           1     -27.863  -7.300 -17.238  0.00  0.00     0.275 HD
HETATM    7  C           1     -28.917  -5.004 -18.122  0.00  0.00     0.042 C 
HETATM    8  N           1     -28.637  -7.448 -17.926  0.00  0.00    -0.067 N 
HETATM    9  H           1     -27.708  -7.218 -16.464  0.00  0.00     0.274 HD
HETATM   10  H           1     -29.548  -7.508 -17.418  0.00  0.00     0.275 HD
HETATM   11  H           1     -27.330  -7.031 -14.810  0.00  0.00     0.274 HD
HETATM   12  H           1     -28.591  -8.079 -15.285  0.00  0.00     0.274 HD
HETATM   13  N           1     -28.104  -7.180 -15.498  0.00  0.00    -0.079 N 
ENDROOT
BRANCH   1  14
HETATM   14  C           1     -27.360  -6.211 -19.622  0.00  0.00     0.249 C 
HETATM   15  O           1     -27.247  -5.480 -20.577  0.00  0.00    -0.271 OA
HETATM   16  N           1     -26.294  -6.963 -19.205  0.00  0.00    -0.343 N 
HETATM   17  H           1     -26.388  -7.576 -18.406  0.00  0.00     0.163 HD
BRANCH  16  18
HETATM   18  C           1     -25.030  -6.879 -19.911  0.00  0.00     0.209 C 
BRANCH  18  19
HETATM   19  C           1     -24.971  -7.954 -20.968  0.00  0.00     0.198 C 
HETATM   20  O           1     -26.026  -8.484 -21.378  0.00  0.00    -0.646 OA
HETATM   21  O           1     -23.868  -8.315 -21.433  0.00  0.00    -0.646 OA
ENDBRANCH  18  19
BRANCH  18  22
HETATM   22  C           1     -23.885  -7.074 -18.924  0.00  0.00     0.200 C 
BRANCH  22  23
HETATM   23  O           1     -24.272  -6.609 -17.660  0.00  0.00    -0.398 OA
HETATM   24  H           1     -24.561  -5.719 -17.772  0.00  0.00     0.209 HD
ENDBRANCH  22  23
ENDBRANCH  18  22
ENDBRANCH  16  18
ENDBRANCH   1  14
TORSDOF 5
ENDMDL
MODEL 6
REMARK VINA RESULT:      -5.9      9.609     11.313
REMARK  5 active torsions:
REMARK  status: ('A' for Active; 'I' for Inactive)
REMARK    1  A    between atoms: C_2  and  C_24 
REMARK    2  A    between atoms: C_5  and  C_6 
REMARK    3  A    between atoms: C_6  and  C_20 
REMARK    4  A    between atoms: C_6  and  N_23 
REMARK    5  A    between atoms: O_18  and  C_20 
REMARK       I    between atoms: N_23  and  C_24 
ROOT
HETATM    1  C           1     -28.405  -5.345 -18.595  0.00  0.00     0.274 C 
HETATM    2  C           1     -31.191  -7.132 -17.300  0.00  0.00     0.027 C 
HETATM    3  C           1     -29.941  -6.352 -16.917  0.00  0.00     0.004 C 
HETATM    4  C           1     -31.038  -7.677 -18.714  0.00  0.00     0.229 C 
HETATM    5  H           1     -27.462  -6.743 -19.837  0.00  0.00     0.275 HD
HETATM    6  H           1     -28.515  -7.435 -18.683  0.00  0.00     0.275 HD
HETATM    7  C           1     -29.746  -5.195 -17.888  0.00  0.00     0.042 C 
HETATM    8  N           1     -28.382  -6.641 -19.351  0.00  0.00    -0.067 N 
HETATM    9  H           1     -28.987  -8.049 -18.513  0.00  0.00     0.274 HD
HETATM   10  H           1     -29.152  -6.648 -20.057  0.00  0.00     0.275 HD
HETATM   11  H           1     -29.979  -9.378 -18.107  0.00  0.00     0.274 HD
HETATM   12  H           1     -29.740  -8.959 -19.744  0.00  0.00     0.274 HD
HETATM   13  N           1     -29.846  -8.585 -18.774  0.00  0.00    -0.079 N 
ENDROOT
BRANCH   1  14
HETATM   14  C           1     -27.293  -5.337 -17.576  0.00  0.00     0.249 C 
HETATM   15  O           1     -27.191  -4.416 -16.801  0.00  0.00    -0.271 OA
HETATM   16  N           1     -26.400  -6.373 -17.529  0.00  0.00    -0.343 N 
HETATM   17  H           1     -26.485  -7.145 -18.179  0.00  0.00     0.163 HD
BRANCH  16  18
HETATM   18  C           1     -25.332  -6.365 -16.549  0.00  0.00     0.209 C 
BRANCH  18  19
HETATM   19  C           1     -24.255  -7.334 -16.970  0.00  0.00     0.198 C 
HETATM   20  O           1     -23.570  -7.103 -17.990  0.00  0.00    -0.646 OA
HETATM   21  O           1     -24.048  -8.369 -16.300  0.00  0.00    -0.646 OA
ENDBRANCH  18  19
BRANCH  18  22
HETATM   22  C           1     -25.886  -6.779 -15.192  0.00  0.00     0.200 C 
BRANCH  22  23
HETATM   23  O           1     -26.923  -7.705 -15.372  0.00  0.00    -0.398 OA
HETATM   24  H           1     -27.700  -7.321 -15.003  0.00  0.00     0.209 HD
ENDBRANCH  22  23
ENDBRANCH  18  22
ENDBRANCH  16  18
ENDBRANCH   1  14
TORSDOF 5
ENDMDL
MODEL 7
REMARK VINA RESULT:      -5.7      9.526     11.212
REMARK  5 active torsions:
REMARK  status: ('A' for Active; 'I' for Inactive)
REMARK    1  A    between atoms: C_2  and  C_24 
REMARK    2  A    between atoms: C_5  and  C_6 
REMARK    3  A    between atoms: C_6  and  C_20 
REMARK    4  A    between atoms: C_6  and  N_23 
REMARK    5  A    between atoms: O_18  and  C_20 
REMARK       I    between atoms: N_23  and  C_24 
ROOT
HETATM    1  C           1     -28.210  -6.470 -15.791  0.00  0.00     0.274 C 
HETATM    2  C           1     -30.857  -7.034 -18.093  0.00  0.00     0.027 C 
HETATM    3  C           1     -29.343  -6.997 -17.941  0.00  0.00     0.004 C 
HETATM    4  C           1     -31.498  -6.180 -17.007  0.00  0.00     0.229 C 
HETATM    5  H           1     -28.582  -4.535 -15.081  0.00  0.00     0.275 HD
HETATM    6  H           1     -29.359  -4.896 -16.558  0.00  0.00     0.275 HD
HETATM    7  C           1     -28.956  -7.543 -16.573  0.00  0.00     0.042 C 
HETATM    8  N           1     -29.094  -5.270 -15.618  0.00  0.00    -0.067 N 
HETATM    9  H           1     -29.979  -4.739 -17.028  0.00  0.00     0.274 HD
HETATM   10  H           1     -29.958  -5.546 -15.097  0.00  0.00     0.275 HD
HETATM   11  H           1     -31.283  -4.390 -18.073  0.00  0.00     0.274 HD
HETATM   12  H           1     -31.458  -4.179 -16.389  0.00  0.00     0.274 HD
HETATM   13  N           1     -31.019  -4.765 -17.133  0.00  0.00    -0.079 N 
ENDROOT
BRANCH   1  14
HETATM   14  C           1     -26.964  -6.072 -16.543  0.00  0.00     0.249 C 
HETATM   15  O           1     -26.657  -4.906 -16.628  0.00  0.00    -0.271 OA
HETATM   16  N           1     -26.182  -7.030 -17.129  0.00  0.00    -0.343 N 
HETATM   17  H           1     -26.440  -8.007 -17.059  0.00  0.00     0.163 HD
BRANCH  16  18
HETATM   18  C           1     -24.985  -6.647 -17.852  0.00  0.00     0.209 C 
BRANCH  18  19
HETATM   19  C           1     -25.179  -6.914 -19.325  0.00  0.00     0.198 C 
HETATM   20  O           1     -24.272  -7.465 -19.984  0.00  0.00    -0.646 OA
HETATM   21  O           1     -26.247  -6.584 -19.885  0.00  0.00    -0.646 OA
ENDBRANCH  18  19
BRANCH  18  22
HETATM   22  C           1     -23.802  -7.458 -17.340  0.00  0.00     0.200 C 
BRANCH  22  23
HETATM   23  O           1     -24.228  -8.309 -16.311  0.00  0.00    -0.398 OA
HETATM   24  H           1     -25.063  -7.987 -16.017  0.00  0.00     0.209 HD
ENDBRANCH  22  23
ENDBRANCH  18  22
ENDBRANCH  16  18
ENDBRANCH   1  14
TORSDOF 5
ENDMDL
MODEL 8
REMARK VINA RESULT:      -5.6      9.129     10.787
REMARK  5 active torsions:
REMARK  status: ('A' for Active; 'I' for Inactive)
REMARK    1  A    between atoms: C_2  and  C_24 
REMARK    2  A    between atoms: C_5  and  C_6 
REMARK    3  A    between atoms: C_6  and  C_20 
REMARK    4  A    between atoms: C_6  and  N_23 
REMARK    5  A    between atoms: O_18  and  C_20 
REMARK       I    between atoms: N_23  and  C_24 
ROOT
HETATM    1  C           1     -28.392  -5.064 -15.967  0.00  0.00     0.274 C 
HETATM    2  C           1     -31.756  -5.157 -17.112  0.00  0.00     0.027 C 
HETATM    3  C           1     -30.484  -5.978 -16.955  0.00  0.00     0.004 C 
HETATM    4  C           1     -31.402  -3.675 -17.146  0.00  0.00     0.229 C 
HETATM    5  H           1     -27.545  -3.494 -17.065  0.00  0.00     0.275 HD
HETATM    6  H           1     -28.980  -4.123 -17.744  0.00  0.00     0.275 HD
HETATM    7  C           1     -29.786  -5.594 -15.657  0.00  0.00     0.042 C 
HETATM    8  N           1     -28.502  -3.858 -16.853  0.00  0.00    -0.067 N 
HETATM    9  H           1     -29.614  -3.968 -18.195  0.00  0.00     0.274 HD
HETATM   10  H           1     -29.056  -3.117 -16.367  0.00  0.00     0.275 HD
HETATM   11  H           1     -30.966  -3.670 -19.194  0.00  0.00     0.274 HD
HETATM   12  H           1     -30.246  -2.389 -18.327  0.00  0.00     0.274 HD
HETATM   13  N           1     -30.488  -3.404 -18.303  0.00  0.00    -0.079 N 
ENDROOT
BRANCH   1  14
HETATM   14  C           1     -27.591  -6.132 -16.670  0.00  0.00     0.249 C 
HETATM   15  O           1     -27.509  -7.238 -16.191  0.00  0.00    -0.271 OA
HETATM   16  N           1     -26.958  -5.848 -17.849  0.00  0.00    -0.343 N 
HETATM   17  H           1     -27.026  -4.921 -18.250  0.00  0.00     0.163 HD
BRANCH  16  18
HETATM   18  C           1     -26.188  -6.875 -18.524  0.00  0.00     0.209 C 
BRANCH  18  19
HETATM   19  C           1     -24.733  -6.745 -18.144  0.00  0.00     0.198 C 
HETATM   20  O           1     -23.867  -6.596 -19.033  0.00  0.00    -0.646 OA
HETATM   21  O           1     -24.395  -6.786 -16.942  0.00  0.00    -0.646 OA
ENDBRANCH  18  19
BRANCH  18  22
HETATM   22  C           1     -26.336  -6.712 -20.031  0.00  0.00     0.200 C 
BRANCH  22  23
HETATM   23  O           1     -26.062  -7.933 -20.664  0.00  0.00    -0.398 OA
HETATM   24  H           1     -25.528  -8.434 -20.072  0.00  0.00     0.209 HD
ENDBRANCH  22  23
ENDBRANCH  18  22
ENDBRANCH  16  18
ENDBRANCH   1  14
TORSDOF 5
ENDMDL
MODEL 9
REMARK VINA RESULT:      -5.5     15.289     17.344
REMARK  5 active torsions:
REMARK  status: ('A' for Active; 'I' for Inactive)
REMARK    1  A    between atoms: C_2  and  C_24 
REMARK    2  A    between atoms: C_5  and  C_6 
REMARK    3  A    between atoms: C_6  and  C_20 
REMARK    4  A    between atoms: C_6  and  N_23 
REMARK    5  A    between atoms: O_18  and  C_20 
REMARK       I    between atoms: N_23  and  C_24 
ROOT
HETATM    1  C           1     -20.404  -4.327  -7.170  0.00  0.00     0.274 C 
HETATM    2  C           1     -22.672  -3.678  -9.828  0.00  0.00     0.027 C 
HETATM    3  C           1     -22.492  -4.431  -8.517  0.00  0.00     0.004 C 
HETATM    4  C           1     -21.307  -3.386 -10.438  0.00  0.00     0.229 C 
HETATM    5  H           1     -18.720  -5.107  -8.142  0.00  0.00     0.275 HD
HETATM    6  H           1     -20.155  -5.180  -9.067  0.00  0.00     0.275 HD
HETATM    7  C           1     -21.677  -3.582  -7.551  0.00  0.00     0.042 C 
HETATM    8  N           1     -19.594  -4.596  -8.405  0.00  0.00    -0.067 N 
HETATM    9  H           1     -20.463  -5.192  -9.798  0.00  0.00     0.274 HD
HETATM   10  H           1     -19.345  -3.691  -8.863  0.00  0.00     0.275 HD
HETATM   11  H           1     -21.148  -5.259 -11.360  0.00  0.00     0.274 HD
HETATM   12  H           1     -19.652  -4.476 -11.116  0.00  0.00     0.274 HD
HETATM   13  N           1     -20.587  -4.676 -10.698  0.00  0.00    -0.079 N 
ENDROOT
BRANCH   1  14
HETATM   14  C           1     -20.763  -5.635  -6.509  0.00  0.00     0.249 C 
HETATM   15  O           1     -20.944  -6.622  -7.182  0.00  0.00    -0.271 OA
HETATM   16  N           1     -20.884  -5.702  -5.147  0.00  0.00    -0.343 N 
HETATM   17  H           1     -20.734  -4.875  -4.583  0.00  0.00     0.163 HD
BRANCH  16  18
HETATM   18  C           1     -21.229  -6.960  -4.513  0.00  0.00     0.209 C 
BRANCH  18  19
HETATM   19  C           1     -21.541  -6.719  -3.056  0.00  0.00     0.198 C 
HETATM   20  O           1     -22.472  -5.951  -2.735  0.00  0.00    -0.646 OA
HETATM   21  O           1     -20.866  -7.288  -2.170  0.00  0.00    -0.646 OA
ENDBRANCH  18  19
BRANCH  18  22
HETATM   22  C           1     -20.056  -7.925  -4.629  0.00  0.00     0.200 C 
BRANCH  22  23
HETATM   23  O           1     -20.386  -8.959  -5.516  0.00  0.00    -0.398 OA
HETATM   24  H           1     -20.815  -9.627  -5.010  0.00  0.00     0.209 HD
ENDBRANCH  22  23
ENDBRANCH  18  22
ENDBRANCH  16  18
ENDBRANCH   1  14
TORSDOF 5
ENDMDL
