MODEL 1
REMARK VINA RESULT:      -5.9      0.000      0.000
REMARK  9 active torsions:
REMARK  status: ('A' for Active; 'I' for Inactive)
REMARK    1  A    between atoms: N_1  and  C_19 
REMARK       I    between atoms: N_1  and  C_2 
REMARK    2  A    between atoms: C_2  and  C_3 
REMARK    3  A    between atoms: C_3  and  C_4 
REMARK    4  A    between atoms: C_3  and  N_13 
REMARK    5  A    between atoms: C_4  and  C_5 
REMARK    6  A    between atoms: C_5  and  C_8 
REMARK    7  A    between atoms: C_18  and  C_19 
REMARK    8  A    between atoms: C_19  and  C_20 
REMARK    9  A    between atoms: C_20  and  Se_21 
ROOT
HETATM    1  N           1     -35.280  -0.847 -12.642  0.00  0.00    -0.345 N 
HETATM    2  C           1     -34.551  -2.006 -12.611  0.00  0.00     0.249 C 
HETATM    3  O           1     -34.656  -2.810 -13.506  0.00  0.00    -0.271 OA
HETATM    4  H           1     -35.191  -0.173 -11.893  0.00  0.00     0.163 HD
ENDROOT
BRANCH   2   5
HETATM    5  C           1     -33.616  -2.278 -11.458  0.00  0.00     0.275 C 
BRANCH   5   6
HETATM    6  C           1     -33.178  -3.736 -11.493  0.00  0.00     0.053 C 
BRANCH   6   7
HETATM    7  C           1     -34.037  -4.549 -10.533  0.00  0.00     0.115 C 
BRANCH   7   8
HETATM    8  C           1     -34.555  -5.777 -11.240  0.00  0.00     0.172 C 
HETATM    9  O           1     -34.485  -6.895 -10.684  0.00  0.00    -0.648 OA
HETATM   10  O           1     -35.055  -5.678 -12.382  0.00  0.00    -0.648 OA
ENDBRANCH   7   8
ENDBRANCH   6   7
ENDBRANCH   5   6
BRANCH   5  11
HETATM   11  N           1     -34.324  -2.000 -10.165  0.00  0.00    -0.066 N 
HETATM   12  H           1     -33.803  -2.453  -9.380  0.00  0.00     0.275 HD
HETATM   13  H           1     -34.368  -0.968 -10.007  0.00  0.00     0.275 HD
HETATM   14  H           1     -35.293  -2.387 -10.209  0.00  0.00     0.275 HD
ENDBRANCH   5  11
ENDBRANCH   2   5
BRANCH   1  15
HETATM   15  C           1     -36.179  -0.585 -13.749  0.00  0.00     0.185 C 
BRANCH  15  16
HETATM   16  C           1     -35.553   0.430 -14.674  0.00  0.00     0.196 C 
HETATM   17  O           1     -36.231   0.941 -15.592  0.00  0.00    -0.646 OA
HETATM   18  O           1     -34.357   0.761 -14.523  0.00  0.00    -0.646 OA
ENDBRANCH  15  16
BRANCH  15  19
HETATM   19  C           1     -37.497  -0.042 -13.215  0.00  0.00     0.039 C 
BRANCH  19  20
HETATM   20 Se           1     -37.524  -0.198 -11.273  0.00  0.00     0.000 Se
HETATM   21  H           1     -36.507  -1.261 -11.227  0.00  0.00     0.000 HD
ENDBRANCH  19  20
ENDBRANCH  15  19
ENDBRANCH   1  15
TORSDOF 9
ENDMDL
MODEL 2
REMARK VINA RESULT:      -5.7     13.055     14.480
REMARK  9 active torsions:
REMARK  status: ('A' for Active; 'I' for Inactive)
REMARK    1  A    between atoms: N_1  and  C_19 
REMARK       I    between atoms: N_1  and  C_2 
REMARK    2  A    between atoms: C_2  and  C_3 
REMARK    3  A    between atoms: C_3  and  C_4 
REMARK    4  A    between atoms: C_3  and  N_13 
REMARK    5  A    between atoms: C_4  and  C_5 
REMARK    6  A    between atoms: C_5  and  C_8 
REMARK    7  A    between atoms: C_18  and  C_19 
REMARK    8  A    between atoms: C_19  and  C_20 
REMARK    9  A    between atoms: C_20  and  Se_21 
ROOT
HETATM    1  N           1     -22.310  -4.809  -9.045  0.00  0.00    -0.345 N 
HETATM    2  C           1     -21.834  -4.675  -7.768  0.00  0.00     0.249 C 
HETATM    3  O           1     -21.859  -3.596  -7.224  0.00  0.00    -0.271 OA
HETATM    4  H           1     -22.290  -5.713  -9.500  0.00  0.00     0.163 HD
ENDROOT
BRANCH   2   5
HETATM    5  C           1     -21.279  -5.875  -7.040  0.00  0.00     0.275 C 
BRANCH   5   6
HETATM    6  C           1     -21.276  -5.603  -5.542  0.00  0.00     0.053 C 
BRANCH   6   7
HETATM    7  C           1     -22.104  -6.665  -4.830  0.00  0.00     0.115 C 
BRANCH   7   8
HETATM    8  C           1     -21.778  -6.653  -3.357  0.00  0.00     0.172 C 
HETATM    9  O           1     -20.883  -7.403  -2.908  0.00  0.00    -0.648 OA
HETATM   10  O           1     -22.401  -5.894  -2.584  0.00  0.00    -0.648 OA
ENDBRANCH   7   8
ENDBRANCH   6   7
ENDBRANCH   5   6
BRANCH   5  11
HETATM   11  N           1     -19.876  -6.134  -7.503  0.00  0.00    -0.066 N 
HETATM   12  H           1     -19.310  -5.261  -7.403  0.00  0.00     0.275 HD
HETATM   13  H           1     -19.453  -6.894  -6.924  0.00  0.00     0.275 HD
HETATM   14  H           1     -19.889  -6.427  -8.506  0.00  0.00     0.275 HD
ENDBRANCH   5  11
ENDBRANCH   2   5
BRANCH   1  15
HETATM   15  C           1     -22.844  -3.657  -9.745  0.00  0.00     0.185 C 
BRANCH  15  16
HETATM   16  C           1     -24.277  -3.927 -10.135  0.00  0.00     0.196 C 
HETATM   17  O           1     -24.824  -5.000  -9.799  0.00  0.00    -0.646 OA
HETATM   18  O           1     -24.917  -3.078 -10.791  0.00  0.00    -0.646 OA
ENDBRANCH  15  16
BRANCH  15  19
HETATM   19  C           1     -22.017  -3.396 -10.996  0.00  0.00     0.039 C 
BRANCH  19  20
HETATM   20 Se           1     -20.295  -4.296 -10.837  0.00  0.00     0.000 Se
HETATM   21  H           1     -20.014  -3.771  -9.490  0.00  0.00     0.000 HD
ENDBRANCH  19  20
ENDBRANCH  15  19
ENDBRANCH   1  15
TORSDOF 9
ENDMDL
MODEL 3
REMARK VINA RESULT:      -5.2     14.004     16.243
REMARK  9 active torsions:
REMARK  status: ('A' for Active; 'I' for Inactive)
REMARK    1  A    between atoms: N_1  and  C_19 
REMARK       I    between atoms: N_1  and  C_2 
REMARK    2  A    between atoms: C_2  and  C_3 
REMARK    3  A    between atoms: C_3  and  C_4 
REMARK    4  A    between atoms: C_3  and  N_13 
REMARK    5  A    between atoms: C_4  and  C_5 
REMARK    6  A    between atoms: C_5  and  C_8 
REMARK    7  A    between atoms: C_18  and  C_19 
REMARK    8  A    between atoms: C_19  and  C_20 
REMARK    9  A    between atoms: C_20  and  Se_21 
ROOT
HETATM    1  N           1     -21.337  -6.329  -6.495  0.00  0.00    -0.345 N 
HETATM    2  C           1     -21.239  -5.048  -6.967  0.00  0.00     0.249 C 
HETATM    3  O           1     -20.741  -4.187  -6.280  0.00  0.00    -0.271 OA
HETATM    4  H           1     -21.753  -7.050  -7.070  0.00  0.00     0.163 HD
ENDROOT
BRANCH   2   5
HETATM    5  C           1     -21.750  -4.711  -8.346  0.00  0.00     0.275 C 
BRANCH   5   6
HETATM    6  C           1     -20.669  -3.970  -9.122  0.00  0.00     0.053 C 
BRANCH   6   7
HETATM    7  C           1     -20.589  -4.525 -10.538  0.00  0.00     0.115 C 
BRANCH   7   8
HETATM    8  C           1     -21.601  -3.823 -11.411  0.00  0.00     0.172 C 
HETATM    9  O           1     -21.524  -2.588 -11.588  0.00  0.00    -0.648 OA
HETATM   10  O           1     -22.515  -4.477 -11.958  0.00  0.00    -0.648 OA
ENDBRANCH   7   8
ENDBRANCH   6   7
ENDBRANCH   5   6
BRANCH   5  11
HETATM   11  N           1     -22.966  -3.840  -8.229  0.00  0.00    -0.066 N 
HETATM   12  H           1     -23.050  -3.492  -7.247  0.00  0.00     0.275 HD
HETATM   13  H           1     -22.878  -3.029  -8.882  0.00  0.00     0.275 HD
HETATM   14  H           1     -23.816  -4.395  -8.476  0.00  0.00     0.275 HD
ENDBRANCH   5  11
ENDBRANCH   2   5
BRANCH   1  15
HETATM   15  C           1     -20.846  -6.654  -5.169  0.00  0.00     0.185 C 
BRANCH  15  16
HETATM   16  C           1     -19.904  -7.829  -5.258  0.00  0.00     0.196 C 
HETATM   17  O           1     -19.150  -7.952  -6.247  0.00  0.00    -0.646 OA
HETATM   18  O           1     -19.877  -8.680  -4.343  0.00  0.00    -0.646 OA
ENDBRANCH  15  16
BRANCH  15  19
HETATM   19  C           1     -22.019  -7.008  -4.267  0.00  0.00     0.039 C 
BRANCH  19  20
HETATM   20 Se           1     -21.725  -6.257  -2.492  0.00  0.00     0.000 Se
HETATM   21  H           1     -22.275  -4.934  -2.834  0.00  0.00     0.000 HD
ENDBRANCH  19  20
ENDBRANCH  15  19
ENDBRANCH   1  15
TORSDOF 9
ENDMDL
MODEL 4
REMARK VINA RESULT:      -5.2     14.194     16.492
REMARK  9 active torsions:
REMARK  status: ('A' for Active; 'I' for Inactive)
REMARK    1  A    between atoms: N_1  and  C_19 
REMARK       I    between atoms: N_1  and  C_2 
REMARK    2  A    between atoms: C_2  and  C_3 
REMARK    3  A    between atoms: C_3  and  C_4 
REMARK    4  A    between atoms: C_3  and  N_13 
REMARK    5  A    between atoms: C_4  and  C_5 
REMARK    6  A    between atoms: C_5  and  C_8 
REMARK    7  A    between atoms: C_18  and  C_19 
REMARK    8  A    between atoms: C_19  and  C_20 
REMARK    9  A    between atoms: C_20  and  Se_21 
ROOT
HETATM    1  N           1     -20.899  -6.618  -4.945  0.00  0.00    -0.345 N 
HETATM    2  C           1     -21.488  -5.710  -5.784  0.00  0.00     0.249 C 
HETATM    3  O           1     -22.689  -5.574  -5.779  0.00  0.00    -0.271 OA
HETATM    4  H           1     -19.893  -6.732  -4.950  0.00  0.00     0.163 HD
ENDROOT
BRANCH   2   5
HETATM    5  C           1     -20.639  -4.880  -6.715  0.00  0.00     0.275 C 
BRANCH   5   6
HETATM    6  C           1     -21.506  -3.828  -7.392  0.00  0.00     0.053 C 
BRANCH   6   7
HETATM    7  C           1     -21.476  -4.037  -8.901  0.00  0.00     0.115 C 
BRANCH   7   8
HETATM    8  C           1     -22.843  -3.756  -9.475  0.00  0.00     0.172 C 
HETATM    9  O           1     -22.955  -3.343 -10.650  0.00  0.00    -0.648 OA
HETATM   10  O           1     -23.864  -3.937  -8.777  0.00  0.00    -0.648 OA
ENDBRANCH   7   8
ENDBRANCH   6   7
ENDBRANCH   5   6
BRANCH   5  11
HETATM   11  N           1     -20.026  -5.768  -7.757  0.00  0.00    -0.066 N 
HETATM   12  H           1     -20.251  -5.395  -8.707  0.00  0.00     0.275 HD
HETATM   13  H           1     -18.990  -5.794  -7.627  0.00  0.00     0.275 HD
HETATM   14  H           1     -20.413  -6.734  -7.662  0.00  0.00     0.275 HD
ENDBRANCH   5  11
ENDBRANCH   2   5
BRANCH   1  15
HETATM   15  C           1     -21.715  -7.416  -4.051  0.00  0.00     0.185 C 
BRANCH  15  16
HETATM   16  C           1     -21.628  -6.850  -2.654  0.00  0.00     0.196 C 
HETATM   17  O           1     -20.819  -7.335  -1.834  0.00  0.00    -0.646 OA
HETATM   18  O           1     -22.363  -5.898  -2.318  0.00  0.00    -0.646 OA
ENDBRANCH  15  16
BRANCH  15  19
HETATM   19  C           1     -21.210  -8.852  -4.051  0.00  0.00     0.039 C 
BRANCH  19  20
HETATM   20 Se           1     -19.459  -8.927  -4.903  0.00  0.00     0.000 Se
HETATM   21  H           1     -19.268  -7.467  -4.903  0.00  0.00     0.000 HD
ENDBRANCH  19  20
ENDBRANCH  15  19
ENDBRANCH   1  15
TORSDOF 9
ENDMDL
MODEL 5
REMARK VINA RESULT:      -5.1     13.579     15.825
REMARK  9 active torsions:
REMARK  status: ('A' for Active; 'I' for Inactive)
REMARK    1  A    between atoms: N_1  and  C_19 
REMARK       I    between atoms: N_1  and  C_2 
REMARK    2  A    between atoms: C_2  and  C_3 
REMARK    3  A    between atoms: C_3  and  C_4 
REMARK    4  A    between atoms: C_3  and  N_13 
REMARK    5  A    between atoms: C_4  and  C_5 
REMARK    6  A    between atoms: C_5  and  C_8 
REMARK    7  A    between atoms: C_18  and  C_19 
REMARK    8  A    between atoms: C_19  and  C_20 
REMARK    9  A    between atoms: C_20  and  Se_21 
ROOT
HETATM    1  N           1     -21.357  -5.980  -6.440  0.00  0.00    -0.345 N 
HETATM    2  C           1     -20.628  -4.931  -6.933  0.00  0.00     0.249 C 
HETATM    3  O           1     -19.705  -4.484  -6.294  0.00  0.00    -0.271 OA
HETATM    4  H           1     -22.130  -6.355  -6.976  0.00  0.00     0.163 HD
ENDROOT
BRANCH   2   5
HETATM    5  C           1     -20.976  -4.335  -8.275  0.00  0.00     0.275 C 
BRANCH   5   6
HETATM    6  C           1     -22.373  -4.783  -8.683  0.00  0.00     0.053 C 
BRANCH   6   7
HETATM    7  C           1     -23.148  -3.594  -9.235  0.00  0.00     0.115 C 
BRANCH   7   8
HETATM    8  C           1     -24.052  -4.057 -10.352  0.00  0.00     0.172 C 
HETATM    9  O           1     -24.960  -3.307 -10.773  0.00  0.00    -0.648 OA
HETATM   10  O           1     -23.893  -5.189 -10.856  0.00  0.00    -0.648 OA
ENDBRANCH   7   8
ENDBRANCH   6   7
ENDBRANCH   5   6
BRANCH   5  11
HETATM   11  N           1     -19.984  -4.799  -9.300  0.00  0.00    -0.066 N 
HETATM   12  H           1     -19.148  -5.199  -8.818  0.00  0.00     0.275 HD
HETATM   13  H           1     -20.423  -5.530  -9.904  0.00  0.00     0.275 HD
HETATM   14  H           1     -19.690  -3.990  -9.892  0.00  0.00     0.275 HD
ENDBRANCH   5  11
ENDBRANCH   2   5
BRANCH   1  15
HETATM   15  C           1     -21.024  -6.553  -5.151  0.00  0.00     0.185 C 
BRANCH  15  16
HETATM   16  C           1     -20.503  -7.957  -5.346  0.00  0.00     0.196 C 
HETATM   17  O           1     -21.154  -8.774  -6.033  0.00  0.00    -0.646 OA
HETATM   18  O           1     -19.423  -8.302  -4.821  0.00  0.00    -0.646 OA
ENDBRANCH  15  16
BRANCH  15  19
HETATM   19  C           1     -22.268  -6.589  -4.275  0.00  0.00     0.039 C 
BRANCH  19  20
HETATM   20 Se           1     -21.757  -6.338  -2.411  0.00  0.00     0.000 Se
HETATM   21  H           1     -20.490  -5.659  -2.728  0.00  0.00     0.000 HD
ENDBRANCH  19  20
ENDBRANCH  15  19
ENDBRANCH   1  15
TORSDOF 9
ENDMDL
MODEL 6
REMARK VINA RESULT:      -4.9     15.408     16.840
REMARK  9 active torsions:
REMARK  status: ('A' for Active; 'I' for Inactive)
REMARK    1  A    between atoms: N_1  and  C_19 
REMARK       I    between atoms: N_1  and  C_2 
REMARK    2  A    between atoms: C_2  and  C_3 
REMARK    3  A    between atoms: C_3  and  C_4 
REMARK    4  A    between atoms: C_3  and  N_13 
REMARK    5  A    between atoms: C_4  and  C_5 
REMARK    6  A    between atoms: C_5  and  C_8 
REMARK    7  A    between atoms: C_18  and  C_19 
REMARK    8  A    between atoms: C_19  and  C_20 
REMARK    9  A    between atoms: C_20  and  Se_21 
ROOT
HETATM    1  N           1     -21.398  -5.623  -4.866  0.00  0.00    -0.345 N 
HETATM    2  C           1     -21.400  -6.777  -4.128  0.00  0.00     0.249 C 
HETATM    3  O           1     -21.455  -7.849  -4.682  0.00  0.00    -0.271 OA
HETATM    4  H           1     -21.351  -4.725  -4.402  0.00  0.00     0.163 HD
ENDROOT
BRANCH   2   5
HETATM    5  C           1     -21.333  -6.708  -2.622  0.00  0.00     0.275 C 
BRANCH   5   6
HETATM    6  C           1     -21.478  -8.109  -2.043  0.00  0.00     0.053 C 
BRANCH   6   7
HETATM    7  C           1     -21.478  -8.033  -0.522  0.00  0.00     0.115 C 
BRANCH   7   8
HETATM    8  C           1     -22.756  -8.633   0.012  0.00  0.00     0.172 C 
HETATM    9  O           1     -23.143  -9.749  -0.400  0.00  0.00    -0.648 OA
HETATM   10  O           1     -23.428  -8.015   0.866  0.00  0.00    -0.648 OA
ENDBRANCH   7   8
ENDBRANCH   6   7
ENDBRANCH   5   6
BRANCH   5  11
HETATM   11  N           1     -22.443  -5.839  -2.112  0.00  0.00    -0.066 N 
HETATM   12  H           1     -22.303  -5.659  -1.092  0.00  0.00     0.275 HD
HETATM   13  H           1     -22.443  -4.932  -2.631  0.00  0.00     0.275 HD
HETATM   14  H           1     -23.358  -6.322  -2.257  0.00  0.00     0.275 HD
ENDBRANCH   5  11
ENDBRANCH   2   5
BRANCH   1  15
HETATM   15  C           1     -21.463  -5.688  -6.313  0.00  0.00     0.185 C 
BRANCH  15  16
HETATM   16  C           1     -20.068  -5.605  -6.882  0.00  0.00     0.196 C 
HETATM   17  O           1     -19.395  -4.562  -6.737  0.00  0.00    -0.646 OA
HETATM   18  O           1     -19.584  -6.579  -7.498  0.00  0.00    -0.646 OA
ENDBRANCH  15  16
BRANCH  15  19
HETATM   19  C           1     -22.296  -4.526  -6.836  0.00  0.00     0.039 C 
BRANCH  19  20
HETATM   20 Se           1     -22.235  -4.507  -8.784  0.00  0.00     0.000 Se
HETATM   21  H           1     -23.112  -3.331  -8.916  0.00  0.00     0.000 HD
ENDBRANCH  19  20
ENDBRANCH  15  19
ENDBRANCH   1  15
TORSDOF 9
ENDMDL
MODEL 7
REMARK VINA RESULT:      -4.8      1.873      2.195
REMARK  9 active torsions:
REMARK  status: ('A' for Active; 'I' for Inactive)
REMARK    1  A    between atoms: N_1  and  C_19 
REMARK       I    between atoms: N_1  and  C_2 
REMARK    2  A    between atoms: C_2  and  C_3 
REMARK    3  A    between atoms: C_3  and  C_4 
REMARK    4  A    between atoms: C_3  and  N_13 
REMARK    5  A    between atoms: C_4  and  C_5 
REMARK    6  A    between atoms: C_5  and  C_8 
REMARK    7  A    between atoms: C_18  and  C_19 
REMARK    8  A    between atoms: C_19  and  C_20 
REMARK    9  A    between atoms: C_20  and  Se_21 
ROOT
HETATM    1  N           1     -35.307  -1.922 -12.815  0.00  0.00    -0.345 N 
HETATM    2  C           1     -34.746  -2.982 -13.476  0.00  0.00     0.249 C 
HETATM    3  O           1     -34.566  -2.923 -14.669  0.00  0.00    -0.271 OA
HETATM    4  H           1     -35.457  -1.970 -11.816  0.00  0.00     0.163 HD
ENDROOT
BRANCH   2   5
HETATM    5  C           1     -34.352  -4.223 -12.713  0.00  0.00     0.275 C 
BRANCH   5   6
HETATM    6  C           1     -35.020  -4.212 -11.345  0.00  0.00     0.053 C 
BRANCH   6   7
HETATM    7  C           1     -34.192  -5.035 -10.367  0.00  0.00     0.115 C 
BRANCH   7   8
HETATM    8  C           1     -34.679  -6.463 -10.373  0.00  0.00     0.172 C 
HETATM    9  O           1     -34.890  -7.047 -11.458  0.00  0.00    -0.648 OA
HETATM   10  O           1     -34.872  -7.063  -9.293  0.00  0.00    -0.648 OA
ENDBRANCH   7   8
ENDBRANCH   6   7
ENDBRANCH   5   6
BRANCH   5  11
HETATM   11  N           1     -32.862  -4.250 -12.540  0.00  0.00    -0.066 N 
HETATM   12  H           1     -32.631  -4.259 -11.521  0.00  0.00     0.275 HD
HETATM   13  H           1     -32.475  -5.108 -12.995  0.00  0.00     0.275 HD
HETATM   14  H           1     -32.444  -3.402 -12.985  0.00  0.00     0.275 HD
ENDBRANCH   5  11
ENDBRANCH   2   5
BRANCH   1  15
HETATM   15  C           1     -35.686  -0.729 -13.547  0.00  0.00     0.185 C 
BRANCH  15  16
HETATM   16  C           1     -35.039   0.477 -12.912  0.00  0.00     0.196 C 
HETATM   17  O           1     -34.313   1.230 -13.597  0.00  0.00    -0.646 OA
HETATM   18  O           1     -35.228   0.724 -11.701  0.00  0.00    -0.646 OA
ENDBRANCH  15  16
BRANCH  15  19
HETATM   19  C           1     -37.200  -0.572 -13.512  0.00  0.00     0.039 C 
BRANCH  19  20
HETATM   20 Se           1     -37.833   0.025 -15.256  0.00  0.00     0.000 Se
HETATM   21  H           1     -36.502  -0.017 -15.883  0.00  0.00     0.000 HD
ENDBRANCH  19  20
ENDBRANCH  15  19
ENDBRANCH   1  15
TORSDOF 9
ENDMDL
MODEL 8
REMARK VINA RESULT:      -4.7      2.515      3.361
REMARK  9 active torsions:
REMARK  status: ('A' for Active; 'I' for Inactive)
REMARK    1  A    between atoms: N_1  and  C_19 
REMARK       I    between atoms: N_1  and  C_2 
REMARK    2  A    between atoms: C_2  and  C_3 
REMARK    3  A    between atoms: C_3  and  C_4 
REMARK    4  A    between atoms: C_3  and  N_13 
REMARK    5  A    between atoms: C_4  and  C_5 
REMARK    6  A    between atoms: C_5  and  C_8 
REMARK    7  A    between atoms: C_18  and  C_19 
REMARK    8  A    between atoms: C_19  and  C_20 
REMARK    9  A    between atoms: C_20  and  Se_21 
ROOT
HETATM    1  N           1     -35.541  -1.713 -10.263  0.00  0.00    -0.345 N 
HETATM    2  C           1     -35.336  -3.049 -10.479  0.00  0.00     0.249 C 
HETATM    3  O           1     -36.271  -3.769 -10.739  0.00  0.00    -0.271 OA
HETATM    4  H           1     -34.758  -1.109 -10.046  0.00  0.00     0.163 HD
ENDROOT
BRANCH   2   5
HETATM    5  C           1     -33.943  -3.622 -10.393  0.00  0.00     0.275 C 
BRANCH   5   6
HETATM    6  C           1     -33.138  -3.187 -11.610  0.00  0.00     0.053 C 
BRANCH   6   7
HETATM    7  C           1     -33.364  -4.173 -12.749  0.00  0.00     0.115 C 
BRANCH   7   8
HETATM    8  C           1     -34.163  -3.505 -13.841  0.00  0.00     0.172 C 
HETATM    9  O           1     -34.747  -2.422 -13.616  0.00  0.00    -0.648 OA
HETATM   10  O           1     -34.240  -4.032 -14.972  0.00  0.00    -0.648 OA
ENDBRANCH   7   8
ENDBRANCH   6   7
ENDBRANCH   5   6
BRANCH   5  11
HETATM   11  N           1     -34.021  -5.120 -10.355  0.00  0.00    -0.066 N 
HETATM   12  H           1     -34.620  -5.416  -9.552  0.00  0.00     0.275 HD
HETATM   13  H           1     -34.434  -5.470 -11.249  0.00  0.00     0.275 HD
HETATM   14  H           1     -33.061  -5.515 -10.237  0.00  0.00     0.275 HD
ENDBRANCH   5  11
ENDBRANCH   2   5
BRANCH   1  15
HETATM   15  C           1     -36.880  -1.161 -10.346  0.00  0.00     0.185 C 
BRANCH  15  16
HETATM   16  C           1     -36.901  -0.048 -11.366  0.00  0.00     0.196 C 
HETATM   17  O           1     -35.837   0.520 -11.692  0.00  0.00    -0.646 OA
HETATM   18  O           1     -37.982   0.305 -11.884  0.00  0.00    -0.646 OA
ENDBRANCH  15  16
BRANCH  15  19
HETATM   19  C           1     -37.287  -0.613  -8.986  0.00  0.00     0.039 C 
BRANCH  19  20
HETATM   20 Se           1     -37.103   1.327  -8.984  0.00  0.00     0.000 Se
HETATM   21  H           1     -35.987   1.337  -8.024  0.00  0.00     0.000 HD
ENDBRANCH  19  20
ENDBRANCH  15  19
ENDBRANCH   1  15
TORSDOF 9
ENDMDL
MODEL 9
REMARK VINA RESULT:      -4.7      2.383      2.879
REMARK  9 active torsions:
REMARK  status: ('A' for Active; 'I' for Inactive)
REMARK    1  A    between atoms: N_1  and  C_19 
REMARK       I    between atoms: N_1  and  C_2 
REMARK    2  A    between atoms: C_2  and  C_3 
REMARK    3  A    between atoms: C_3  and  C_4 
REMARK    4  A    between atoms: C_3  and  N_13 
REMARK    5  A    between atoms: C_4  and  C_5 
REMARK    6  A    between atoms: C_5  and  C_8 
REMARK    7  A    between atoms: C_18  and  C_19 
REMARK    8  A    between atoms: C_19  and  C_20 
REMARK    9  A    between atoms: C_20  and  Se_21 
ROOT
HETATM    1  N           1     -35.454  -1.917 -13.087  0.00  0.00    -0.345 N 
HETATM    2  C           1     -34.840  -2.997 -13.664  0.00  0.00     0.249 C 
HETATM    3  O           1     -34.549  -2.971 -14.836  0.00  0.00    -0.271 OA
HETATM    4  H           1     -35.696  -1.938 -12.105  0.00  0.00     0.163 HD
ENDROOT
BRANCH   2   5
HETATM    5  C           1     -34.525  -4.217 -12.834  0.00  0.00     0.275 C 
BRANCH   5   6
HETATM    6  C           1     -35.027  -4.008 -11.412  0.00  0.00     0.053 C 
BRANCH   6   7
HETATM    7  C           1     -33.863  -3.603 -10.516  0.00  0.00     0.115 C 
BRANCH   7   8
HETATM    8  C           1     -33.900  -2.112 -10.288  0.00  0.00     0.172 C 
HETATM    9  O           1     -34.997  -1.528 -10.144  0.00  0.00    -0.648 OA
HETATM   10  O           1     -32.836  -1.459 -10.241  0.00  0.00    -0.648 OA
ENDBRANCH   7   8
ENDBRANCH   6   7
ENDBRANCH   5   6
BRANCH   5  11
HETATM   11  N           1     -33.041  -4.437 -12.813  0.00  0.00    -0.066 N 
HETATM   12  H           1     -32.699  -4.399 -11.826  0.00  0.00     0.275 HD
HETATM   13  H           1     -32.822  -5.373 -13.224  0.00  0.00     0.275 HD
HETATM   14  H           1     -32.571  -3.692 -13.374  0.00  0.00     0.275 HD
ENDBRANCH   5  11
ENDBRANCH   2   5
BRANCH   1  15
HETATM   15  C           1     -35.757  -0.744 -13.884  0.00  0.00     0.185 C 
BRANCH  15  16
HETATM   16  C           1     -34.812   0.373 -13.512  0.00  0.00     0.196 C 
HETATM   17  O           1     -34.053   0.863 -14.376  0.00  0.00    -0.646 OA
HETATM   18  O           1     -34.787   0.807 -12.340  0.00  0.00    -0.646 OA
ENDBRANCH  15  16
BRANCH  15  19
HETATM   19  C           1     -37.190  -0.307 -13.618  0.00  0.00     0.039 C 
BRANCH  19  20
HETATM   20 Se           1     -38.074   0.089 -15.309  0.00  0.00     0.000 Se
HETATM   21  H           1     -37.779  -1.226 -15.904  0.00  0.00     0.000 HD
ENDBRANCH  19  20
ENDBRANCH  15  19
ENDBRANCH   1  15
TORSDOF 9
ENDMDL
