MODEL 1
REMARK VINA RESULT:      -6.4      0.000      0.000
REMARK  7 active torsions:
REMARK  status: ('A' for Active; 'I' for Inactive)
REMARK       I    between atoms: C_4  and  N_20 
REMARK    1  A    between atoms: C_4  and  C_17 
REMARK    2  A    between atoms: C_5  and  C_6 
REMARK       I    between atoms: C_5  and  N_12 
REMARK    3  A    between atoms: C_6  and  C_7 
REMARK    4  A    between atoms: C_7  and  C_17 
REMARK    5  A    between atoms: N_8  and  C_17 
REMARK    6  A    between atoms: C_14  and  C_19 
REMARK    7  A    between atoms: C_14  and  N_20 
ROOT
HETATM    1  C           1     -29.050  -6.479 -17.180  0.00  0.00     0.275 C 
ENDROOT
BRANCH   1   2
HETATM    2  C           1     -27.668  -6.131 -16.686  0.00  0.00     0.248 C 
HETATM    3  N           1     -26.853  -7.110 -16.183  0.00  0.00    -0.349 N 
HETATM    4  H           1     -27.179  -8.068 -16.144  0.00  0.00     0.163 HD
HETATM    5  O           1     -27.280  -4.988 -16.732  0.00  0.00    -0.271 OA
BRANCH   3   6
HETATM    6  C           1     -25.525  -6.775 -15.708  0.00  0.00     0.235 C 
BRANCH   6   7
HETATM    7  C           1     -24.494  -7.416 -16.604  0.00  0.00     0.191 C 
HETATM    8  O           1     -24.191  -6.880 -17.692  0.00  0.00    -0.647 OA
HETATM    9  O           1     -23.942  -8.483 -16.258  0.00  0.00    -0.647 OA
ENDBRANCH   6   7
ENDBRANCH   3   6
ENDBRANCH   1   2
BRANCH   1  10
HETATM   10  C           1     -30.087  -5.706 -16.376  0.00  0.00     0.052 C 
BRANCH  10  11
HETATM   11  C           1     -31.170  -5.185 -17.311  0.00  0.00     0.105 C 
BRANCH  11  12
HETATM   12  C           1     -30.960  -3.711 -17.555  0.00  0.00     0.215 C 
HETATM   13  N           1     -29.692  -3.195 -17.587  0.00  0.00    -0.370 N 
HETATM   14  H           1     -29.551  -2.207 -17.751  0.00  0.00     0.159 HD
HETATM   15  H           1     -28.895  -3.804 -17.447  0.00  0.00     0.159 HD
HETATM   16  O           1     -31.910  -2.985 -17.722  0.00  0.00    -0.274 OA
ENDBRANCH  11  12
ENDBRANCH  10  11
ENDBRANCH   1  10
BRANCH   1  17
HETATM   17  N           1     -29.284  -7.952 -17.012  0.00  0.00    -0.066 N 
HETATM   18  H           1     -29.263  -8.194 -15.996  0.00  0.00     0.275 HD
HETATM   19  H           1     -30.217  -8.203 -17.411  0.00  0.00     0.275 HD
HETATM   20  H           1     -28.536  -8.483 -17.512  0.00  0.00     0.275 HD
ENDBRANCH   1  17
TORSDOF 7
ENDMDL
MODEL 2
REMARK VINA RESULT:      -6.1      8.425     10.716
REMARK  7 active torsions:
REMARK  status: ('A' for Active; 'I' for Inactive)
REMARK       I    between atoms: C_4  and  N_20 
REMARK    1  A    between atoms: C_4  and  C_17 
REMARK    2  A    between atoms: C_5  and  C_6 
REMARK       I    between atoms: C_5  and  N_12 
REMARK    3  A    between atoms: C_6  and  C_7 
REMARK    4  A    between atoms: C_7  and  C_17 
REMARK    5  A    between atoms: N_8  and  C_17 
REMARK    6  A    between atoms: C_14  and  C_19 
REMARK    7  A    between atoms: C_14  and  N_20 
ROOT
HETATM    1  C           1     -34.520  -1.800 -11.511  0.00  0.00     0.275 C 
ENDROOT
BRANCH   1   2
HETATM    2  C           1     -34.876  -1.675 -12.972  0.00  0.00     0.248 C 
HETATM    3  N           1     -35.403  -0.505 -13.450  0.00  0.00    -0.349 N 
HETATM    4  H           1     -35.553   0.275 -12.824  0.00  0.00     0.163 HD
HETATM    5  O           1     -34.697  -2.607 -13.720  0.00  0.00    -0.271 OA
BRANCH   3   6
HETATM    6  C           1     -35.745  -0.385 -14.854  0.00  0.00     0.235 C 
BRANCH   6   7
HETATM    7  C           1     -37.227  -0.131 -14.990  0.00  0.00     0.191 C 
HETATM    8  O           1     -37.649   0.658 -15.863  0.00  0.00    -0.647 OA
HETATM    9  O           1     -38.033  -0.711 -14.230  0.00  0.00    -0.647 OA
ENDBRANCH   6   7
ENDBRANCH   3   6
ENDBRANCH   1   2
BRANCH   1  10
HETATM   10  C           1     -33.439  -2.860 -11.342  0.00  0.00     0.052 C 
BRANCH  10  11
HETATM   11  C           1     -33.992  -4.027 -10.536  0.00  0.00     0.105 C 
BRANCH  11  12
HETATM   12  C           1     -33.947  -5.283 -11.371  0.00  0.00     0.215 C 
HETATM   13  N           1     -34.683  -5.368 -12.522  0.00  0.00    -0.370 N 
HETATM   14  H           1     -34.652  -6.211 -13.082  0.00  0.00     0.159 HD
HETATM   15  H           1     -35.256  -4.587 -12.814  0.00  0.00     0.159 HD
HETATM   16  O           1     -33.262  -6.215 -11.022  0.00  0.00    -0.274 OA
ENDBRANCH  11  12
ENDBRANCH  10  11
ENDBRANCH   1  10
BRANCH   1  17
HETATM   17  N           1     -35.738  -2.202 -10.733  0.00  0.00    -0.066 N 
HETATM   18  H           1     -36.181  -3.034 -11.183  0.00  0.00     0.275 HD
HETATM   19  H           1     -35.461  -2.441  -9.754  0.00  0.00     0.275 HD
HETATM   20  H           1     -36.419  -1.410 -10.720  0.00  0.00     0.275 HD
ENDBRANCH   1  17
TORSDOF 7
ENDMDL
MODEL 3
REMARK VINA RESULT:      -5.7     10.262     12.187
REMARK  7 active torsions:
REMARK  status: ('A' for Active; 'I' for Inactive)
REMARK       I    between atoms: C_4  and  N_20 
REMARK    1  A    between atoms: C_4  and  C_17 
REMARK    2  A    between atoms: C_5  and  C_6 
REMARK       I    between atoms: C_5  and  N_12 
REMARK    3  A    between atoms: C_6  and  C_7 
REMARK    4  A    between atoms: C_7  and  C_17 
REMARK    5  A    between atoms: N_8  and  C_17 
REMARK    6  A    between atoms: C_14  and  C_19 
REMARK    7  A    between atoms: C_14  and  N_20 
ROOT
HETATM    1  C           1     -35.066  -0.225 -12.860  0.00  0.00     0.275 C 
ENDROOT
BRANCH   1   2
HETATM    2  C           1     -36.274  -0.125 -11.962  0.00  0.00     0.248 C 
HETATM    3  N           1     -36.175   0.500 -10.747  0.00  0.00    -0.349 N 
HETATM    4  H           1     -35.290   0.894 -10.452  0.00  0.00     0.163 HD
HETATM    5  O           1     -37.330  -0.595 -12.314  0.00  0.00    -0.271 OA
BRANCH   3   6
HETATM    6  C           1     -37.336   0.596  -9.885  0.00  0.00     0.235 C 
BRANCH   6   7
HETATM    7  C           1     -36.895   0.951  -8.485  0.00  0.00     0.191 C 
HETATM    8  O           1     -35.864   0.432  -8.004  0.00  0.00    -0.647 OA
HETATM    9  O           1     -37.561   1.763  -7.807  0.00  0.00    -0.647 OA
ENDBRANCH   6   7
ENDBRANCH   3   6
ENDBRANCH   1   2
BRANCH   1  10
HETATM   10  C           1     -35.294   0.610 -14.113  0.00  0.00     0.052 C 
BRANCH  10  11
HETATM   11  C           1     -35.510  -0.312 -15.306  0.00  0.00     0.105 C 
BRANCH  11  12
HETATM   12  C           1     -36.910  -0.129 -15.838  0.00  0.00     0.215 C 
HETATM   13  N           1     -37.804   0.657 -15.162  0.00  0.00    -0.370 N 
HETATM   14  H           1     -38.743   0.780 -15.520  0.00  0.00     0.159 HD
HETATM   15  H           1     -37.525   1.117 -14.305  0.00  0.00     0.159 HD
HETATM   16  O           1     -37.243  -0.678 -16.862  0.00  0.00    -0.274 OA
ENDBRANCH  11  12
ENDBRANCH  10  11
ENDBRANCH   1  10
BRANCH   1  17
HETATM   17  N           1     -34.850  -1.658 -13.247  0.00  0.00    -0.066 N 
HETATM   18  H           1     -34.076  -2.062 -12.672  0.00  0.00     0.275 HD
HETATM   19  H           1     -35.728  -2.200 -13.078  0.00  0.00     0.275 HD
HETATM   20  H           1     -34.596  -1.712 -14.258  0.00  0.00     0.275 HD
ENDBRANCH   1  17
TORSDOF 7
ENDMDL
MODEL 4
REMARK VINA RESULT:      -5.6     10.437     12.105
REMARK  7 active torsions:
REMARK  status: ('A' for Active; 'I' for Inactive)
REMARK       I    between atoms: C_4  and  N_20 
REMARK    1  A    between atoms: C_4  and  C_17 
REMARK    2  A    between atoms: C_5  and  C_6 
REMARK       I    between atoms: C_5  and  N_12 
REMARK    3  A    between atoms: C_6  and  C_7 
REMARK    4  A    between atoms: C_7  and  C_17 
REMARK    5  A    between atoms: N_8  and  C_17 
REMARK    6  A    between atoms: C_14  and  C_19 
REMARK    7  A    between atoms: C_14  and  N_20 
ROOT
HETATM    1  C           1     -22.341  -4.491  -7.351  0.00  0.00     0.275 C 
ENDROOT
BRANCH   1   2
HETATM    2  C           1     -21.671  -5.608  -6.590  0.00  0.00     0.248 C 
HETATM    3  N           1     -22.014  -5.851  -5.286  0.00  0.00    -0.349 N 
HETATM    4  H           1     -22.717  -5.281  -4.834  0.00  0.00     0.163 HD
HETATM    5  O           1     -20.831  -6.288  -7.130  0.00  0.00    -0.271 OA
BRANCH   3   6
HETATM    6  C           1     -21.369  -6.924  -4.555  0.00  0.00     0.235 C 
BRANCH   6   7
HETATM    7  C           1     -21.577  -6.719  -3.074  0.00  0.00     0.191 C 
HETATM    8  O           1     -22.454  -5.926  -2.670  0.00  0.00    -0.647 OA
HETATM    9  O           1     -20.872  -7.344  -2.252  0.00  0.00    -0.647 OA
ENDBRANCH   6   7
ENDBRANCH   3   6
ENDBRANCH   1   2
BRANCH   1  10
HETATM   10  C           1     -22.364  -4.830  -8.836  0.00  0.00     0.052 C 
BRANCH  10  11
HETATM   11  C           1     -22.789  -3.604  -9.631  0.00  0.00     0.105 C 
BRANCH  11  12
HETATM   12  C           1     -24.230  -3.750 -10.053  0.00  0.00     0.215 C 
HETATM   13  N           1     -25.014  -4.721  -9.491  0.00  0.00    -0.370 N 
HETATM   14  H           1     -25.981  -4.819  -9.774  0.00  0.00     0.159 HD
HETATM   15  H           1     -24.626  -5.341  -8.791  0.00  0.00     0.159 HD
HETATM   16  O           1     -24.693  -3.010 -10.889  0.00  0.00    -0.274 OA
ENDBRANCH  11  12
ENDBRANCH  10  11
ENDBRANCH   1  10
BRANCH   1  17
HETATM   17  N           1     -21.578  -3.216  -7.142  0.00  0.00    -0.066 N 
HETATM   18  H           1     -21.821  -2.814  -6.209  0.00  0.00     0.275 HD
HETATM   19  H           1     -20.553  -3.416  -7.178  0.00  0.00     0.275 HD
HETATM   20  H           1     -21.828  -2.534  -7.891  0.00  0.00     0.275 HD
ENDBRANCH   1  17
TORSDOF 7
ENDMDL
MODEL 5
REMARK VINA RESULT:      -5.6      9.753     11.398
REMARK  7 active torsions:
REMARK  status: ('A' for Active; 'I' for Inactive)
REMARK       I    between atoms: C_4  and  N_20 
REMARK    1  A    between atoms: C_4  and  C_17 
REMARK    2  A    between atoms: C_5  and  C_6 
REMARK       I    between atoms: C_5  and  N_12 
REMARK    3  A    between atoms: C_6  and  C_7 
REMARK    4  A    between atoms: C_7  and  C_17 
REMARK    5  A    between atoms: N_8  and  C_17 
REMARK    6  A    between atoms: C_14  and  C_19 
REMARK    7  A    between atoms: C_14  and  N_20 
ROOT
HETATM    1  C           1     -21.416  -3.934  -8.283  0.00  0.00     0.275 C 
ENDROOT
BRANCH   1   2
HETATM    2  C           1     -21.772  -4.621  -6.988  0.00  0.00     0.248 C 
HETATM    3  N           1     -20.783  -5.130  -6.189  0.00  0.00    -0.349 N 
HETATM    4  H           1     -19.814  -5.045  -6.467  0.00  0.00     0.163 HD
HETATM    5  O           1     -22.929  -4.723  -6.656  0.00  0.00    -0.271 OA
BRANCH   3   6
HETATM    6  C           1     -21.126  -5.791  -4.944  0.00  0.00     0.235 C 
BRANCH   6   7
HETATM    7  C           1     -21.049  -7.287  -5.132  0.00  0.00     0.191 C 
HETATM    8  O           1     -20.179  -7.779  -5.882  0.00  0.00    -0.647 OA
HETATM    9  O           1     -21.856  -8.033  -4.536  0.00  0.00    -0.647 OA
ENDBRANCH   6   7
ENDBRANCH   3   6
ENDBRANCH   1   2
BRANCH   1  10
HETATM   10  C           1     -22.174  -4.588  -9.430  0.00  0.00     0.052 C 
BRANCH  10  11
HETATM   11  C           1     -22.770  -3.511 -10.326  0.00  0.00     0.105 C 
BRANCH  11  12
HETATM   12  C           1     -24.254  -3.405 -10.070  0.00  0.00     0.215 C 
HETATM   13  N           1     -24.739  -3.519  -8.795  0.00  0.00    -0.370 N 
HETATM   14  H           1     -25.734  -3.447  -8.624  0.00  0.00     0.159 HD
HETATM   15  H           1     -24.102  -3.674  -8.023  0.00  0.00     0.159 HD
HETATM   16  O           1     -25.014  -3.220 -10.991  0.00  0.00    -0.274 OA
ENDBRANCH  11  12
ENDBRANCH  10  11
ENDBRANCH   1  10
BRANCH   1  17
HETATM   17  N           1     -19.941  -4.058  -8.524  0.00  0.00    -0.066 N 
HETATM   18  H           1     -19.487  -3.126  -8.394  0.00  0.00     0.275 HD
HETATM   19  H           1     -19.534  -4.741  -7.846  0.00  0.00     0.275 HD
HETATM   20  H           1     -19.774  -4.392  -9.499  0.00  0.00     0.275 HD
ENDBRANCH   1  17
TORSDOF 7
ENDMDL
MODEL 6
REMARK VINA RESULT:      -5.5      9.163     10.861
REMARK  7 active torsions:
REMARK  status: ('A' for Active; 'I' for Inactive)
REMARK       I    between atoms: C_4  and  N_20 
REMARK    1  A    between atoms: C_4  and  C_17 
REMARK    2  A    between atoms: C_5  and  C_6 
REMARK       I    between atoms: C_5  and  N_12 
REMARK    3  A    between atoms: C_6  and  C_7 
REMARK    4  A    between atoms: C_7  and  C_17 
REMARK    5  A    between atoms: N_8  and  C_17 
REMARK    6  A    between atoms: C_14  and  C_19 
REMARK    7  A    between atoms: C_14  and  N_20 
ROOT
HETATM    1  C           1     -21.064  -3.810 -10.135  0.00  0.00     0.275 C 
ENDROOT
BRANCH   1   2
HETATM    2  C           1     -20.476  -4.294  -8.832  0.00  0.00     0.248 C 
HETATM    3  N           1     -20.996  -5.401  -8.216  0.00  0.00    -0.349 N 
HETATM    4  H           1     -21.774  -5.894  -8.634  0.00  0.00     0.163 HD
HETATM    5  O           1     -19.546  -3.706  -8.333  0.00  0.00    -0.271 OA
BRANCH   3   6
HETATM    6  C           1     -20.430  -5.866  -6.965  0.00  0.00     0.235 C 
BRANCH   6   7
HETATM    7  C           1     -21.386  -5.562  -5.837  0.00  0.00     0.191 C 
HETATM    8  O           1     -22.575  -5.270  -6.087  0.00  0.00    -0.647 OA
HETATM    9  O           1     -20.988  -5.602  -4.652  0.00  0.00    -0.647 OA
ENDBRANCH   6   7
ENDBRANCH   3   6
ENDBRANCH   1   2
BRANCH   1  10
HETATM   10  C           1     -22.402  -4.497 -10.374  0.00  0.00     0.052 C 
BRANCH  10  11
HETATM   11  C           1     -23.467  -3.450 -10.668  0.00  0.00     0.105 C 
BRANCH  11  12
HETATM   12  C           1     -24.519  -3.481  -9.588  0.00  0.00     0.215 C 
HETATM   13  N           1     -24.195  -3.903  -8.327  0.00  0.00    -0.370 N 
HETATM   14  H           1     -24.901  -3.924  -7.602  0.00  0.00     0.159 HD
HETATM   15  H           1     -23.247  -4.193  -8.119  0.00  0.00     0.159 HD
HETATM   16  O           1     -25.650  -3.134  -9.836  0.00  0.00    -0.274 OA
ENDBRANCH  11  12
ENDBRANCH  10  11
ENDBRANCH   1  10
BRANCH   1  17
HETATM   17  N           1     -20.126  -4.138 -11.259  0.00  0.00    -0.066 N 
HETATM   18  H           1     -19.403  -3.388 -11.340  0.00  0.00     0.275 HD
HETATM   19  H           1     -19.659  -5.053 -11.065  0.00  0.00     0.275 HD
HETATM   20  H           1     -20.662  -4.202 -12.152  0.00  0.00     0.275 HD
ENDBRANCH   1  17
TORSDOF 7
ENDMDL
MODEL 7
REMARK VINA RESULT:      -5.5      9.900     12.445
REMARK  7 active torsions:
REMARK  status: ('A' for Active; 'I' for Inactive)
REMARK       I    between atoms: C_4  and  N_20 
REMARK    1  A    between atoms: C_4  and  C_17 
REMARK    2  A    between atoms: C_5  and  C_6 
REMARK       I    between atoms: C_5  and  N_12 
REMARK    3  A    between atoms: C_6  and  C_7 
REMARK    4  A    between atoms: C_7  and  C_17 
REMARK    5  A    between atoms: N_8  and  C_17 
REMARK    6  A    between atoms: C_14  and  C_19 
REMARK    7  A    between atoms: C_14  and  N_20 
ROOT
HETATM    1  C           1     -20.668  -5.142  -7.420  0.00  0.00     0.275 C 
ENDROOT
BRANCH   1   2
HETATM    2  C           1     -22.081  -4.650  -7.611  0.00  0.00     0.248 C 
HETATM    3  N           1     -22.500  -4.237  -8.848  0.00  0.00    -0.349 N 
HETATM    4  H           1     -21.862  -4.263  -9.633  0.00  0.00     0.163 HD
HETATM    5  O           1     -22.843  -4.619  -6.674  0.00  0.00    -0.271 OA
BRANCH   3   6
HETATM    6  C           1     -23.858  -3.764  -9.032  0.00  0.00     0.235 C 
BRANCH   6   7
HETATM    7  C           1     -24.186  -3.736 -10.505  0.00  0.00     0.191 C 
HETATM    8  O           1     -23.413  -4.273 -11.328  0.00  0.00    -0.647 OA
HETATM    9  O           1     -25.230  -3.174 -10.902  0.00  0.00    -0.647 OA
ENDBRANCH   6   7
ENDBRANCH   3   6
ENDBRANCH   1   2
BRANCH   1  10
HETATM   10  C           1     -20.395  -5.336  -5.934  0.00  0.00     0.052 C 
BRANCH  10  11
HETATM   11  C           1     -20.318  -6.824  -5.620  0.00  0.00     0.105 C 
BRANCH  11  12
HETATM   12  C           1     -21.461  -7.209  -4.714  0.00  0.00     0.215 C 
HETATM   13  N           1     -22.256  -6.240  -4.164  0.00  0.00    -0.370 N 
HETATM   14  H           1     -23.023  -6.499  -3.556  0.00  0.00     0.159 HD
HETATM   15  H           1     -22.077  -5.264  -4.365  0.00  0.00     0.159 HD
HETATM   16  O           1     -21.675  -8.374  -4.474  0.00  0.00    -0.274 OA
ENDBRANCH  11  12
ENDBRANCH  10  11
ENDBRANCH   1  10
BRANCH   1  17
HETATM   17  N           1     -19.708  -4.132  -7.976  0.00  0.00    -0.066 N 
HETATM   18  H           1     -18.820  -4.610  -8.252  0.00  0.00     0.275 HD
HETATM   19  H           1     -20.132  -3.675  -8.815  0.00  0.00     0.275 HD
HETATM   20  H           1     -19.503  -3.410  -7.250  0.00  0.00     0.275 HD
ENDBRANCH   1  17
TORSDOF 7
ENDMDL
MODEL 8
REMARK VINA RESULT:      -5.4      2.042      2.738
REMARK  7 active torsions:
REMARK  status: ('A' for Active; 'I' for Inactive)
REMARK       I    between atoms: C_4  and  N_20 
REMARK    1  A    between atoms: C_4  and  C_17 
REMARK    2  A    between atoms: C_5  and  C_6 
REMARK       I    between atoms: C_5  and  N_12 
REMARK    3  A    between atoms: C_6  and  C_7 
REMARK    4  A    between atoms: C_7  and  C_17 
REMARK    5  A    between atoms: N_8  and  C_17 
REMARK    6  A    between atoms: C_14  and  C_19 
REMARK    7  A    between atoms: C_14  and  N_20 
ROOT
HETATM    1  C           1     -29.106  -6.269 -16.098  0.00  0.00     0.275 C 
ENDROOT
BRANCH   1   2
HETATM    2  C           1     -27.639  -5.923 -16.016  0.00  0.00     0.248 C 
HETATM    3  N           1     -26.723  -6.894 -15.711  0.00  0.00    -0.349 N 
HETATM    4  H           1     -27.030  -7.843 -15.541  0.00  0.00     0.163 HD
HETATM    5  O           1     -27.273  -4.790 -16.218  0.00  0.00    -0.271 OA
BRANCH   3   6
HETATM    6  C           1     -25.314  -6.562 -15.631  0.00  0.00     0.235 C 
BRANCH   6   7
HETATM    7  C           1     -24.550  -7.361 -16.659  0.00  0.00     0.191 C 
HETATM    8  O           1     -24.419  -6.923 -17.822  0.00  0.00    -0.647 OA
HETATM    9  O           1     -24.048  -8.463 -16.346  0.00  0.00    -0.647 OA
ENDBRANCH   6   7
ENDBRANCH   3   6
ENDBRANCH   1   2
BRANCH   1  10
HETATM   10  C           1     -29.672  -5.767 -17.421  0.00  0.00     0.052 C 
BRANCH  10  11
HETATM   11  C           1     -29.175  -6.653 -18.555  0.00  0.00     0.105 C 
BRANCH  11  12
HETATM   12  C           1     -30.141  -7.793 -18.766  0.00  0.00     0.215 C 
HETATM   13  N           1     -31.443  -7.672 -18.362  0.00  0.00    -0.370 N 
HETATM   14  H           1     -32.091  -8.437 -18.503  0.00  0.00     0.159 HD
HETATM   15  H           1     -31.759  -6.816 -17.922  0.00  0.00     0.159 HD
HETATM   16  O           1     -29.765  -8.814 -19.291  0.00  0.00    -0.274 OA
ENDBRANCH  11  12
ENDBRANCH  10  11
ENDBRANCH   1  10
BRANCH   1  17
HETATM   17  N           1     -29.837  -5.616 -14.963  0.00  0.00    -0.066 N 
HETATM   18  H           1     -30.845  -5.891 -14.993  0.00  0.00     0.275 HD
HETATM   19  H           1     -29.419  -5.927 -14.056  0.00  0.00     0.275 HD
HETATM   20  H           1     -29.757  -4.579 -15.047  0.00  0.00     0.275 HD
ENDBRANCH   1  17
TORSDOF 7
ENDMDL
MODEL 9
REMARK VINA RESULT:      -5.2      2.225      3.351
REMARK  7 active torsions:
REMARK  status: ('A' for Active; 'I' for Inactive)
REMARK       I    between atoms: C_4  and  N_20 
REMARK    1  A    between atoms: C_4  and  C_17 
REMARK    2  A    between atoms: C_5  and  C_6 
REMARK       I    between atoms: C_5  and  N_12 
REMARK    3  A    between atoms: C_6  and  C_7 
REMARK    4  A    between atoms: C_7  and  C_17 
REMARK    5  A    between atoms: N_8  and  C_17 
REMARK    6  A    between atoms: C_14  and  C_19 
REMARK    7  A    between atoms: C_14  and  N_20 
ROOT
HETATM    1  C           1     -30.774  -4.802 -16.778  0.00  0.00     0.275 C 
ENDROOT
BRANCH   1   2
HETATM    2  C           1     -29.275  -4.670 -16.885  0.00  0.00     0.248 C 
HETATM    3  N           1     -28.474  -5.124 -15.871  0.00  0.00    -0.349 N 
HETATM    4  H           1     -28.887  -5.547 -15.051  0.00  0.00     0.163 HD
HETATM    5  O           1     -28.781  -4.165 -17.865  0.00  0.00    -0.271 OA
BRANCH   3   6
HETATM    6  C           1     -27.033  -4.997 -15.975  0.00  0.00     0.235 C 
BRANCH   6   7
HETATM    7  C           1     -26.431  -6.344 -16.295  0.00  0.00     0.191 C 
HETATM    8  O           1     -26.581  -7.299 -15.503  0.00  0.00    -0.647 OA
HETATM    9  O           1     -25.783  -6.503 -17.352  0.00  0.00    -0.647 OA
ENDBRANCH   6   7
ENDBRANCH   3   6
ENDBRANCH   1   2
BRANCH   1  10
HETATM   10  C           1     -31.236  -6.013 -17.579  0.00  0.00     0.052 C 
BRANCH  10  11
HETATM   11  C           1     -30.368  -7.214 -17.230  0.00  0.00     0.105 C 
BRANCH  11  12
HETATM   12  C           1     -29.704  -7.738 -18.479  0.00  0.00     0.215 C 
HETATM   13  N           1     -28.492  -7.239 -18.872  0.00  0.00    -0.370 N 
HETATM   14  H           1     -28.047  -7.590 -19.710  0.00  0.00     0.159 HD
HETATM   15  H           1     -28.040  -6.518 -18.323  0.00  0.00     0.159 HD
HETATM   16  O           1     -30.243  -8.598 -19.134  0.00  0.00    -0.274 OA
ENDBRANCH  11  12
ENDBRANCH  10  11
ENDBRANCH   1  10
BRANCH   1  17
HETATM   17  N           1     -31.424  -3.565 -17.324  0.00  0.00    -0.066 N 
HETATM   18  H           1     -32.440  -3.568 -17.079  0.00  0.00     0.275 HD
HETATM   19  H           1     -30.969  -2.721 -16.909  0.00  0.00     0.275 HD
HETATM   20  H           1     -31.317  -3.545 -18.362  0.00  0.00     0.275 HD
ENDBRANCH   1  17
TORSDOF 7
ENDMDL
