MODEL 1
REMARK VINA RESULT:      -7.9      0.000      0.000
REMARK  8 active torsions:
REMARK  status: ('A' for Active; 'I' for Inactive)
REMARK    1  A    between atoms: N_2  and  C_7 
REMARK    2  A    between atoms: C_5  and  C_6 
REMARK    3  A    between atoms: C_6  and  C_29 
REMARK    4  A    between atoms: C_7  and  C_19 
REMARK    5  A    between atoms: C_7  and  C_8 
REMARK    6  A    between atoms: C_8  and  C_9 
REMARK       I    between atoms: C_9  and  N_10 
REMARK    7  A    between atoms: C_12  and  C_29 
REMARK       I    between atoms: C_19  and  N_20 
REMARK    8  A    between atoms: N_20  and  C_29 
ROOT
HETATM    1  O           1     -20.854  -5.373  -3.000  0.00  0.00    -0.271 OA
HETATM    2  C           1     -21.563  -6.314  -3.266  0.00  0.00     0.249 C 
HETATM    3  N           1     -22.343  -6.286  -4.391  0.00  0.00    -0.344 N 
HETATM    4  H           1     -23.284  -5.914  -4.345  0.00  0.00     0.163 HD
ENDROOT
BRANCH   3   5
HETATM    5  C           1     -21.823  -6.788  -5.647  0.00  0.00     0.190 C 
BRANCH   5   6
HETATM    6  C           1     -21.007  -5.699  -6.330  0.00  0.00     0.077 C 
BRANCH   6   7
HETATM    7  C           1     -21.864  -4.981  -7.326  0.00  0.00    -0.028 A 
HETATM    8  C           1     -23.158  -4.559  -7.126  0.00  0.00     0.096 A 
HETATM    9  N           1     -23.581  -3.948  -8.276  0.00  0.00    -0.365 N 
HETATM   10  C           1     -22.580  -3.966  -9.222  0.00  0.00     0.042 A 
HETATM   11  H           1     -24.533  -3.526  -8.418  0.00  0.00     0.165 HD
HETATM   12  C           1     -22.561  -3.465 -10.528  0.00  0.00     0.030 A 
HETATM   13  C           1     -21.486  -4.613  -8.646  0.00  0.00    -0.002 A 
HETATM   14  C           1     -21.385  -3.632 -11.266  0.00  0.00     0.002 A 
HETATM   15  C           1     -20.276  -4.272 -10.717  0.00  0.00     0.001 A 
HETATM   16  C           1     -20.313  -4.768  -9.409  0.00  0.00     0.014 A 
ENDBRANCH   6   7
ENDBRANCH   5   6
BRANCH   5  17
HETATM   17  C           1     -20.943  -7.986  -5.383  0.00  0.00     0.197 C 
HETATM   18  O           1     -21.457  -9.088  -5.096  0.00  0.00    -0.646 OA
HETATM   19  O           1     -19.700  -7.874  -5.449  0.00  0.00    -0.646 OA
ENDBRANCH   5  17
ENDBRANCH   3   5
BRANCH   2  20
HETATM   20  C           1     -21.590  -7.520  -2.359  0.00  0.00     0.283 C 
BRANCH  20  21
HETATM   21  N           1     -20.208  -8.095  -2.254  0.00  0.00    -0.066 N 
HETATM   22  H           1     -20.250  -9.129  -2.401  0.00  0.00     0.275 HD
HETATM   23  H           1     -19.595  -7.664  -2.983  0.00  0.00     0.275 HD
HETATM   24  H           1     -19.818  -7.894  -1.306  0.00  0.00     0.275 HD
ENDBRANCH  20  21
BRANCH  20  25
HETATM   25  C           1     -22.071  -7.103  -0.975  0.00  0.00     0.145 C 
BRANCH  25  26
HETATM   26  C           1     -22.600  -8.311  -0.240  0.00  0.00     0.217 C 
HETATM   27  O           1     -22.123  -9.400  -0.447  0.00  0.00    -0.274 OA
HETATM   28  N           1     -23.620  -8.170   0.661  0.00  0.00    -0.370 N 
HETATM   29  H           1     -23.976  -8.979   1.154  0.00  0.00     0.159 HD
HETATM   30  H           1     -24.020  -7.256   0.834  0.00  0.00     0.159 HD
ENDBRANCH  25  26
ENDBRANCH  20  25
ENDBRANCH   2  20
TORSDOF 8
ENDMDL
MODEL 2
REMARK VINA RESULT:      -7.7      2.294      7.309
REMARK  8 active torsions:
REMARK  status: ('A' for Active; 'I' for Inactive)
REMARK    1  A    between atoms: N_2  and  C_7 
REMARK    2  A    between atoms: C_5  and  C_6 
REMARK    3  A    between atoms: C_6  and  C_29 
REMARK    4  A    between atoms: C_7  and  C_19 
REMARK    5  A    between atoms: C_7  and  C_8 
REMARK    6  A    between atoms: C_8  and  C_9 
REMARK       I    between atoms: C_9  and  N_10 
REMARK    7  A    between atoms: C_12  and  C_29 
REMARK       I    between atoms: C_19  and  N_20 
REMARK    8  A    between atoms: N_20  and  C_29 
ROOT
HETATM    1  O           1     -19.005  -4.983  -6.925  0.00  0.00    -0.271 OA
HETATM    2  C           1     -20.022  -5.630  -6.845  0.00  0.00     0.249 C 
HETATM    3  N           1     -19.960  -6.979  -6.621  0.00  0.00    -0.344 N 
HETATM    4  H           1     -19.914  -7.620  -7.403  0.00  0.00     0.163 HD
ENDROOT
BRANCH   3   5
HETATM    5  C           1     -19.960  -7.490  -5.264  0.00  0.00     0.190 C 
BRANCH   5   6
HETATM    6  C           1     -21.374  -7.904  -4.879  0.00  0.00     0.077 C 
BRANCH   6   7
HETATM    7  C           1     -21.710  -7.343  -3.532  0.00  0.00    -0.028 A 
HETATM    8  C           1     -22.038  -6.035  -3.257  0.00  0.00     0.096 A 
HETATM    9  N           1     -22.274  -5.937  -1.912  0.00  0.00    -0.365 N 
HETATM   10  C           1     -22.105  -7.162  -1.307  0.00  0.00     0.042 A 
HETATM   11  H           1     -22.546  -5.053  -1.412  0.00  0.00     0.165 HD
HETATM   12  C           1     -22.239  -7.534   0.035  0.00  0.00     0.030 A 
HETATM   13  C           1     -21.748  -8.066  -2.308  0.00  0.00    -0.002 A 
HETATM   14  C           1     -22.000  -8.873   0.361  0.00  0.00     0.002 A 
HETATM   15  C           1     -21.644  -9.798  -0.617  0.00  0.00     0.001 A 
HETATM   16  C           1     -21.514  -9.409  -1.955  0.00  0.00     0.014 A 
ENDBRANCH   6   7
ENDBRANCH   5   6
BRANCH   5  17
HETATM   17  C           1     -19.044  -8.685  -5.177  0.00  0.00     0.197 C 
HETATM   18  O           1     -18.753  -9.327  -6.209  0.00  0.00    -0.646 OA
HETATM   19  O           1     -18.576  -9.035  -4.071  0.00  0.00    -0.646 OA
ENDBRANCH   5  17
ENDBRANCH   3   5
BRANCH   2  20
HETATM   20  C           1     -21.362  -4.951  -6.993  0.00  0.00     0.283 C 
BRANCH  20  21
HETATM   21  N           1     -21.182  -3.465  -6.891  0.00  0.00    -0.066 N 
HETATM   22  H           1     -20.382  -3.169  -7.495  0.00  0.00     0.275 HD
HETATM   23  H           1     -22.055  -2.986  -7.210  0.00  0.00     0.275 HD
HETATM   24  H           1     -20.984  -3.205  -5.898  0.00  0.00     0.275 HD
ENDBRANCH  20  21
BRANCH  20  25
HETATM   25  C           1     -21.959  -5.297  -8.351  0.00  0.00     0.145 C 
BRANCH  25  26
HETATM   26  C           1     -22.820  -4.154  -8.830  0.00  0.00     0.217 C 
HETATM   27  O           1     -22.403  -3.393  -9.669  0.00  0.00    -0.274 OA
HETATM   28  N           1     -24.075  -3.980  -8.311  0.00  0.00    -0.370 N 
HETATM   29  H           1     -24.653  -3.213  -8.631  0.00  0.00     0.159 HD
HETATM   30  H           1     -24.425  -4.617  -7.607  0.00  0.00     0.159 HD
ENDBRANCH  25  26
ENDBRANCH  20  25
ENDBRANCH   2  20
TORSDOF 8
ENDMDL
MODEL 3
REMARK VINA RESULT:      -7.6      2.243      3.342
REMARK  8 active torsions:
REMARK  status: ('A' for Active; 'I' for Inactive)
REMARK    1  A    between atoms: N_2  and  C_7 
REMARK    2  A    between atoms: C_5  and  C_6 
REMARK    3  A    between atoms: C_6  and  C_29 
REMARK    4  A    between atoms: C_7  and  C_19 
REMARK    5  A    between atoms: C_7  and  C_8 
REMARK    6  A    between atoms: C_8  and  C_9 
REMARK       I    between atoms: C_9  and  N_10 
REMARK    7  A    between atoms: C_12  and  C_29 
REMARK       I    between atoms: C_19  and  N_20 
REMARK    8  A    between atoms: N_20  and  C_29 
ROOT
HETATM    1  O           1     -21.354 -11.548  -2.148  0.00  0.00    -0.271 OA
HETATM    2  C           1     -21.142 -10.361  -2.229  0.00  0.00     0.249 C 
HETATM    3  N           1     -20.255  -9.887  -3.158  0.00  0.00    -0.344 N 
HETATM    4  H           1     -19.276  -9.788  -2.919  0.00  0.00     0.163 HD
ENDROOT
BRANCH   3   5
HETATM    5  C           1     -20.718  -9.525  -4.484  0.00  0.00     0.190 C 
BRANCH   5   6
HETATM    6  C           1     -19.942  -8.311  -4.977  0.00  0.00     0.077 C 
BRANCH   6   7
HETATM    7  C           1     -20.900  -7.222  -5.350  0.00  0.00    -0.028 A 
HETATM    8  C           1     -22.188  -7.081  -4.884  0.00  0.00     0.096 A 
HETATM    9  N           1     -22.722  -5.962  -5.465  0.00  0.00    -0.365 N 
HETATM   10  C           1     -21.802  -5.373  -6.303  0.00  0.00     0.042 A 
HETATM   11  H           1     -23.696  -5.604  -5.297  0.00  0.00     0.165 HD
HETATM   12  C           1     -21.905  -4.225  -7.096  0.00  0.00     0.030 A 
HETATM   13  C           1     -20.643  -6.150  -6.247  0.00  0.00    -0.002 A 
HETATM   14  C           1     -20.788  -3.862  -7.855  0.00  0.00     0.002 A 
HETATM   15  C           1     -19.618  -4.618  -7.819  0.00  0.00     0.001 A 
HETATM   16  C           1     -19.532  -5.763  -7.020  0.00  0.00     0.014 A 
ENDBRANCH   6   7
ENDBRANCH   5   6
BRANCH   5  17
HETATM   17  C           1     -20.496 -10.682  -5.426  0.00  0.00     0.197 C 
HETATM   18  O           1     -21.189 -10.788  -6.460  0.00  0.00    -0.646 OA
HETATM   19  O           1     -19.619 -11.536  -5.171  0.00  0.00    -0.646 OA
ENDBRANCH   5  17
ENDBRANCH   3   5
BRANCH   2  20
HETATM   20  C           1     -21.853  -9.402  -1.306  0.00  0.00     0.283 C 
BRANCH  20  21
HETATM   21  N           1     -21.723  -9.884   0.109  0.00  0.00    -0.066 N 
HETATM   22  H           1     -22.441  -9.413   0.705  0.00  0.00     0.275 HD
HETATM   23  H           1     -21.869 -10.918   0.139  0.00  0.00     0.275 HD
HETATM   24  H           1     -20.768  -9.655   0.469  0.00  0.00     0.275 HD
ENDBRANCH  20  21
BRANCH  20  25
HETATM   25  C           1     -21.227  -8.019  -1.430  0.00  0.00     0.145 C 
BRANCH  25  26
HETATM   26  C           1     -22.260  -6.967  -1.113  0.00  0.00     0.217 C 
HETATM   27  O           1     -23.121  -7.191  -0.297  0.00  0.00    -0.274 OA
HETATM   28  N           1     -22.222  -5.757  -1.753  0.00  0.00    -0.370 N 
HETATM   29  H           1     -22.916  -5.050  -1.541  0.00  0.00     0.159 HD
HETATM   30  H           1     -21.501  -5.568  -2.437  0.00  0.00     0.159 HD
ENDBRANCH  25  26
ENDBRANCH  20  25
ENDBRANCH   2  20
TORSDOF 8
ENDMDL
MODEL 4
REMARK VINA RESULT:      -7.5      2.340      7.236
REMARK  8 active torsions:
REMARK  status: ('A' for Active; 'I' for Inactive)
REMARK    1  A    between atoms: N_2  and  C_7 
REMARK    2  A    between atoms: C_5  and  C_6 
REMARK    3  A    between atoms: C_6  and  C_29 
REMARK    4  A    between atoms: C_7  and  C_19 
REMARK    5  A    between atoms: C_7  and  C_8 
REMARK    6  A    between atoms: C_8  and  C_9 
REMARK       I    between atoms: C_9  and  N_10 
REMARK    7  A    between atoms: C_12  and  C_29 
REMARK       I    between atoms: C_19  and  N_20 
REMARK    8  A    between atoms: N_20  and  C_29 
ROOT
HETATM    1  O           1     -19.554  -4.928  -5.983  0.00  0.00    -0.271 OA
HETATM    2  C           1     -20.268  -5.841  -6.325  0.00  0.00     0.249 C 
HETATM    3  N           1     -19.784  -7.122  -6.330  0.00  0.00    -0.344 N 
HETATM    4  H           1     -19.340  -7.493  -7.161  0.00  0.00     0.163 HD
ENDROOT
BRANCH   3   5
HETATM    5  C           1     -19.910  -7.948  -5.145  0.00  0.00     0.190 C 
BRANCH   5   6
HETATM    6  C           1     -21.251  -8.671  -5.170  0.00  0.00     0.077 C 
BRANCH   6   7
HETATM    7  C           1     -21.547  -9.225  -3.811  0.00  0.00    -0.028 A 
HETATM    8  C           1     -21.610 -10.558  -3.476  0.00  0.00     0.096 A 
HETATM    9  N           1     -21.904 -10.640  -2.141  0.00  0.00    -0.365 N 
HETATM   10  C           1     -22.032  -9.379  -1.602  0.00  0.00     0.042 A 
HETATM   11  H           1     -22.016 -11.537  -1.604  0.00  0.00     0.165 HD
HETATM   12  C           1     -22.324  -8.981  -0.293  0.00  0.00     0.030 A 
HETATM   13  C           1     -21.811  -8.469  -2.637  0.00  0.00    -0.002 A 
HETATM   14  C           1     -22.391  -7.607  -0.036  0.00  0.00     0.002 A 
HETATM   15  C           1     -22.173  -6.675  -1.049  0.00  0.00     0.001 A 
HETATM   16  C           1     -21.884  -7.092  -2.353  0.00  0.00     0.014 A 
ENDBRANCH   6   7
ENDBRANCH   5   6
BRANCH   5  17
HETATM   17  C           1     -18.793  -8.962  -5.118  0.00  0.00     0.197 C 
HETATM   18  O           1     -18.188  -9.198  -4.051  0.00  0.00    -0.646 OA
HETATM   19  O           1     -18.471  -9.564  -6.166  0.00  0.00    -0.646 OA
ENDBRANCH   5  17
ENDBRANCH   3   5
BRANCH   2  20
HETATM   20  C           1     -21.690  -5.570  -6.749  0.00  0.00     0.283 C 
BRANCH  20  21
HETATM   21  N           1     -22.587  -5.622  -5.547  0.00  0.00    -0.066 N 
HETATM   22  H           1     -22.519  -6.565  -5.103  0.00  0.00     0.275 HD
HETATM   23  H           1     -22.291  -4.891  -4.860  0.00  0.00     0.275 HD
HETATM   24  H           1     -23.574  -5.445  -5.840  0.00  0.00     0.275 HD
ENDBRANCH  20  21
BRANCH  20  25
HETATM   25  C           1     -21.776  -4.189  -7.385  0.00  0.00     0.145 C 
BRANCH  25  26
HETATM   26  C           1     -22.749  -4.223  -8.538  0.00  0.00     0.217 C 
HETATM   27  O           1     -22.368  -4.533  -9.641  0.00  0.00    -0.274 OA
HETATM   28  N           1     -24.064  -3.903  -8.332  0.00  0.00    -0.370 N 
HETATM   29  H           1     -24.717  -3.925  -9.105  0.00  0.00     0.159 HD
HETATM   30  H           1     -24.383  -3.643  -7.408  0.00  0.00     0.159 HD
ENDBRANCH  25  26
ENDBRANCH  20  25
ENDBRANCH   2  20
TORSDOF 8
ENDMDL
MODEL 5
REMARK VINA RESULT:      -7.5      2.443      7.944
REMARK  8 active torsions:
REMARK  status: ('A' for Active; 'I' for Inactive)
REMARK    1  A    between atoms: N_2  and  C_7 
REMARK    2  A    between atoms: C_5  and  C_6 
REMARK    3  A    between atoms: C_6  and  C_29 
REMARK    4  A    between atoms: C_7  and  C_19 
REMARK    5  A    between atoms: C_7  and  C_8 
REMARK    6  A    between atoms: C_8  and  C_9 
REMARK       I    between atoms: C_9  and  N_10 
REMARK    7  A    between atoms: C_12  and  C_29 
REMARK       I    between atoms: C_19  and  N_20 
REMARK    8  A    between atoms: N_20  and  C_29 
ROOT
HETATM    1  O           1     -19.672  -4.612  -6.314  0.00  0.00    -0.271 OA
HETATM    2  C           1     -20.305  -5.449  -6.912  0.00  0.00     0.249 C 
HETATM    3  N           1     -20.178  -6.771  -6.579  0.00  0.00    -0.344 N 
HETATM    4  H           1     -19.476  -7.342  -7.032  0.00  0.00     0.163 HD
ENDROOT
BRANCH   3   5
HETATM    5  C           1     -21.050  -7.353  -5.576  0.00  0.00     0.190 C 
BRANCH   5   6
HETATM    6  C           1     -20.210  -8.086  -4.538  0.00  0.00     0.077 C 
BRANCH   6   7
HETATM    7  C           1     -21.086  -9.008  -3.747  0.00  0.00    -0.028 A 
HETATM    8  C           1     -21.684 -10.157  -4.214  0.00  0.00     0.096 A 
HETATM    9  N           1     -22.395 -10.706  -3.180  0.00  0.00    -0.365 N 
HETATM   10  C           1     -22.269  -9.932  -2.049  0.00  0.00     0.042 A 
HETATM   11  H           1     -22.958 -11.592  -3.242  0.00  0.00     0.165 HD
HETATM   12  C           1     -22.813 -10.102  -0.771  0.00  0.00     0.030 A 
HETATM   13  C           1     -21.447  -8.854  -2.381  0.00  0.00    -0.002 A 
HETATM   14  C           1     -22.506  -9.138   0.195  0.00  0.00     0.002 A 
HETATM   15  C           1     -21.687  -8.052  -0.107  0.00  0.00     0.001 A 
HETATM   16  C           1     -21.152  -7.898  -1.391  0.00  0.00     0.014 A 
ENDBRANCH   6   7
ENDBRANCH   5   6
BRANCH   5  17
HETATM   17  C           1     -21.840  -6.258  -4.903  0.00  0.00     0.197 C 
HETATM   18  O           1     -22.992  -5.983  -5.301  0.00  0.00    -0.646 OA
HETATM   19  O           1     -21.342  -5.626  -3.947  0.00  0.00    -0.646 OA
ENDBRANCH   5  17
ENDBRANCH   3   5
BRANCH   2  20
HETATM   20  C           1     -21.234  -5.039  -8.028  0.00  0.00     0.283 C 
BRANCH  20  21
HETATM   21  N           1     -22.140  -3.944  -7.545  0.00  0.00    -0.066 N 
HETATM   22  H           1     -21.667  -3.020  -7.672  0.00  0.00     0.275 HD
HETATM   23  H           1     -23.028  -3.959  -8.096  0.00  0.00     0.275 HD
HETATM   24  H           1     -22.354  -4.090  -6.533  0.00  0.00     0.275 HD
ENDBRANCH  20  21
BRANCH  20  25
HETATM   25  C           1     -20.416  -4.535  -9.210  0.00  0.00     0.145 C 
BRANCH  25  26
HETATM   26  C           1     -21.335  -4.242 -10.371  0.00  0.00     0.217 C 
HETATM   27  O           1     -22.464  -4.668 -10.370  0.00  0.00    -0.274 OA
HETATM   28  N           1     -20.886  -3.493 -11.425  0.00  0.00    -0.370 N 
HETATM   29  H           1     -21.502  -3.296 -12.205  0.00  0.00     0.159 HD
HETATM   30  H           1     -19.939  -3.135 -11.426  0.00  0.00     0.159 HD
ENDBRANCH  25  26
ENDBRANCH  20  25
ENDBRANCH   2  20
TORSDOF 8
ENDMDL
MODEL 6
REMARK VINA RESULT:      -7.4      3.104      6.874
REMARK  8 active torsions:
REMARK  status: ('A' for Active; 'I' for Inactive)
REMARK    1  A    between atoms: N_2  and  C_7 
REMARK    2  A    between atoms: C_5  and  C_6 
REMARK    3  A    between atoms: C_6  and  C_29 
REMARK    4  A    between atoms: C_7  and  C_19 
REMARK    5  A    between atoms: C_7  and  C_8 
REMARK    6  A    between atoms: C_8  and  C_9 
REMARK       I    between atoms: C_9  and  N_10 
REMARK    7  A    between atoms: C_12  and  C_29 
REMARK       I    between atoms: C_19  and  N_20 
REMARK    8  A    between atoms: N_20  and  C_29 
ROOT
HETATM    1  O           1     -22.685  -5.935  -4.935  0.00  0.00    -0.271 OA
HETATM    2  C           1     -21.558  -6.154  -4.556  0.00  0.00     0.249 C 
HETATM    3  N           1     -21.319  -6.410  -3.232  0.00  0.00    -0.344 N 
HETATM    4  H           1     -21.114  -5.648  -2.598  0.00  0.00     0.163 HD
ENDROOT
BRANCH   3   5
HETATM    5  C           1     -21.360  -7.773  -2.740  0.00  0.00     0.190 C 
BRANCH   5   6
HETATM    6  C           1     -19.938  -8.282  -2.540  0.00  0.00     0.077 C 
BRANCH   6   7
HETATM    7  C           1     -19.544  -9.137  -3.704  0.00  0.00    -0.028 A 
HETATM    8  C           1     -20.388  -9.615  -4.680  0.00  0.00     0.096 A 
HETATM    9  N           1     -19.636 -10.351  -5.558  0.00  0.00    -0.365 N 
HETATM   10  C           1     -18.316 -10.358  -5.167  0.00  0.00     0.042 A 
HETATM   11  H           1     -20.013 -10.841  -6.408  0.00  0.00     0.165 HD
HETATM   12  C           1     -17.203 -10.972  -5.751  0.00  0.00     0.030 A 
HETATM   13  C           1     -18.232  -9.598  -3.999  0.00  0.00    -0.002 A 
HETATM   14  C           1     -15.966 -10.802  -5.120  0.00  0.00     0.002 A 
HETATM   15  C           1     -15.852 -10.048  -3.954  0.00  0.00     0.001 A 
HETATM   16  C           1     -16.976  -9.442  -3.383  0.00  0.00     0.014 A 
ENDBRANCH   6   7
ENDBRANCH   5   6
BRANCH   5  17
HETATM   17  C           1     -22.098  -7.810  -1.424  0.00  0.00     0.197 C 
HETATM   18  O           1     -22.140  -8.867  -0.760  0.00  0.00    -0.646 OA
HETATM   19  O           1     -22.668  -6.782  -1.000  0.00  0.00    -0.646 OA
ENDBRANCH   5  17
ENDBRANCH   3   5
BRANCH   2  20
HETATM   20  C           1     -20.415  -6.142  -5.541  0.00  0.00     0.283 C 
BRANCH  20  21
HETATM   21  N           1     -20.852  -6.791  -6.821  0.00  0.00    -0.066 N 
HETATM   22  H           1     -20.027  -7.228  -7.289  0.00  0.00     0.275 HD
HETATM   23  H           1     -21.565  -7.527  -6.611  0.00  0.00     0.275 HD
HETATM   24  H           1     -21.270  -6.071  -7.452  0.00  0.00     0.275 HD
ENDBRANCH  20  21
BRANCH  20  25
HETATM   25  C           1     -19.999  -4.703  -5.819  0.00  0.00     0.145 C 
BRANCH  25  26
HETATM   26  C           1     -20.597  -4.249  -7.128  0.00  0.00     0.217 C 
HETATM   27  O           1     -20.008  -4.450  -8.163  0.00  0.00    -0.274 OA
HETATM   28  N           1     -21.807  -3.609  -7.142  0.00  0.00    -0.370 N 
HETATM   29  H           1     -22.208  -3.304  -8.020  0.00  0.00     0.159 HD
HETATM   30  H           1     -22.301  -3.441  -6.275  0.00  0.00     0.159 HD
ENDBRANCH  25  26
ENDBRANCH  20  25
ENDBRANCH   2  20
TORSDOF 8
ENDMDL
MODEL 7
REMARK VINA RESULT:      -7.0      2.363      4.208
REMARK  8 active torsions:
REMARK  status: ('A' for Active; 'I' for Inactive)
REMARK    1  A    between atoms: N_2  and  C_7 
REMARK    2  A    between atoms: C_5  and  C_6 
REMARK    3  A    between atoms: C_6  and  C_29 
REMARK    4  A    between atoms: C_7  and  C_19 
REMARK    5  A    between atoms: C_7  and  C_8 
REMARK    6  A    between atoms: C_8  and  C_9 
REMARK       I    between atoms: C_9  and  N_10 
REMARK    7  A    between atoms: C_12  and  C_29 
REMARK       I    between atoms: C_19  and  N_20 
REMARK    8  A    between atoms: N_20  and  C_29 
ROOT
HETATM    1  O           1     -21.904  -9.903  -2.862  0.00  0.00    -0.271 OA
HETATM    2  C           1     -21.499  -9.493  -3.924  0.00  0.00     0.249 C 
HETATM    3  N           1     -22.010  -8.337  -4.450  0.00  0.00    -0.344 N 
HETATM    4  H           1     -22.818  -8.371  -5.059  0.00  0.00     0.163 HD
ENDROOT
BRANCH   3   5
HETATM    5  C           1     -21.392  -7.063  -4.136  0.00  0.00     0.190 C 
BRANCH   5   6
HETATM    6  C           1     -22.015  -5.972  -4.997  0.00  0.00     0.077 C 
BRANCH   6   7
HETATM    7  C           1     -21.204  -5.793  -6.243  0.00  0.00    -0.028 A 
HETATM    8  C           1     -19.951  -6.311  -6.475  0.00  0.00     0.096 A 
HETATM    9  N           1     -19.562  -5.918  -7.728  0.00  0.00    -0.365 N 
HETATM   10  C           1     -20.545  -5.153  -8.315  0.00  0.00     0.042 A 
HETATM   11  H           1     -18.645  -6.166  -8.178  0.00  0.00     0.165 HD
HETATM   12  C           1     -20.586  -4.543  -9.574  0.00  0.00     0.030 A 
HETATM   13  C           1     -21.592  -5.059  -7.397  0.00  0.00    -0.002 A 
HETATM   14  C           1     -21.735  -3.816  -9.902  0.00  0.00     0.002 A 
HETATM   15  C           1     -22.796  -3.706  -9.006  0.00  0.00     0.001 A 
HETATM   16  C           1     -22.738  -4.322  -7.751  0.00  0.00     0.014 A 
ENDBRANCH   6   7
ENDBRANCH   5   6
BRANCH   5  17
HETATM   17  C           1     -21.615  -6.744  -2.679  0.00  0.00     0.197 C 
HETATM   18  O           1     -22.600  -6.057  -2.332  0.00  0.00    -0.646 OA
HETATM   19  O           1     -20.812  -7.164  -1.818  0.00  0.00    -0.646 OA
ENDBRANCH   5  17
ENDBRANCH   3   5
BRANCH   2  20
HETATM   20  C           1     -20.432 -10.256  -4.672  0.00  0.00     0.283 C 
BRANCH  20  21
HETATM   21  N           1     -20.769 -10.279  -6.134  0.00  0.00    -0.066 N 
HETATM   22  H           1     -21.210 -11.196  -6.375  0.00  0.00     0.275 HD
HETATM   23  H           1     -21.436  -9.504  -6.350  0.00  0.00     0.275 HD
HETATM   24  H           1     -19.896 -10.156  -6.694  0.00  0.00     0.275 HD
ENDBRANCH  20  21
BRANCH  20  25
HETATM   25  C           1     -19.086  -9.573  -4.473  0.00  0.00     0.145 C 
BRANCH  25  26
HETATM   26  C           1     -18.157  -9.949  -5.601  0.00  0.00     0.217 C 
HETATM   27  O           1     -18.058  -9.231  -6.567  0.00  0.00    -0.274 OA
HETATM   28  N           1     -17.428 -11.105  -5.529  0.00  0.00    -0.370 N 
HETATM   29  H           1     -16.805 -11.359  -6.286  0.00  0.00     0.159 HD
HETATM   30  H           1     -17.511 -11.707  -4.720  0.00  0.00     0.159 HD
ENDBRANCH  25  26
ENDBRANCH  20  25
ENDBRANCH   2  20
TORSDOF 8
ENDMDL
MODEL 8
REMARK VINA RESULT:      -6.9      4.539      8.377
REMARK  8 active torsions:
REMARK  status: ('A' for Active; 'I' for Inactive)
REMARK    1  A    between atoms: N_2  and  C_7 
REMARK    2  A    between atoms: C_5  and  C_6 
REMARK    3  A    between atoms: C_6  and  C_29 
REMARK    4  A    between atoms: C_7  and  C_19 
REMARK    5  A    between atoms: C_7  and  C_8 
REMARK    6  A    between atoms: C_8  and  C_9 
REMARK       I    between atoms: C_9  and  N_10 
REMARK    7  A    between atoms: C_12  and  C_29 
REMARK       I    between atoms: C_19  and  N_20 
REMARK    8  A    between atoms: N_20  and  C_29 
ROOT
HETATM    1  O           1     -21.196  -8.453  -5.932  0.00  0.00    -0.271 OA
HETATM    2  C           1     -20.556  -8.833  -4.981  0.00  0.00     0.249 C 
HETATM    3  N           1     -20.329  -7.988  -3.927  0.00  0.00    -0.344 N 
HETATM    4  H           1     -19.509  -7.395  -3.921  0.00  0.00     0.163 HD
ENDROOT
BRANCH   3   5
HETATM    5  C           1     -21.264  -7.944  -2.820  0.00  0.00     0.190 C 
BRANCH   5   6
HETATM    6  C           1     -20.519  -8.202  -1.517  0.00  0.00     0.077 C 
BRANCH   6   7
HETATM    7  C           1     -20.636  -9.649  -1.150  0.00  0.00    -0.028 A 
HETATM    8  C           1     -19.628 -10.584  -1.213  0.00  0.00     0.096 A 
HETATM    9  N           1     -20.143 -11.782  -0.793  0.00  0.00    -0.365 N 
HETATM   10  C           1     -21.471 -11.639  -0.458  0.00  0.00     0.042 A 
HETATM   11  H           1     -19.603 -12.682  -0.736  0.00  0.00     0.165 HD
HETATM   12  C           1     -22.391 -12.581   0.016  0.00  0.00     0.030 A 
HETATM   13  C           1     -21.806 -10.301  -0.674  0.00  0.00    -0.002 A 
HETATM   14  C           1     -23.692 -12.139   0.275  0.00  0.00     0.002 A 
HETATM   15  C           1     -24.055 -10.810   0.070  0.00  0.00     0.001 A 
HETATM   16  C           1     -23.122  -9.881  -0.405  0.00  0.00     0.014 A 
ENDBRANCH   6   7
ENDBRANCH   5   6
BRANCH   5  17
HETATM   17  C           1     -21.917  -6.585  -2.767  0.00  0.00     0.197 C 
HETATM   18  O           1     -22.262  -6.100  -1.669  0.00  0.00    -0.646 OA
HETATM   19  O           1     -22.113  -5.945  -3.823  0.00  0.00    -0.646 OA
ENDBRANCH   5  17
ENDBRANCH   3   5
BRANCH   2  20
HETATM   20  C           1     -20.004 -10.237  -4.954  0.00  0.00     0.283 C 
BRANCH  20  21
HETATM   21  N           1     -20.202 -10.876  -6.298  0.00  0.00    -0.066 N 
HETATM   22  H           1     -21.115 -10.564  -6.700  0.00  0.00     0.275 HD
HETATM   23  H           1     -19.425 -10.591  -6.936  0.00  0.00     0.275 HD
HETATM   24  H           1     -20.204 -11.915  -6.193  0.00  0.00     0.275 HD
ENDBRANCH  20  21
BRANCH  20  25
HETATM   25  C           1     -18.517 -10.193  -4.629  0.00  0.00     0.145 C 
BRANCH  25  26
HETATM   26  C           1     -17.721 -10.159  -5.910  0.00  0.00     0.217 C 
HETATM   27  O           1     -17.794  -9.202  -6.642  0.00  0.00    -0.274 OA
HETATM   28  N           1     -16.915 -11.215  -6.242  0.00  0.00    -0.370 N 
HETATM   29  H           1     -16.381 -11.193  -7.102  0.00  0.00     0.159 HD
HETATM   30  H           1     -16.853 -12.017  -5.628  0.00  0.00     0.159 HD
ENDBRANCH  25  26
ENDBRANCH  20  25
ENDBRANCH   2  20
TORSDOF 8
ENDMDL
MODEL 9
REMARK VINA RESULT:      -6.9      4.306      7.598
REMARK  8 active torsions:
REMARK  status: ('A' for Active; 'I' for Inactive)
REMARK    1  A    between atoms: N_2  and  C_7 
REMARK    2  A    between atoms: C_5  and  C_6 
REMARK    3  A    between atoms: C_6  and  C_29 
REMARK    4  A    between atoms: C_7  and  C_19 
REMARK    5  A    between atoms: C_7  and  C_8 
REMARK    6  A    between atoms: C_8  and  C_9 
REMARK       I    between atoms: C_9  and  N_10 
REMARK    7  A    between atoms: C_12  and  C_29 
REMARK       I    between atoms: C_19  and  N_20 
REMARK    8  A    between atoms: N_20  and  C_29 
ROOT
HETATM    1  O           1     -20.339  -9.683  -5.655  0.00  0.00    -0.271 OA
HETATM    2  C           1     -19.821  -9.343  -4.618  0.00  0.00     0.249 C 
HETATM    3  N           1     -19.985  -8.064  -4.158  0.00  0.00    -0.344 N 
HETATM    4  H           1     -19.330  -7.341  -4.428  0.00  0.00     0.163 HD
ENDROOT
BRANCH   3   5
HETATM    5  C           1     -21.097  -7.746  -3.284  0.00  0.00     0.190 C 
BRANCH   5   6
HETATM    6  C           1     -20.642  -7.832  -1.833  0.00  0.00     0.077 C 
BRANCH   6   7
HETATM    7  C           1     -21.756  -8.370  -0.989  0.00  0.00    -0.028 A 
HETATM    8  C           1     -22.354  -7.726   0.070  0.00  0.00     0.096 A 
HETATM    9  N           1     -23.324  -8.555   0.569  0.00  0.00    -0.365 N 
HETATM   10  C           1     -23.364  -9.729  -0.150  0.00  0.00     0.042 A 
HETATM   11  H           1     -23.947  -8.329   1.384  0.00  0.00     0.165 HD
HETATM   12  C           1     -24.185 -10.852  -0.002  0.00  0.00     0.030 A 
HETATM   13  C           1     -22.384  -9.636  -1.140  0.00  0.00    -0.002 A 
HETATM   14  C           1     -23.996 -11.913  -0.894  0.00  0.00     0.002 A 
HETATM   15  C           1     -23.026 -11.848  -1.892  0.00  0.00     0.001 A 
HETATM   16  C           1     -22.214 -10.717  -2.026  0.00  0.00     0.014 A 
ENDBRANCH   6   7
ENDBRANCH   5   6
BRANCH   5  17
HETATM   17  C           1     -21.583  -6.348  -3.577  0.00  0.00     0.197 C 
HETATM   18  O           1     -21.746  -5.978  -4.760  0.00  0.00    -0.646 OA
HETATM   19  O           1     -21.821  -5.559  -2.637  0.00  0.00    -0.646 OA
ENDBRANCH   5  17
ENDBRANCH   3   5
BRANCH   2  20
HETATM   20  C           1     -18.991 -10.327  -3.831  0.00  0.00     0.283 C 
BRANCH  20  21
HETATM   21  N           1     -18.449 -11.375  -4.757  0.00  0.00    -0.066 N 
HETATM   22  H           1     -17.489 -11.651  -4.448  0.00  0.00     0.275 HD
HETATM   23  H           1     -19.075 -12.213  -4.739  0.00  0.00     0.275 HD
HETATM   24  H           1     -18.405 -10.993  -5.729  0.00  0.00     0.275 HD
ENDBRANCH  20  21
BRANCH  20  25
HETATM   25  C           1     -17.834  -9.595  -3.162  0.00  0.00     0.145 C 
BRANCH  25  26
HETATM   26  C           1     -16.977 -10.585  -2.412  0.00  0.00     0.217 C 
HETATM   27  O           1     -17.493 -11.484  -1.793  0.00  0.00    -0.274 OA
HETATM   28  N           1     -15.614 -10.463  -2.433  0.00  0.00    -0.370 N 
HETATM   29  H           1     -15.038 -11.127  -1.929  0.00  0.00     0.159 HD
HETATM   30  H           1     -15.181  -9.710  -2.952  0.00  0.00     0.159 HD
ENDBRANCH  25  26
ENDBRANCH  20  25
ENDBRANCH   2  20
TORSDOF 8
ENDMDL
