MODEL 1
REMARK VINA RESULT:      -7.0      0.000      0.000
REMARK  10 active torsions:
REMARK  status: ('A' for Active; 'I' for Inactive)
REMARK    1  A    between atoms: C_2  and  C_3 
REMARK    2  A    between atoms: C_3  and  C_24 
REMARK    3  A    between atoms: C_3  and  N_5 
REMARK    4  A    between atoms: N_4  and  C_19 
REMARK       I    between atoms: N_5  and  C_16 
REMARK    5  A    between atoms: C_6  and  C_7 
REMARK    6  A    between atoms: C_6  and  C_24 
REMARK    7  A    between atoms: C_7  and  N_10 
REMARK       I    between atoms: N_10  and  C_15 
REMARK       I    between atoms: N_11  and  C_15 
REMARK    8  A    between atoms: C_16  and  C_19 
REMARK    9  A    between atoms: C_19  and  C_20 
REMARK   10  A    between atoms: C_20  and  C_27 
ROOT
HETATM    1  C           1     -28.642  -6.327 -18.118  0.00  0.00     0.185 C 
ENDROOT
BRANCH   1   2
HETATM    2  C           1     -29.633  -7.454 -18.283  0.00  0.00     0.196 C 
HETATM    3  O           1     -30.705  -7.442 -17.640  0.00  0.00    -0.646 OA
HETATM    4  O           1     -29.382  -8.398 -19.062  0.00  0.00    -0.646 OA
ENDBRANCH   1   2
BRANCH   1   5
HETATM    5  C           1     -29.234  -5.042 -18.684  0.00  0.00     0.038 C 
BRANCH   5   6
HETATM    6  C           1     -29.143  -3.938 -17.640  0.00  0.00     0.023 C 
BRANCH   6   7
HETATM    7  C           1     -30.532  -3.369 -17.378  0.00  0.00     0.138 C 
BRANCH   7   8
HETATM    8  N           1     -31.411  -4.433 -16.872  0.00  0.00    -0.227 N 
HETATM    9  H           1     -30.995  -5.312 -16.474  0.00  0.00     0.177 HD
HETATM   10  C           1     -32.668  -4.291 -16.916  0.00  0.00     0.665 C 
HETATM   11  N           1     -33.445  -5.232 -16.468  0.00  0.00    -0.235 N 
HETATM   12  N           1     -33.168  -3.231 -17.396  0.00  0.00    -0.235 N 
HETATM   13  H           1     -33.031  -6.106 -16.072  0.00  0.00     0.174 HD
HETATM   14  H           1     -34.482  -5.114 -16.505  0.00  0.00     0.174 HD
HETATM   15  H           1     -34.211  -3.113 -17.432  0.00  0.00     0.174 HD
HETATM   16  H           1     -32.541  -2.471 -17.757  0.00  0.00     0.174 HD
ENDBRANCH   7   8
ENDBRANCH   6   7
ENDBRANCH   5   6
ENDBRANCH   1   5
BRANCH   1  17
HETATM   17  N           1     -27.422  -6.650 -18.830  0.00  0.00    -0.345 N 
HETATM   18  H           1     -27.468  -7.085 -19.743  0.00  0.00     0.163 HD
HETATM   19  C           1     -26.206  -6.366 -18.268  0.00  0.00     0.249 C 
HETATM   20  O           1     -26.151  -5.848 -17.178  0.00  0.00    -0.271 OA
BRANCH  19  21
HETATM   21  C           1     -24.935  -6.703 -19.008  0.00  0.00     0.278 C 
BRANCH  21  22
HETATM   22  N           1     -24.169  -7.739 -18.241  0.00  0.00    -0.066 N 
HETATM   23  H           1     -23.351  -8.059 -18.807  0.00  0.00     0.275 HD
HETATM   24  H           1     -23.830  -7.327 -17.342  0.00  0.00     0.275 HD
HETATM   25  H           1     -24.792  -8.553 -18.038  0.00  0.00     0.275 HD
ENDBRANCH  21  22
BRANCH  21  26
HETATM   26  C           1     -25.279  -7.245 -20.389  0.00  0.00     0.021 C 
HETATM   27  C           1     -25.373  -6.092 -21.379  0.00  0.00     0.012 C 
BRANCH  26  28
HETATM   28  C           1     -24.194  -8.213 -20.840  0.00  0.00     0.002 C 
HETATM   29  C           1     -23.858  -7.955 -22.303  0.00  0.00     0.005 C 
ENDBRANCH  26  28
ENDBRANCH  21  26
ENDBRANCH  19  21
ENDBRANCH   1  17
TORSDOF 10
ENDMDL
MODEL 2
REMARK VINA RESULT:      -6.6      9.909     11.802
REMARK  10 active torsions:
REMARK  status: ('A' for Active; 'I' for Inactive)
REMARK    1  A    between atoms: C_2  and  C_3 
REMARK    2  A    between atoms: C_3  and  C_24 
REMARK    3  A    between atoms: C_3  and  N_5 
REMARK    4  A    between atoms: N_4  and  C_19 
REMARK       I    between atoms: N_5  and  C_16 
REMARK    5  A    between atoms: C_6  and  C_7 
REMARK    6  A    between atoms: C_6  and  C_24 
REMARK    7  A    between atoms: C_7  and  N_10 
REMARK       I    between atoms: N_10  and  C_15 
REMARK       I    between atoms: N_11  and  C_15 
REMARK    8  A    between atoms: C_16  and  C_19 
REMARK    9  A    between atoms: C_19  and  C_20 
REMARK   10  A    between atoms: C_20  and  C_27 
ROOT
HETATM    1  C           1     -35.845  -0.778 -13.358  0.00  0.00     0.185 C 
ENDROOT
BRANCH   1   2
HETATM    2  C           1     -35.115   0.267 -14.167  0.00  0.00     0.196 C 
HETATM    3  O           1     -34.748   1.332 -13.626  0.00  0.00    -0.646 OA
HETATM    4  O           1     -34.879   0.066 -15.378  0.00  0.00    -0.646 OA
ENDBRANCH   1   2
BRANCH   1   5
HETATM    5  C           1     -37.099  -0.165 -12.748  0.00  0.00     0.038 C 
BRANCH   5   6
HETATM    6  C           1     -37.264  -0.660 -11.318  0.00  0.00     0.023 C 
BRANCH   6   7
HETATM    7  C           1     -37.336   0.533 -10.372  0.00  0.00     0.138 C 
BRANCH   7   8
HETATM    8  N           1     -37.829   0.090  -9.060  0.00  0.00    -0.227 N 
HETATM    9  H           1     -38.652  -0.561  -9.001  0.00  0.00     0.177 HD
HETATM   10  C           1     -37.263   0.493  -8.002  0.00  0.00     0.665 C 
HETATM   11  N           1     -37.699   0.101  -6.842  0.00  0.00    -0.235 N 
HETATM   12  N           1     -36.272   1.278  -8.074  0.00  0.00    -0.235 N 
HETATM   13  H           1     -38.517  -0.546  -6.783  0.00  0.00     0.174 HD
HETATM   14  H           1     -37.232   0.435  -5.969  0.00  0.00     0.174 HD
HETATM   15  H           1     -35.803   1.613  -7.197  0.00  0.00     0.174 HD
HETATM   16  H           1     -35.920   1.594  -9.011  0.00  0.00     0.174 HD
ENDBRANCH   7   8
ENDBRANCH   6   7
ENDBRANCH   5   6
ENDBRANCH   1   5
BRANCH   1  17
HETATM   17  N           1     -34.980  -1.259 -12.299  0.00  0.00    -0.345 N 
HETATM   18  H           1     -34.867  -0.718 -11.452  0.00  0.00     0.163 HD
HETATM   19  C           1     -34.316  -2.448 -12.445  0.00  0.00     0.249 C 
HETATM   20  O           1     -34.450  -3.094 -13.457  0.00  0.00    -0.271 OA
BRANCH  19  21
HETATM   21  C           1     -33.415  -2.950 -11.343  0.00  0.00     0.278 C 
BRANCH  21  22
HETATM   22  N           1     -33.154  -1.841 -10.368  0.00  0.00    -0.066 N 
HETATM   23  H           1     -33.416  -0.926 -10.800  0.00  0.00     0.275 HD
HETATM   24  H           1     -33.724  -1.994  -9.505  0.00  0.00     0.275 HD
HETATM   25  H           1     -32.139  -1.830 -10.117  0.00  0.00     0.275 HD
ENDBRANCH  21  22
BRANCH  21  26
HETATM   26  C           1     -34.090  -4.110 -10.624  0.00  0.00     0.021 C 
HETATM   27  C           1     -35.599  -4.015 -10.811  0.00  0.00     0.012 C 
BRANCH  26  28
HETATM   28  C           1     -33.590  -5.427 -11.203  0.00  0.00     0.002 C 
HETATM   29  C           1     -34.326  -6.585 -10.543  0.00  0.00     0.005 C 
ENDBRANCH  26  28
ENDBRANCH  21  26
ENDBRANCH  19  21
ENDBRANCH   1  17
TORSDOF 10
ENDMDL
MODEL 3
REMARK VINA RESULT:      -6.3     13.732     15.376
REMARK  10 active torsions:
REMARK  status: ('A' for Active; 'I' for Inactive)
REMARK    1  A    between atoms: C_2  and  C_3 
REMARK    2  A    between atoms: C_3  and  C_24 
REMARK    3  A    between atoms: C_3  and  N_5 
REMARK    4  A    between atoms: N_4  and  C_19 
REMARK       I    between atoms: N_5  and  C_16 
REMARK    5  A    between atoms: C_6  and  C_7 
REMARK    6  A    between atoms: C_6  and  C_24 
REMARK    7  A    between atoms: C_7  and  N_10 
REMARK       I    between atoms: N_10  and  C_15 
REMARK       I    between atoms: N_11  and  C_15 
REMARK    8  A    between atoms: C_16  and  C_19 
REMARK    9  A    between atoms: C_19  and  C_20 
REMARK   10  A    between atoms: C_20  and  C_27 
ROOT
HETATM    1  C           1     -20.910  -5.205  -6.232  0.00  0.00     0.185 C 
ENDROOT
BRANCH   1   2
HETATM    2  C           1     -19.627  -5.654  -6.888  0.00  0.00     0.196 C 
HETATM    3  O           1     -19.409  -6.872  -7.066  0.00  0.00    -0.646 OA
HETATM    4  O           1     -18.782  -4.808  -7.253  0.00  0.00    -0.646 OA
ENDBRANCH   1   2
BRANCH   1   5
HETATM    5  C           1     -21.175  -3.746  -6.579  0.00  0.00     0.038 C 
BRANCH   5   6
HETATM    6  C           1     -21.843  -3.659  -7.944  0.00  0.00     0.023 C 
BRANCH   6   7
HETATM    7  C           1     -23.160  -4.425  -7.915  0.00  0.00     0.138 C 
BRANCH   7   8
HETATM    8  N           1     -24.176  -3.683  -8.676  0.00  0.00    -0.227 N 
HETATM    9  H           1     -24.666  -2.863  -8.238  0.00  0.00     0.177 HD
HETATM   10  C           1     -24.461  -4.033  -9.859  0.00  0.00     0.665 C 
HETATM   11  N           1     -25.359  -3.377 -10.532  0.00  0.00    -0.235 N 
HETATM   12  N           1     -23.871  -5.021 -10.387  0.00  0.00    -0.235 N 
HETATM   13  H           1     -25.846  -2.562 -10.096  0.00  0.00     0.174 HD
HETATM   14  H           1     -25.594  -3.666 -11.508  0.00  0.00     0.174 HD
HETATM   15  H           1     -24.107  -5.311 -11.368  0.00  0.00     0.174 HD
HETATM   16  H           1     -23.145  -5.551  -9.843  0.00  0.00     0.174 HD
ENDBRANCH   7   8
ENDBRANCH   6   7
ENDBRANCH   5   6
ENDBRANCH   1   5
BRANCH   1  17
HETATM   17  N           1     -20.793  -5.347  -4.794  0.00  0.00    -0.345 N 
HETATM   18  H           1     -20.267  -4.667  -4.260  0.00  0.00     0.163 HD
HETATM   19  C           1     -21.396  -6.400  -4.159  0.00  0.00     0.249 C 
HETATM   20  O           1     -22.023  -7.211  -4.797  0.00  0.00    -0.271 OA
BRANCH  19  21
HETATM   21  C           1     -21.274  -6.547  -2.662  0.00  0.00     0.278 C 
BRANCH  21  22
HETATM   22  N           1     -22.396  -5.809  -1.995  0.00  0.00    -0.066 N 
HETATM   23  H           1     -23.206  -6.454  -1.857  0.00  0.00     0.275 HD
HETATM   24  H           1     -22.074  -5.452  -1.067  0.00  0.00     0.275 HD
HETATM   25  H           1     -22.689  -5.004  -2.595  0.00  0.00     0.275 HD
ENDBRANCH  21  22
BRANCH  21  26
HETATM   26  C           1     -21.344  -8.022  -2.290  0.00  0.00     0.021 C 
HETATM   27  C           1     -19.948  -8.629  -2.357  0.00  0.00     0.012 C 
BRANCH  26  28
HETATM   28  C           1     -21.890  -8.163  -0.875  0.00  0.00     0.002 C 
HETATM   29  C           1     -22.589  -9.509  -0.732  0.00  0.00     0.005 C 
ENDBRANCH  26  28
ENDBRANCH  21  26
ENDBRANCH  19  21
ENDBRANCH   1  17
TORSDOF 10
ENDMDL
MODEL 4
REMARK VINA RESULT:      -6.3     14.284     15.764
REMARK  10 active torsions:
REMARK  status: ('A' for Active; 'I' for Inactive)
REMARK    1  A    between atoms: C_2  and  C_3 
REMARK    2  A    between atoms: C_3  and  C_24 
REMARK    3  A    between atoms: C_3  and  N_5 
REMARK    4  A    between atoms: N_4  and  C_19 
REMARK       I    between atoms: N_5  and  C_16 
REMARK    5  A    between atoms: C_6  and  C_7 
REMARK    6  A    between atoms: C_6  and  C_24 
REMARK    7  A    between atoms: C_7  and  N_10 
REMARK       I    between atoms: N_10  and  C_15 
REMARK       I    between atoms: N_11  and  C_15 
REMARK    8  A    between atoms: C_16  and  C_19 
REMARK    9  A    between atoms: C_19  and  C_20 
REMARK   10  A    between atoms: C_20  and  C_27 
ROOT
HETATM    1  C           1     -21.023  -6.524  -4.802  0.00  0.00     0.185 C 
ENDROOT
BRANCH   1   2
HETATM    2  C           1     -20.232  -7.808  -4.859  0.00  0.00     0.196 C 
HETATM    3  O           1     -19.575  -8.093  -5.883  0.00  0.00    -0.646 OA
HETATM    4  O           1     -20.234  -8.586  -3.880  0.00  0.00    -0.646 OA
ENDBRANCH   1   2
BRANCH   1   5
HETATM    5  C           1     -22.082  -6.626  -3.713  0.00  0.00     0.038 C 
BRANCH   5   6
HETATM    6  C           1     -21.557  -5.994  -2.430  0.00  0.00     0.023 C 
BRANCH   6   7
HETATM    7  C           1     -22.317  -6.559  -1.237  0.00  0.00     0.138 C 
BRANCH   7   8
HETATM    8  N           1     -22.035  -7.996  -1.110  0.00  0.00    -0.227 N 
HETATM    9  H           1     -21.354  -8.457  -1.764  0.00  0.00     0.177 HD
HETATM   10  C           1     -22.613  -8.678  -0.214  0.00  0.00     0.665 C 
HETATM   11  N           1     -22.364  -9.949  -0.102  0.00  0.00    -0.235 N 
HETATM   12  N           1     -23.434  -8.122   0.575  0.00  0.00    -0.235 N 
HETATM   13  H           1     -21.687 -10.407  -0.752  0.00  0.00     0.174 HD
HETATM   14  H           1     -22.841 -10.511   0.639  0.00  0.00     0.174 HD
HETATM   15  H           1     -23.913  -8.687   1.318  0.00  0.00     0.174 HD
HETATM   16  H           1     -23.635  -7.095   0.484  0.00  0.00     0.174 HD
ENDBRANCH   7   8
ENDBRANCH   6   7
ENDBRANCH   5   6
ENDBRANCH   1   5
BRANCH   1  17
HETATM   17  N           1     -21.666  -6.296  -6.081  0.00  0.00    -0.345 N 
HETATM   18  H           1     -22.215  -7.030  -6.510  0.00  0.00     0.163 HD
HETATM   19  C           1     -21.533  -5.086  -6.708  0.00  0.00     0.249 C 
HETATM   20  O           1     -20.878  -4.209  -6.197  0.00  0.00    -0.271 OA
BRANCH  19  21
HETATM   21  C           1     -22.202  -4.848  -8.039  0.00  0.00     0.278 C 
BRANCH  21  22
HETATM   22  N           1     -23.506  -4.139  -7.824  0.00  0.00    -0.066 N 
HETATM   23  H           1     -23.840  -3.738  -8.729  0.00  0.00     0.275 HD
HETATM   24  H           1     -24.215  -4.816  -7.460  0.00  0.00     0.275 HD
HETATM   25  H           1     -23.373  -3.368  -7.129  0.00  0.00     0.275 HD
ENDBRANCH  21  22
BRANCH  21  26
HETATM   26  C           1     -21.299  -3.993  -8.917  0.00  0.00     0.021 C 
HETATM   27  C           1     -20.079  -4.805  -9.333  0.00  0.00     0.012 C 
BRANCH  26  28
HETATM   28  C           1     -22.063  -3.556 -10.159  0.00  0.00     0.002 C 
HETATM   29  C           1     -21.121  -3.535 -11.356  0.00  0.00     0.005 C 
ENDBRANCH  26  28
ENDBRANCH  21  26
ENDBRANCH  19  21
ENDBRANCH   1  17
TORSDOF 10
ENDMDL
MODEL 5
REMARK VINA RESULT:      -6.2      2.402      7.443
REMARK  10 active torsions:
REMARK  status: ('A' for Active; 'I' for Inactive)
REMARK    1  A    between atoms: C_2  and  C_3 
REMARK    2  A    between atoms: C_3  and  C_24 
REMARK    3  A    between atoms: C_3  and  N_5 
REMARK    4  A    between atoms: N_4  and  C_19 
REMARK       I    between atoms: N_5  and  C_16 
REMARK    5  A    between atoms: C_6  and  C_7 
REMARK    6  A    between atoms: C_6  and  C_24 
REMARK    7  A    between atoms: C_7  and  N_10 
REMARK       I    between atoms: N_10  and  C_15 
REMARK       I    between atoms: N_11  and  C_15 
REMARK    8  A    between atoms: C_16  and  C_19 
REMARK    9  A    between atoms: C_19  and  C_20 
REMARK   10  A    between atoms: C_20  and  C_27 
ROOT
HETATM    1  C           1     -25.876  -6.927 -17.646  0.00  0.00     0.185 C 
ENDROOT
BRANCH   1   2
HETATM    2  C           1     -24.973  -6.929 -16.437  0.00  0.00     0.196 C 
HETATM    3  O           1     -24.325  -7.957 -16.142  0.00  0.00    -0.646 OA
HETATM    4  O           1     -24.872  -5.903 -15.730  0.00  0.00    -0.646 OA
ENDBRANCH   1   2
BRANCH   1   5
HETATM    5  C           1     -25.043  -6.714 -18.903  0.00  0.00     0.038 C 
BRANCH   5   6
HETATM    6  C           1     -25.919  -6.906 -20.133  0.00  0.00     0.023 C 
BRANCH   6   7
HETATM    7  C           1     -25.268  -7.917 -21.069  0.00  0.00     0.138 C 
BRANCH   7   8
HETATM    8  N           1     -23.912  -8.224 -20.594  0.00  0.00    -0.227 N 
HETATM    9  H           1     -23.689  -8.164 -19.569  0.00  0.00     0.177 HD
HETATM   10  C           1     -23.012  -8.560 -21.419  0.00  0.00     0.665 C 
HETATM   11  N           1     -21.813  -8.831 -20.998  0.00  0.00    -0.235 N 
HETATM   12  N           1     -23.281  -8.632 -22.654  0.00  0.00    -0.235 N 
HETATM   13  H           1     -21.591  -8.772 -19.979  0.00  0.00     0.174 HD
HETATM   14  H           1     -21.071  -9.109 -21.679  0.00  0.00     0.174 HD
HETATM   15  H           1     -22.536  -8.911 -23.338  0.00  0.00     0.174 HD
HETATM   16  H           1     -24.250  -8.413 -22.994  0.00  0.00     0.174 HD
ENDBRANCH   7   8
ENDBRANCH   6   7
ENDBRANCH   5   6
ENDBRANCH   1   5
BRANCH   1  17
HETATM   17  N           1     -26.845  -5.857 -17.523  0.00  0.00    -0.345 N 
HETATM   18  H           1     -26.707  -4.988 -18.022  0.00  0.00     0.163 HD
HETATM   19  C           1     -27.950  -6.022 -16.730  0.00  0.00     0.249 C 
HETATM   20  O           1     -28.116  -7.059 -16.133  0.00  0.00    -0.271 OA
BRANCH  19  21
HETATM   21  C           1     -28.960  -4.908 -16.601  0.00  0.00     0.278 C 
BRANCH  21  22
HETATM   22  N           1     -28.278  -3.589 -16.813  0.00  0.00    -0.066 N 
HETATM   23  H           1     -27.245  -3.708 -16.703  0.00  0.00     0.275 HD
HETATM   24  H           1     -28.487  -3.240 -17.776  0.00  0.00     0.275 HD
HETATM   25  H           1     -28.627  -2.899 -16.109  0.00  0.00     0.275 HD
ENDBRANCH  21  22
BRANCH  21  26
HETATM   26  C           1     -30.052  -5.089 -17.647  0.00  0.00     0.021 C 
HETATM   27  C           1     -30.848  -6.350 -17.337  0.00  0.00     0.012 C 
BRANCH  26  28
HETATM   28  C           1     -30.983  -3.884 -17.622  0.00  0.00     0.002 C 
HETATM   29  C           1     -32.288  -4.263 -16.932  0.00  0.00     0.005 C 
ENDBRANCH  26  28
ENDBRANCH  21  26
ENDBRANCH  19  21
ENDBRANCH   1  17
TORSDOF 10
ENDMDL
MODEL 6
REMARK VINA RESULT:      -6.1      2.942      7.077
REMARK  10 active torsions:
REMARK  status: ('A' for Active; 'I' for Inactive)
REMARK    1  A    between atoms: C_2  and  C_3 
REMARK    2  A    between atoms: C_3  and  C_24 
REMARK    3  A    between atoms: C_3  and  N_5 
REMARK    4  A    between atoms: N_4  and  C_19 
REMARK       I    between atoms: N_5  and  C_16 
REMARK    5  A    between atoms: C_6  and  C_7 
REMARK    6  A    between atoms: C_6  and  C_24 
REMARK    7  A    between atoms: C_7  and  N_10 
REMARK       I    between atoms: N_10  and  C_15 
REMARK       I    between atoms: N_11  and  C_15 
REMARK    8  A    between atoms: C_16  and  C_19 
REMARK    9  A    between atoms: C_19  and  C_20 
REMARK   10  A    between atoms: C_20  and  C_27 
ROOT
HETATM    1  C           1     -27.249  -6.987 -20.276  0.00  0.00     0.185 C 
ENDROOT
BRANCH   1   2
HETATM    2  C           1     -27.513  -8.330 -20.912  0.00  0.00     0.196 C 
HETATM    3  O           1     -28.582  -8.934 -20.677  0.00  0.00    -0.646 OA
HETATM    4  O           1     -26.662  -8.838 -21.674  0.00  0.00    -0.646 OA
ENDBRANCH   1   2
BRANCH   1   5
HETATM    5  C           1     -25.820  -6.554 -20.575  0.00  0.00     0.038 C 
BRANCH   5   6
HETATM    6  C           1     -24.963  -6.731 -19.329  0.00  0.00     0.023 C 
BRANCH   6   7
HETATM    7  C           1     -23.809  -7.678 -19.635  0.00  0.00     0.138 C 
BRANCH   7   8
HETATM    8  N           1     -23.915  -8.147 -21.025  0.00  0.00    -0.227 N 
HETATM    9  H           1     -24.831  -8.080 -21.533  0.00  0.00     0.177 HD
HETATM   10  C           1     -22.901  -8.632 -21.608  0.00  0.00     0.665 C 
HETATM   11  N           1     -22.995  -9.047 -22.836  0.00  0.00    -0.235 N 
HETATM   12  N           1     -21.796  -8.714 -20.994  0.00  0.00    -0.235 N 
HETATM   13  H           1     -23.906  -8.980 -23.342  0.00  0.00     0.174 HD
HETATM   14  H           1     -22.158  -9.448 -23.317  0.00  0.00     0.174 HD
HETATM   15  H           1     -20.956  -9.116 -21.478  0.00  0.00     0.174 HD
HETATM   16  H           1     -21.721  -8.379 -20.002  0.00  0.00     0.174 HD
ENDBRANCH   7   8
ENDBRANCH   6   7
ENDBRANCH   5   6
ENDBRANCH   1   5
BRANCH   1  17
HETATM   17  N           1     -27.432  -7.088 -18.841  0.00  0.00    -0.345 N 
HETATM   18  H           1     -26.697  -7.472 -18.263  0.00  0.00     0.163 HD
HETATM   19  C           1     -28.601  -6.660 -18.269  0.00  0.00     0.249 C 
HETATM   20  O           1     -29.479  -6.201 -18.959  0.00  0.00    -0.271 OA
BRANCH  19  21
HETATM   21  C           1     -28.792  -6.765 -16.776  0.00  0.00     0.278 C 
BRANCH  21  22
HETATM   22  N           1     -27.493  -7.147 -16.131  0.00  0.00    -0.066 N 
HETATM   23  H           1     -27.436  -8.187 -16.049  0.00  0.00     0.275 HD
HETATM   24  H           1     -26.699  -6.801 -16.716  0.00  0.00     0.275 HD
HETATM   25  H           1     -27.437  -6.717 -15.179  0.00  0.00     0.275 HD
ENDBRANCH  21  22
BRANCH  21  26
HETATM   26  C           1     -29.256  -5.422 -16.227  0.00  0.00     0.021 C 
HETATM   27  C           1     -29.462  -5.532 -14.722  0.00  0.00     0.012 C 
BRANCH  26  28
HETATM   28  C           1     -28.201  -4.363 -16.518  0.00  0.00     0.002 C 
HETATM   29  C           1     -28.855  -3.167 -17.199  0.00  0.00     0.005 C 
ENDBRANCH  26  28
ENDBRANCH  21  26
ENDBRANCH  19  21
ENDBRANCH   1  17
TORSDOF 10
ENDMDL
MODEL 7
REMARK VINA RESULT:      -5.9     15.498     17.228
REMARK  10 active torsions:
REMARK  status: ('A' for Active; 'I' for Inactive)
REMARK    1  A    between atoms: C_2  and  C_3 
REMARK    2  A    between atoms: C_3  and  C_24 
REMARK    3  A    between atoms: C_3  and  N_5 
REMARK    4  A    between atoms: N_4  and  C_19 
REMARK       I    between atoms: N_5  and  C_16 
REMARK    5  A    between atoms: C_6  and  C_7 
REMARK    6  A    between atoms: C_6  and  C_24 
REMARK    7  A    between atoms: C_7  and  N_10 
REMARK       I    between atoms: N_10  and  C_15 
REMARK       I    between atoms: N_11  and  C_15 
REMARK    8  A    between atoms: C_16  and  C_19 
REMARK    9  A    between atoms: C_19  and  C_20 
REMARK   10  A    between atoms: C_20  and  C_27 
ROOT
HETATM    1  C           1     -20.840  -8.484  -4.733  0.00  0.00     0.185 C 
ENDROOT
BRANCH   1   2
HETATM    2  C           1     -19.468  -9.064  -4.974  0.00  0.00     0.196 C 
HETATM    3  O           1     -19.229  -9.684  -6.033  0.00  0.00    -0.646 OA
HETATM    4  O           1     -18.571  -8.924  -4.115  0.00  0.00    -0.646 OA
ENDBRANCH   1   2
BRANCH   1   5
HETATM    5  C           1     -21.141  -7.430  -5.791  0.00  0.00     0.038 C 
BRANCH   5   6
HETATM    6  C           1     -20.952  -6.042  -5.195  0.00  0.00     0.023 C 
BRANCH   6   7
HETATM    7  C           1     -21.012  -4.999  -6.305  0.00  0.00     0.138 C 
BRANCH   7   8
HETATM    8  N           1     -22.411  -4.781  -6.698  0.00  0.00    -0.227 N 
HETATM    9  H           1     -23.189  -5.071  -6.054  0.00  0.00     0.177 HD
HETATM   10  C           1     -22.679  -4.244  -7.812  0.00  0.00     0.665 C 
HETATM   11  N           1     -23.917  -4.051  -8.160  0.00  0.00    -0.235 N 
HETATM   12  N           1     -21.742  -3.895  -8.589  0.00  0.00    -0.235 N 
HETATM   13  H           1     -24.690  -4.339  -7.519  0.00  0.00     0.174 HD
HETATM   14  H           1     -24.138  -3.608  -9.080  0.00  0.00     0.174 HD
HETATM   15  H           1     -21.964  -3.449  -9.513  0.00  0.00     0.174 HD
HETATM   16  H           1     -20.742  -4.051  -8.308  0.00  0.00     0.174 HD
ENDBRANCH   7   8
ENDBRANCH   6   7
ENDBRANCH   5   6
ENDBRANCH   1   5
BRANCH   1  17
HETATM   17  N           1     -20.881  -7.873  -3.419  0.00  0.00    -0.345 N 
HETATM   18  H           1     -20.537  -6.931  -3.287  0.00  0.00     0.163 HD
HETATM   19  C           1     -21.388  -8.572  -2.355  0.00  0.00     0.249 C 
HETATM   20  O           1     -21.799  -9.697  -2.512  0.00  0.00    -0.271 OA
BRANCH  19  21
HETATM   21  C           1     -21.431  -7.937  -0.987  0.00  0.00     0.278 C 
BRANCH  21  22
HETATM   22  N           1     -22.446  -6.833  -0.980  0.00  0.00    -0.066 N 
HETATM   23  H           1     -22.621  -6.513  -1.960  0.00  0.00     0.275 HD
HETATM   24  H           1     -23.339  -7.183  -0.565  0.00  0.00     0.275 HD
HETATM   25  H           1     -22.087  -6.033  -0.411  0.00  0.00     0.275 HD
ENDBRANCH  21  22
BRANCH  21  26
HETATM   26  C           1     -21.814  -8.986   0.048  0.00  0.00     0.021 C 
HETATM   27  C           1     -21.094  -8.693   1.358  0.00  0.00     0.012 C 
BRANCH  26  28
HETATM   28  C           1     -23.319  -8.947   0.278  0.00  0.00     0.002 C 
HETATM   29  C           1     -23.904 -10.335   0.051  0.00  0.00     0.005 C 
ENDBRANCH  26  28
ENDBRANCH  21  26
ENDBRANCH  19  21
ENDBRANCH   1  17
TORSDOF 10
ENDMDL
MODEL 8
REMARK VINA RESULT:      -5.8     15.052     16.758
REMARK  10 active torsions:
REMARK  status: ('A' for Active; 'I' for Inactive)
REMARK    1  A    between atoms: C_2  and  C_3 
REMARK    2  A    between atoms: C_3  and  C_24 
REMARK    3  A    between atoms: C_3  and  N_5 
REMARK    4  A    between atoms: N_4  and  C_19 
REMARK       I    between atoms: N_5  and  C_16 
REMARK    5  A    between atoms: C_6  and  C_7 
REMARK    6  A    between atoms: C_6  and  C_24 
REMARK    7  A    between atoms: C_7  and  N_10 
REMARK       I    between atoms: N_10  and  C_15 
REMARK       I    between atoms: N_11  and  C_15 
REMARK    8  A    between atoms: C_16  and  C_19 
REMARK    9  A    between atoms: C_19  and  C_20 
REMARK   10  A    between atoms: C_20  and  C_27 
ROOT
HETATM    1  C           1     -21.028  -7.309  -4.407  0.00  0.00     0.185 C 
ENDROOT
BRANCH   1   2
HETATM    2  C           1     -22.172  -6.410  -4.006  0.00  0.00     0.196 C 
HETATM    3  O           1     -23.078  -6.148  -4.825  0.00  0.00    -0.646 OA
HETATM    4  O           1     -22.211  -5.927  -2.853  0.00  0.00    -0.646 OA
ENDBRANCH   1   2
BRANCH   1   5
HETATM    5  C           1     -20.854  -7.267  -5.920  0.00  0.00     0.038 C 
BRANCH   5   6
HETATM    6  C           1     -19.834  -6.198  -6.286  0.00  0.00     0.023 C 
BRANCH   6   7
HETATM    7  C           1     -20.265  -5.503  -7.572  0.00  0.00     0.138 C 
BRANCH   7   8
HETATM    8  N           1     -21.732  -5.429  -7.622  0.00  0.00    -0.227 N 
HETATM    9  H           1     -22.296  -6.299  -7.794  0.00  0.00     0.177 HD
HETATM   10  C           1     -22.316  -4.318  -7.458  0.00  0.00     0.665 C 
HETATM   11  N           1     -23.614  -4.253  -7.502  0.00  0.00    -0.235 N 
HETATM   12  N           1     -21.636  -3.270  -7.250  0.00  0.00    -0.235 N 
HETATM   13  H           1     -24.174  -5.118  -7.674  0.00  0.00     0.174 HD
HETATM   14  H           1     -24.095  -3.336  -7.367  0.00  0.00     0.174 HD
HETATM   15  H           1     -22.121  -2.349  -7.114  0.00  0.00     0.174 HD
HETATM   16  H           1     -20.588  -3.323  -7.214  0.00  0.00     0.174 HD
ENDBRANCH   7   8
ENDBRANCH   6   7
ENDBRANCH   5   6
ENDBRANCH   1   5
BRANCH   1  17
HETATM   17  N           1     -21.313  -8.668  -3.991  0.00  0.00    -0.345 N 
HETATM   18  H           1     -21.912  -9.255  -4.556  0.00  0.00     0.163 HD
HETATM   19  C           1     -20.768  -9.158  -2.834  0.00  0.00     0.249 C 
HETATM   20  O           1     -20.052  -8.457  -2.159  0.00  0.00    -0.271 OA
BRANCH  19  21
HETATM   21  C           1     -21.065 -10.572  -2.401  0.00  0.00     0.278 C 
BRANCH  21  22
HETATM   22  N           1     -20.267 -10.896  -1.173  0.00  0.00    -0.066 N 
HETATM   23  H           1     -20.620 -11.786  -0.752  0.00  0.00     0.275 HD
HETATM   24  H           1     -19.261 -11.008  -1.430  0.00  0.00     0.275 HD
HETATM   25  H           1     -20.366 -10.120  -0.479  0.00  0.00     0.275 HD
ENDBRANCH  21  22
BRANCH  21  26
HETATM   26  C           1     -22.550 -10.709  -2.093  0.00  0.00     0.021 C 
HETATM   27  C           1     -22.944 -12.180  -2.136  0.00  0.00     0.012 C 
BRANCH  26  28
HETATM   28  C           1     -22.835 -10.148  -0.707  0.00  0.00     0.002 C 
HETATM   29  C           1     -24.031 -10.872  -0.101  0.00  0.00     0.005 C 
ENDBRANCH  26  28
ENDBRANCH  21  26
ENDBRANCH  19  21
ENDBRANCH   1  17
TORSDOF 10
ENDMDL
MODEL 9
REMARK VINA RESULT:      -5.8     13.670     15.150
REMARK  10 active torsions:
REMARK  status: ('A' for Active; 'I' for Inactive)
REMARK    1  A    between atoms: C_2  and  C_3 
REMARK    2  A    between atoms: C_3  and  C_24 
REMARK    3  A    between atoms: C_3  and  N_5 
REMARK    4  A    between atoms: N_4  and  C_19 
REMARK       I    between atoms: N_5  and  C_16 
REMARK    5  A    between atoms: C_6  and  C_7 
REMARK    6  A    between atoms: C_6  and  C_24 
REMARK    7  A    between atoms: C_7  and  N_10 
REMARK       I    between atoms: N_10  and  C_15 
REMARK       I    between atoms: N_11  and  C_15 
REMARK    8  A    between atoms: C_16  and  C_19 
REMARK    9  A    between atoms: C_19  and  C_20 
REMARK   10  A    between atoms: C_20  and  C_27 
ROOT
HETATM    1  C           1     -20.686  -6.729  -5.370  0.00  0.00     0.185 C 
ENDROOT
BRANCH   1   2
HETATM    2  C           1     -21.992  -6.323  -4.734  0.00  0.00     0.196 C 
HETATM    3  O           1     -22.084  -6.245  -3.490  0.00  0.00    -0.646 OA
HETATM    4  O           1     -22.983  -6.064  -5.451  0.00  0.00    -0.646 OA
ENDBRANCH   1   2
BRANCH   1   5
HETATM    5  C           1     -20.525  -6.012  -6.704  0.00  0.00     0.038 C 
BRANCH   5   6
HETATM    6  C           1     -20.076  -4.577  -6.460  0.00  0.00     0.023 C 
BRANCH   6   7
HETATM    7  C           1     -20.721  -3.660  -7.492  0.00  0.00     0.138 C 
BRANCH   7   8
HETATM    8  N           1     -22.183  -3.800  -7.427  0.00  0.00    -0.227 N 
HETATM    9  H           1     -22.662  -3.879  -6.495  0.00  0.00     0.177 HD
HETATM   10  C           1     -22.865  -3.825  -8.493  0.00  0.00     0.665 C 
HETATM   11  N           1     -24.158  -3.949  -8.435  0.00  0.00    -0.235 N 
HETATM   12  N           1     -22.287  -3.729  -9.616  0.00  0.00    -0.235 N 
HETATM   13  H           1     -24.634  -4.028  -7.509  0.00  0.00     0.174 HD
HETATM   14  H           1     -24.720  -3.970  -9.316  0.00  0.00     0.174 HD
HETATM   15  H           1     -22.853  -3.750 -10.500  0.00  0.00     0.174 HD
HETATM   16  H           1     -21.243  -3.629  -9.662  0.00  0.00     0.174 HD
ENDBRANCH   7   8
ENDBRANCH   6   7
ENDBRANCH   5   6
ENDBRANCH   1   5
BRANCH   1  17
HETATM   17  N           1     -20.680  -8.162  -5.590  0.00  0.00    -0.345 N 
HETATM   18  H           1     -21.174  -8.555  -6.380  0.00  0.00     0.163 HD
HETATM   19  C           1     -20.005  -8.984  -4.726  0.00  0.00     0.249 C 
HETATM   20  O           1     -19.416  -8.515  -3.782  0.00  0.00    -0.271 OA
BRANCH  19  21
HETATM   21  C           1     -19.999 -10.475  -4.954  0.00  0.00     0.278 C 
BRANCH  21  22
HETATM   22  N           1     -20.706 -10.787  -6.240  0.00  0.00    -0.066 N 
HETATM   23  H           1     -21.699 -10.467  -6.179  0.00  0.00     0.275 HD
HETATM   24  H           1     -20.229 -10.294  -7.028  0.00  0.00     0.275 HD
HETATM   25  H           1     -20.682 -11.819  -6.409  0.00  0.00     0.275 HD
ENDBRANCH  21  22
BRANCH  21  26
HETATM   26  C           1     -18.562 -10.972  -5.031  0.00  0.00     0.021 C 
HETATM   27  C           1     -18.556 -12.476  -5.271  0.00  0.00     0.012 C 
BRANCH  26  28
HETATM   28  C           1     -17.843 -10.273  -6.177  0.00  0.00     0.002 C 
HETATM   29  C           1     -16.359 -10.162  -5.854  0.00  0.00     0.005 C 
ENDBRANCH  26  28
ENDBRANCH  21  26
ENDBRANCH  19  21
ENDBRANCH   1  17
TORSDOF 10
ENDMDL
