MODEL 1
REMARK VINA RESULT:      -6.8      0.000      0.000
REMARK  8 active torsions:
REMARK  status: ('A' for Active; 'I' for Inactive)
REMARK    1  A    between atoms: C_3  and  C_9 
REMARK    2  A    between atoms: C_3  and  C_16 
REMARK    3  A    between atoms: N_4  and  C_9 
REMARK    4  A    between atoms: C_9  and  C_19 
REMARK    5  A    between atoms: Se_10  and  C_20 
REMARK    6  A    between atoms: N_12  and  C_13 
REMARK       I    between atoms: N_12  and  C_19 
REMARK    7  A    between atoms: C_13  and  C_20 
REMARK    8  A    between atoms: C_13  and  C_14 
ROOT
HETATM    1  C           1     -21.160  -5.648  -6.948  0.00  0.00     0.278 C 
ENDROOT
BRANCH   1   2
HETATM    2  C           1     -20.849  -5.209  -5.523  0.00  0.00     0.081 C 
BRANCH   2   3
HETATM    3  C           1     -21.114  -6.341  -4.582  0.00  0.00    -0.056 A 
HETATM    4  C           1     -21.311  -6.089  -3.224  0.00  0.00     0.007 A 
HETATM    5  C           1     -21.558  -7.145  -2.347  0.00  0.00     0.001 A 
HETATM    6  C           1     -21.607  -8.453  -2.827  0.00  0.00     0.000 A 
HETATM    7  C           1     -21.409  -8.706  -4.184  0.00  0.00     0.001 A 
HETATM    8  C           1     -21.162  -7.650  -5.062  0.00  0.00     0.007 A 
ENDBRANCH   2   3
ENDBRANCH   1   2
BRANCH   1   9
HETATM    9  N           1     -19.896  -6.091  -7.621  0.00  0.00    -0.066 N 
HETATM   10  H           1     -19.640  -5.406  -8.368  0.00  0.00     0.275 HD
HETATM   11  H           1     -19.126  -6.141  -6.916  0.00  0.00     0.275 HD
HETATM   12  H           1     -20.040  -7.034  -8.047  0.00  0.00     0.275 HD
ENDBRANCH   1   9
BRANCH   1  13
HETATM   13  C           1     -21.757  -4.491  -7.712  0.00  0.00     0.249 C 
HETATM   14  O           1     -21.764  -3.385  -7.226  0.00  0.00    -0.271 OA
HETATM   15  N           1     -22.293  -4.695  -8.956  0.00  0.00    -0.345 N 
HETATM   16  H           1     -22.288  -5.623  -9.362  0.00  0.00     0.163 HD
BRANCH  15  17
HETATM   17  C           1     -22.866  -3.585  -9.690  0.00  0.00     0.185 C 
BRANCH  17  18
HETATM   18  C           1     -22.020  -3.300 -10.923  0.00  0.00     0.039 C 
BRANCH  18  19
HETATM   19 Se           1     -20.393  -4.372 -10.858  0.00  0.00     0.000 Se
HETATM   20  H           1     -21.096  -5.657 -11.003  0.00  0.00     0.000 HD
ENDBRANCH  18  19
ENDBRANCH  17  18
BRANCH  17  21
HETATM   21  C           1     -24.271  -3.934 -10.113  0.00  0.00     0.196 C 
HETATM   22  O           1     -24.755  -5.047  -9.816  0.00  0.00    -0.646 OA
HETATM   23  O           1     -24.952  -3.110 -10.762  0.00  0.00    -0.646 OA
ENDBRANCH  17  21
ENDBRANCH  15  17
ENDBRANCH   1  13
TORSDOF 8
ENDMDL
MODEL 2
REMARK VINA RESULT:      -6.8     13.817     15.675
REMARK  8 active torsions:
REMARK  status: ('A' for Active; 'I' for Inactive)
REMARK    1  A    between atoms: C_3  and  C_9 
REMARK    2  A    between atoms: C_3  and  C_16 
REMARK    3  A    between atoms: N_4  and  C_9 
REMARK    4  A    between atoms: C_9  and  C_19 
REMARK    5  A    between atoms: Se_10  and  C_20 
REMARK    6  A    between atoms: N_12  and  C_13 
REMARK       I    between atoms: N_12  and  C_19 
REMARK    7  A    between atoms: C_13  and  C_20 
REMARK    8  A    between atoms: C_13  and  C_14 
ROOT
HETATM    1  C           1     -35.988  -0.493 -11.373  0.00  0.00     0.278 C 
ENDROOT
BRANCH   1   2
HETATM    2  C           1     -36.249  -1.758 -10.567  0.00  0.00     0.081 C 
BRANCH   2   3
HETATM    3  C           1     -35.190  -2.771 -10.870  0.00  0.00    -0.056 A 
HETATM    4  C           1     -33.882  -2.359 -11.123  0.00  0.00     0.007 A 
HETATM    5  C           1     -32.896  -3.303 -11.406  0.00  0.00     0.001 A 
HETATM    6  C           1     -33.216  -4.659 -11.436  0.00  0.00     0.000 A 
HETATM    7  C           1     -34.524  -5.073 -11.183  0.00  0.00     0.001 A 
HETATM    8  C           1     -35.512  -4.129 -10.900  0.00  0.00     0.007 A 
ENDBRANCH   2   3
ENDBRANCH   1   2
BRANCH   1   9
HETATM    9  N           1     -36.391   0.705 -10.566  0.00  0.00    -0.066 N 
HETATM   10  H           1     -37.020   1.314 -11.137  0.00  0.00     0.275 HD
HETATM   11  H           1     -36.897   0.391  -9.707  0.00  0.00     0.275 HD
HETATM   12  H           1     -35.539   1.244 -10.292  0.00  0.00     0.275 HD
ENDBRANCH   1   9
BRANCH   1  13
HETATM   13  C           1     -36.794  -0.533 -12.649  0.00  0.00     0.249 C 
HETATM   14  O           1     -37.991  -0.680 -12.603  0.00  0.00    -0.271 OA
HETATM   15  N           1     -36.166  -0.404 -13.860  0.00  0.00    -0.345 N 
HETATM   16  H           1     -35.162  -0.282 -13.898  0.00  0.00     0.163 HD
BRANCH  15  17
HETATM   17  C           1     -36.939  -0.443 -15.085  0.00  0.00     0.185 C 
BRANCH  17  18
HETATM   18  C           1     -37.299   0.976 -15.504  0.00  0.00     0.039 C 
BRANCH  18  19
HETATM   19 Se           1     -35.674   2.045 -15.640  0.00  0.00     0.000 Se
HETATM   20  H           1     -36.086   2.723 -16.879  0.00  0.00     0.000 HD
ENDBRANCH  18  19
ENDBRANCH  17  18
BRANCH  17  21
HETATM   21  C           1     -36.124  -1.099 -16.172  0.00  0.00     0.196 C 
HETATM   22  O           1     -36.440  -0.940 -17.371  0.00  0.00    -0.646 OA
HETATM   23  O           1     -35.134  -1.801 -15.874  0.00  0.00    -0.646 OA
ENDBRANCH  17  21
ENDBRANCH  15  17
ENDBRANCH   1  13
TORSDOF 8
ENDMDL
MODEL 3
REMARK VINA RESULT:      -6.7      3.509      6.960
REMARK  8 active torsions:
REMARK  status: ('A' for Active; 'I' for Inactive)
REMARK    1  A    between atoms: C_3  and  C_9 
REMARK    2  A    between atoms: C_3  and  C_16 
REMARK    3  A    between atoms: N_4  and  C_9 
REMARK    4  A    between atoms: C_9  and  C_19 
REMARK    5  A    between atoms: Se_10  and  C_20 
REMARK    6  A    between atoms: N_12  and  C_13 
REMARK       I    between atoms: N_12  and  C_19 
REMARK    7  A    between atoms: C_13  and  C_20 
REMARK    8  A    between atoms: C_13  and  C_14 
ROOT
HETATM    1  C           1     -22.290  -5.215  -6.779  0.00  0.00     0.278 C 
ENDROOT
BRANCH   1   2
HETATM    2  C           1     -21.751  -3.919  -7.372  0.00  0.00     0.081 C 
BRANCH   2   3
HETATM    3  C           1     -21.670  -4.047  -8.860  0.00  0.00    -0.056 A 
HETATM    4  C           1     -20.427  -4.131  -9.487  0.00  0.00     0.007 A 
HETATM    5  C           1     -20.351  -4.249 -10.874  0.00  0.00     0.001 A 
HETATM    6  C           1     -21.518  -4.284 -11.636  0.00  0.00     0.000 A 
HETATM    7  C           1     -22.762  -4.199 -11.010  0.00  0.00     0.001 A 
HETATM    8  C           1     -22.839  -4.081  -9.622  0.00  0.00     0.007 A 
ENDBRANCH   2   3
ENDBRANCH   1   2
BRANCH   1   9
HETATM    9  N           1     -23.650  -4.969  -6.195  0.00  0.00    -0.066 N 
HETATM   10  H           1     -24.364  -5.505  -6.738  0.00  0.00     0.275 HD
HETATM   11  H           1     -23.662  -5.284  -5.198  0.00  0.00     0.275 HD
HETATM   12  H           1     -23.870  -3.949  -6.242  0.00  0.00     0.275 HD
ENDBRANCH   1   9
BRANCH   1  13
HETATM   13  C           1     -21.358  -5.698  -5.694  0.00  0.00     0.249 C 
HETATM   14  O           1     -20.470  -4.982  -5.298  0.00  0.00    -0.271 OA
HETATM   15  N           1     -21.518  -6.949  -5.160  0.00  0.00    -0.345 N 
HETATM   16  H           1     -22.263  -7.549  -5.494  0.00  0.00     0.163 HD
BRANCH  15  17
HETATM   17  C           1     -20.624  -7.413  -4.119  0.00  0.00     0.185 C 
BRANCH  17  18
HETATM   18  C           1     -21.437  -7.868  -2.915  0.00  0.00     0.039 C 
BRANCH  18  19
HETATM   19 Se           1     -22.106  -6.309  -1.955  0.00  0.00     0.000 Se
HETATM   20  H           1     -23.523  -6.658  -2.140  0.00  0.00     0.000 HD
ENDBRANCH  18  19
ENDBRANCH  17  18
BRANCH  17  21
HETATM   21  C           1     -19.805  -8.569  -4.639  0.00  0.00     0.196 C 
HETATM   22  O           1     -18.783  -8.939  -4.022  0.00  0.00    -0.646 OA
HETATM   23  O           1     -20.149  -9.157  -5.688  0.00  0.00    -0.646 OA
ENDBRANCH  17  21
ENDBRANCH  15  17
ENDBRANCH   1  13
TORSDOF 8
ENDMDL
MODEL 4
REMARK VINA RESULT:      -6.7     13.124     14.588
REMARK  8 active torsions:
REMARK  status: ('A' for Active; 'I' for Inactive)
REMARK    1  A    between atoms: C_3  and  C_9 
REMARK    2  A    between atoms: C_3  and  C_16 
REMARK    3  A    between atoms: N_4  and  C_9 
REMARK    4  A    between atoms: C_9  and  C_19 
REMARK    5  A    between atoms: Se_10  and  C_20 
REMARK    6  A    between atoms: N_12  and  C_13 
REMARK       I    between atoms: N_12  and  C_19 
REMARK    7  A    between atoms: C_13  and  C_20 
REMARK    8  A    between atoms: C_13  and  C_14 
ROOT
HETATM    1  C           1     -32.881  -4.492 -16.646  0.00  0.00     0.278 C 
ENDROOT
BRANCH   1   2
HETATM    2  C           1     -31.423  -4.507 -16.207  0.00  0.00     0.081 C 
BRANCH   2   3
HETATM    3  C           1     -30.637  -5.402 -17.112  0.00  0.00    -0.056 A 
HETATM    4  C           1     -31.079  -6.700 -17.365  0.00  0.00     0.007 A 
HETATM    5  C           1     -30.347  -7.535 -18.209  0.00  0.00     0.001 A 
HETATM    6  C           1     -29.172  -7.071 -18.800  0.00  0.00     0.000 A 
HETATM    7  C           1     -28.729  -5.773 -18.547  0.00  0.00     0.001 A 
HETATM    8  C           1     -29.461  -4.938 -17.703  0.00  0.00     0.007 A 
ENDBRANCH   2   3
ENDBRANCH   1   2
BRANCH   1   9
HETATM    9  N           1     -33.140  -3.269 -17.476  0.00  0.00    -0.066 N 
HETATM   10  H           1     -32.311  -3.078 -18.082  0.00  0.00     0.275 HD
HETATM   11  H           1     -33.980  -3.430 -18.076  0.00  0.00     0.275 HD
HETATM   12  H           1     -33.311  -2.452 -16.848  0.00  0.00     0.275 HD
ENDBRANCH   1   9
BRANCH   1  13
HETATM   13  C           1     -33.773  -4.471 -15.428  0.00  0.00     0.249 C 
HETATM   14  O           1     -34.928  -4.814 -15.519  0.00  0.00    -0.271 OA
HETATM   15  N           1     -33.274  -4.061 -14.220  0.00  0.00    -0.345 N 
HETATM   16  H           1     -32.306  -3.772 -14.145  0.00  0.00     0.163 HD
BRANCH  15  17
HETATM   17  C           1     -34.130  -4.041 -13.051  0.00  0.00     0.185 C 
BRANCH  17  18
HETATM   18  C           1     -33.354  -4.548 -11.844  0.00  0.00     0.039 C 
BRANCH  18  19
HETATM   19 Se           1     -34.359  -5.975 -10.976  0.00  0.00     0.000 Se
HETATM   20  H           1     -33.699  -7.055 -11.727  0.00  0.00     0.000 HD
ENDBRANCH  18  19
ENDBRANCH  17  18
BRANCH  17  21
HETATM   21  C           1     -34.595  -2.629 -12.794  0.00  0.00     0.196 C 
HETATM   22  O           1     -34.540  -2.153 -11.640  0.00  0.00    -0.646 OA
HETATM   23  O           1     -35.037  -1.935 -13.735  0.00  0.00    -0.646 OA
ENDBRANCH  17  21
ENDBRANCH  15  17
ENDBRANCH   1  13
TORSDOF 8
ENDMDL
MODEL 5
REMARK VINA RESULT:      -6.5      3.333      6.875
REMARK  8 active torsions:
REMARK  status: ('A' for Active; 'I' for Inactive)
REMARK    1  A    between atoms: C_3  and  C_9 
REMARK    2  A    between atoms: C_3  and  C_16 
REMARK    3  A    between atoms: N_4  and  C_9 
REMARK    4  A    between atoms: C_9  and  C_19 
REMARK    5  A    between atoms: Se_10  and  C_20 
REMARK    6  A    between atoms: N_12  and  C_13 
REMARK       I    between atoms: N_12  and  C_19 
REMARK    7  A    between atoms: C_13  and  C_20 
REMARK    8  A    between atoms: C_13  and  C_14 
ROOT
HETATM    1  C           1     -21.079  -5.043  -6.188  0.00  0.00     0.278 C 
ENDROOT
BRANCH   1   2
HETATM    2  C           1     -20.677  -5.755  -7.474  0.00  0.00     0.081 C 
BRANCH   2   3
HETATM    3  C           1     -21.099  -4.934  -8.652  0.00  0.00    -0.056 A 
HETATM    4  C           1     -22.400  -4.435  -8.725  0.00  0.00     0.007 A 
HETATM    5  C           1     -22.793  -3.671  -9.824  0.00  0.00     0.001 A 
HETATM    6  C           1     -21.886  -3.405 -10.849  0.00  0.00     0.000 A 
HETATM    7  C           1     -20.585  -3.904 -10.776  0.00  0.00     0.001 A 
HETATM    8  C           1     -20.192  -4.669  -9.678  0.00  0.00     0.007 A 
ENDBRANCH   2   3
ENDBRANCH   1   2
BRANCH   1   9
HETATM    9  N           1     -19.857  -4.475  -5.530  0.00  0.00    -0.066 N 
HETATM   10  H           1     -19.407  -5.209  -4.937  0.00  0.00     0.275 HD
HETATM   11  H           1     -19.182  -4.159  -6.263  0.00  0.00     0.275 HD
HETATM   12  H           1     -20.129  -3.662  -4.933  0.00  0.00     0.275 HD
ENDBRANCH   1   9
BRANCH   1  13
HETATM   13  C           1     -21.741  -6.026  -5.254  0.00  0.00     0.249 C 
HETATM   14  O           1     -22.946  -6.106  -5.216  0.00  0.00    -0.271 OA
HETATM   15  N           1     -20.977  -6.828  -4.449  0.00  0.00    -0.345 N 
HETATM   16  H           1     -19.967  -6.760  -4.480  0.00  0.00     0.163 HD
BRANCH  15  17
HETATM   17  C           1     -21.612  -7.772  -3.552  0.00  0.00     0.185 C 
BRANCH  17  18
HETATM   18  C           1     -20.911  -9.120  -3.653  0.00  0.00     0.039 C 
BRANCH  18  19
HETATM   19 Se           1     -19.334  -8.950  -4.785  0.00  0.00     0.000 Se
HETATM   20  H           1     -19.361 -10.352  -5.232  0.00  0.00     0.000 HD
ENDBRANCH  18  19
ENDBRANCH  17  18
BRANCH  17  21
HETATM   21  C           1     -21.518  -7.261  -2.136  0.00  0.00     0.196 C 
HETATM   22  O           1     -20.681  -7.751  -1.348  0.00  0.00    -0.646 OA
HETATM   23  O           1     -22.278  -6.346  -1.749  0.00  0.00    -0.646 OA
ENDBRANCH  17  21
ENDBRANCH  15  17
ENDBRANCH   1  13
TORSDOF 8
ENDMDL
MODEL 6
REMARK VINA RESULT:      -6.1      4.116      7.085
REMARK  8 active torsions:
REMARK  status: ('A' for Active; 'I' for Inactive)
REMARK    1  A    between atoms: C_3  and  C_9 
REMARK    2  A    between atoms: C_3  and  C_16 
REMARK    3  A    between atoms: N_4  and  C_9 
REMARK    4  A    between atoms: C_9  and  C_19 
REMARK    5  A    between atoms: Se_10  and  C_20 
REMARK    6  A    between atoms: N_12  and  C_13 
REMARK       I    between atoms: N_12  and  C_19 
REMARK    7  A    between atoms: C_13  and  C_20 
REMARK    8  A    between atoms: C_13  and  C_14 
ROOT
HETATM    1  C           1     -21.385  -6.152  -5.855  0.00  0.00     0.278 C 
ENDROOT
BRANCH   1   2
HETATM    2  C           1     -20.754  -4.818  -6.231  0.00  0.00     0.081 C 
BRANCH   2   3
HETATM    3  C           1     -21.111  -4.476  -7.643  0.00  0.00    -0.056 A 
HETATM    4  C           1     -20.141  -4.538  -8.643  0.00  0.00     0.007 A 
HETATM    5  C           1     -20.475  -4.219  -9.959  0.00  0.00     0.001 A 
HETATM    6  C           1     -21.778  -3.839 -10.276  0.00  0.00     0.000 A 
HETATM    7  C           1     -22.749  -3.776  -9.277  0.00  0.00     0.001 A 
HETATM    8  C           1     -22.416  -4.095  -7.960  0.00  0.00     0.007 A 
ENDBRANCH   2   3
ENDBRANCH   1   2
BRANCH   1   9
HETATM    9  N           1     -22.131  -6.005  -4.562  0.00  0.00    -0.066 N 
HETATM   10  H           1     -21.455  -6.035  -3.765  0.00  0.00     0.275 HD
HETATM   11  H           1     -22.635  -5.089  -4.555  0.00  0.00     0.275 HD
HETATM   12  H           1     -22.819  -6.784  -4.466  0.00  0.00     0.275 HD
ENDBRANCH   1   9
BRANCH   1  13
HETATM   13  C           1     -20.303  -7.193  -5.695  0.00  0.00     0.249 C 
HETATM   14  O           1     -19.418  -7.276  -6.513  0.00  0.00    -0.271 OA
HETATM   15  N           1     -20.326  -8.045  -4.623  0.00  0.00    -0.345 N 
HETATM   16  H           1     -21.069  -7.976  -3.938  0.00  0.00     0.163 HD
BRANCH  15  17
HETATM   17  C           1     -19.288  -9.045  -4.469  0.00  0.00     0.185 C 
BRANCH  17  18
HETATM   18  C           1     -18.975  -9.229  -2.990  0.00  0.00     0.039 C 
BRANCH  18  19
HETATM   19 Se           1     -20.356  -8.363  -1.920  0.00  0.00     0.000 Se
HETATM   20  H           1     -20.713  -7.386  -2.961  0.00  0.00     0.000 HD
ENDBRANCH  18  19
ENDBRANCH  17  18
BRANCH  17  21
HETATM   21  C           1     -19.761 -10.354  -5.051  0.00  0.00     0.196 C 
HETATM   22  O           1     -20.487 -11.113  -4.373  0.00  0.00    -0.646 OA
HETATM   23  O           1     -19.427 -10.680  -6.211  0.00  0.00    -0.646 OA
ENDBRANCH  17  21
ENDBRANCH  15  17
ENDBRANCH   1  13
TORSDOF 8
ENDMDL
MODEL 7
REMARK VINA RESULT:      -6.1     13.022     14.603
REMARK  8 active torsions:
REMARK  status: ('A' for Active; 'I' for Inactive)
REMARK    1  A    between atoms: C_3  and  C_9 
REMARK    2  A    between atoms: C_3  and  C_16 
REMARK    3  A    between atoms: N_4  and  C_9 
REMARK    4  A    between atoms: C_9  and  C_19 
REMARK    5  A    between atoms: Se_10  and  C_20 
REMARK    6  A    between atoms: N_12  and  C_13 
REMARK       I    between atoms: N_12  and  C_19 
REMARK    7  A    between atoms: C_13  and  C_20 
REMARK    8  A    between atoms: C_13  and  C_14 
ROOT
HETATM    1  C           1     -33.707  -4.818 -15.451  0.00  0.00     0.278 C 
ENDROOT
BRANCH   1   2
HETATM    2  C           1     -33.203  -3.965 -16.609  0.00  0.00     0.081 C 
BRANCH   2   3
HETATM    3  C           1     -31.866  -4.468 -17.054  0.00  0.00    -0.056 A 
HETATM    4  C           1     -30.914  -3.577 -17.547  0.00  0.00     0.007 A 
HETATM    5  C           1     -29.668  -4.046 -17.963  0.00  0.00     0.001 A 
HETATM    6  C           1     -29.374  -5.406 -17.886  0.00  0.00     0.000 A 
HETATM    7  C           1     -30.326  -6.299 -17.393  0.00  0.00     0.001 A 
HETATM    8  C           1     -31.572  -5.830 -16.977  0.00  0.00     0.007 A 
ENDBRANCH   2   3
ENDBRANCH   1   2
BRANCH   1   9
HETATM    9  N           1     -34.829  -5.692 -15.928  0.00  0.00    -0.066 N 
HETATM   10  H           1     -35.717  -5.142 -15.945  0.00  0.00     0.275 HD
HETATM   11  H           1     -34.615  -6.038 -16.891  0.00  0.00     0.275 HD
HETATM   12  H           1     -34.936  -6.506 -15.280  0.00  0.00     0.275 HD
ENDBRANCH   1   9
BRANCH   1  13
HETATM   13  C           1     -34.206  -3.920 -14.345  0.00  0.00     0.249 C 
HETATM   14  O           1     -34.624  -2.817 -14.603  0.00  0.00    -0.271 OA
HETATM   15  N           1     -34.182  -4.356 -13.046  0.00  0.00    -0.345 N 
HETATM   16  H           1     -33.830  -5.280 -12.830  0.00  0.00     0.163 HD
BRANCH  15  17
HETATM   17  C           1     -34.661  -3.495 -11.984  0.00  0.00     0.185 C 
BRANCH  17  18
HETATM   18  C           1     -35.403  -4.329 -10.949  0.00  0.00     0.039 C 
BRANCH  18  19
HETATM   19 Se           1     -34.455  -6.008 -10.664  0.00  0.00     0.000 Se
HETATM   20  H           1     -33.362  -5.682 -11.595  0.00  0.00     0.000 HD
ENDBRANCH  18  19
ENDBRANCH  17  18
BRANCH  17  21
HETATM   21  C           1     -33.488  -2.807 -11.329  0.00  0.00     0.196 C 
HETATM   22  O           1     -32.340  -3.287 -11.439  0.00  0.00    -0.646 OA
HETATM   23  O           1     -33.666  -1.756 -10.675  0.00  0.00    -0.646 OA
ENDBRANCH  17  21
ENDBRANCH  15  17
ENDBRANCH   1  13
TORSDOF 8
ENDMDL
MODEL 8
REMARK VINA RESULT:      -6.0      4.796      7.637
REMARK  8 active torsions:
REMARK  status: ('A' for Active; 'I' for Inactive)
REMARK    1  A    between atoms: C_3  and  C_9 
REMARK    2  A    between atoms: C_3  and  C_16 
REMARK    3  A    between atoms: N_4  and  C_9 
REMARK    4  A    between atoms: C_9  and  C_19 
REMARK    5  A    between atoms: Se_10  and  C_20 
REMARK    6  A    between atoms: N_12  and  C_13 
REMARK       I    between atoms: N_12  and  C_19 
REMARK    7  A    between atoms: C_13  and  C_20 
REMARK    8  A    between atoms: C_13  and  C_14 
ROOT
HETATM    1  C           1     -20.762  -7.471  -4.847  0.00  0.00     0.278 C 
ENDROOT
BRANCH   1   2
HETATM    2  C           1     -21.239  -6.029  -4.739  0.00  0.00     0.081 C 
BRANCH   2   3
HETATM    3  C           1     -20.937  -5.305  -6.013  0.00  0.00    -0.056 A 
HETATM    4  C           1     -21.979  -4.846  -6.818  0.00  0.00     0.007 A 
HETATM    5  C           1     -21.698  -4.172  -8.006  0.00  0.00     0.001 A 
HETATM    6  C           1     -20.375  -3.957  -8.390  0.00  0.00     0.000 A 
HETATM    7  C           1     -19.332  -4.417  -7.585  0.00  0.00     0.001 A 
HETATM    8  C           1     -19.613  -5.091  -6.397  0.00  0.00     0.007 A 
ENDBRANCH   2   3
ENDBRANCH   1   2
BRANCH   1   9
HETATM    9  N           1     -21.188  -8.040  -6.169  0.00  0.00    -0.066 N 
HETATM   10  H           1     -21.225  -9.083  -6.104  0.00  0.00     0.275 HD
HETATM   11  H           1     -22.135  -7.673  -6.415  0.00  0.00     0.275 HD
HETATM   12  H           1     -20.502  -7.760  -6.906  0.00  0.00     0.275 HD
ENDBRANCH   1   9
BRANCH   1  13
HETATM   13  C           1     -21.366  -8.287  -3.731  0.00  0.00     0.249 C 
HETATM   14  O           1     -21.948  -9.316  -3.980  0.00  0.00    -0.271 OA
HETATM   15  N           1     -21.255  -7.862  -2.434  0.00  0.00    -0.345 N 
HETATM   16  H           1     -20.768  -6.999  -2.225  0.00  0.00     0.163 HD
BRANCH  15  17
HETATM   17  C           1     -21.835  -8.645  -1.361  0.00  0.00     0.185 C 
BRANCH  17  18
HETATM   18  C           1     -20.731  -9.384  -0.618  0.00  0.00     0.039 C 
BRANCH  18  19
HETATM   19 Se           1     -21.107 -11.297  -0.629  0.00  0.00     0.000 Se
HETATM   20  H           1     -22.529 -11.133  -0.970  0.00  0.00     0.000 HD
ENDBRANCH  18  19
ENDBRANCH  17  18
BRANCH  17  21
HETATM   21  C           1     -22.560  -7.729  -0.406  0.00  0.00     0.196 C 
HETATM   22  O           1     -23.073  -8.192   0.636  0.00  0.00    -0.646 OA
HETATM   23  O           1     -22.648  -6.508  -0.656  0.00  0.00    -0.646 OA
ENDBRANCH  17  21
ENDBRANCH  15  17
ENDBRANCH   1  13
TORSDOF 8
ENDMDL
MODEL 9
REMARK VINA RESULT:      -6.0     15.557     17.547
REMARK  8 active torsions:
REMARK  status: ('A' for Active; 'I' for Inactive)
REMARK    1  A    between atoms: C_3  and  C_9 
REMARK    2  A    between atoms: C_3  and  C_16 
REMARK    3  A    between atoms: N_4  and  C_9 
REMARK    4  A    between atoms: C_9  and  C_19 
REMARK    5  A    between atoms: Se_10  and  C_20 
REMARK    6  A    between atoms: N_12  and  C_13 
REMARK       I    between atoms: N_12  and  C_19 
REMARK    7  A    between atoms: C_13  and  C_20 
REMARK    8  A    between atoms: C_13  and  C_14 
ROOT
HETATM    1  C           1     -22.784  11.192 -13.064  0.00  0.00     0.278 C 
ENDROOT
BRANCH   1   2
HETATM    2  C           1     -24.226  11.239 -12.573  0.00  0.00     0.081 C 
BRANCH   2   3
HETATM    3  C           1     -24.622   9.891 -12.060  0.00  0.00    -0.056 A 
HETATM    4  C           1     -25.760   9.754 -11.265  0.00  0.00     0.007 A 
HETATM    5  C           1     -26.129   8.497 -10.786  0.00  0.00     0.001 A 
HETATM    6  C           1     -25.362   7.377 -11.102  0.00  0.00     0.000 A 
HETATM    7  C           1     -24.223   7.513 -11.896  0.00  0.00     0.001 A 
HETATM    8  C           1     -23.853   8.770 -12.375  0.00  0.00     0.007 A 
ENDBRANCH   2   3
ENDBRANCH   1   2
BRANCH   1   9
HETATM    9  N           1     -21.948  12.133 -12.248  0.00  0.00    -0.066 N 
HETATM   10  H           1     -21.134  12.458 -12.816  0.00  0.00     0.275 HD
HETATM   11  H           1     -22.527  12.956 -11.966  0.00  0.00     0.275 HD
HETATM   12  H           1     -21.603  11.640 -11.394  0.00  0.00     0.275 HD
ENDBRANCH   1   9
BRANCH   1  13
HETATM   13  C           1     -22.733  11.606 -14.515  0.00  0.00     0.249 C 
HETATM   14  O           1     -23.482  12.459 -14.927  0.00  0.00    -0.271 OA
HETATM   15  N           1     -21.838  11.012 -15.365  0.00  0.00    -0.345 N 
HETATM   16  H           1     -21.211  10.296 -15.020  0.00  0.00     0.163 HD
BRANCH  15  17
HETATM   17  C           1     -21.789  11.409 -16.758  0.00  0.00     0.185 C 
BRANCH  17  18
HETATM   18  C           1     -20.578  12.303 -16.989  0.00  0.00     0.039 C 
BRANCH  18  19
HETATM   19 Se           1     -19.102  11.704 -15.865  0.00  0.00     0.000 Se
HETATM   20  H           1     -19.775  12.045 -14.601  0.00  0.00     0.000 HD
ENDBRANCH  18  19
ENDBRANCH  17  18
BRANCH  17  21
HETATM   21  C           1     -21.680  10.180 -17.627  0.00  0.00     0.196 C 
HETATM   22  O           1     -21.363   9.082 -17.121  0.00  0.00    -0.646 OA
HETATM   23  O           1     -21.906  10.260 -18.854  0.00  0.00    -0.646 OA
ENDBRANCH  17  21
ENDBRANCH  15  17
ENDBRANCH   1  13
TORSDOF 8
ENDMDL
