MODEL 1
REMARK VINA RESULT:      -7.5      0.000      0.000
REMARK  8 active torsions:
REMARK  status: ('A' for Active; 'I' for Inactive)
REMARK    1  A    between atoms: C_1  and  C_19 
REMARK    2  A    between atoms: N_2  and  C_19 
REMARK       I    between atoms: N_2  and  C_13 
REMARK    3  A    between atoms: N_3  and  C_24 
REMARK    4  A    between atoms: C_9  and  C_20 
REMARK    5  A    between atoms: C_12  and  C_24 
REMARK    6  A    between atoms: C_12  and  C_28 
REMARK    7  A    between atoms: C_13  and  C_24 
REMARK    8  A    between atoms: C_19  and  C_20 
ROOT
HETATM    1  N           1     -34.881  -0.785 -13.810  0.00  0.00    -0.344 N 
HETATM    2  O           1     -36.202   0.747 -14.754  0.00  0.00    -0.271 OA
HETATM    3  C           1     -35.758  -0.375 -14.778  0.00  0.00     0.249 C 
HETATM    4  H           1     -33.885  -0.660 -13.943  0.00  0.00     0.163 HD
ENDROOT
BRANCH   3   5
HETATM    5  C           1     -36.167  -1.326 -15.876  0.00  0.00     0.280 C 
BRANCH   5   6
HETATM    6  N           1     -37.401  -0.807 -16.552  0.00  0.00    -0.066 N 
HETATM    7  H           1     -38.246  -1.105 -16.015  0.00  0.00     0.275 HD
HETATM    8  H           1     -37.363   0.236 -16.591  0.00  0.00     0.275 HD
HETATM    9  H           1     -37.453  -1.190 -17.523  0.00  0.00     0.275 HD
ENDBRANCH   5   6
BRANCH   5  10
HETATM   10  C           1     -35.041  -1.440 -16.896  0.00  0.00     0.101 C 
BRANCH  10  11
HETATM   11  C           1     -34.311  -2.731 -16.692  0.00  0.00     0.028 A 
HETATM   12  N           1     -33.167  -3.093 -17.354  0.00  0.00    -0.355 N 
HETATM   13  C           1     -32.857  -4.280 -16.888  0.00  0.00     0.180 A 
ATOM     14  HN          1     -32.664  -2.553 -18.059  1.00  0.00     0.166 HD
HETATM   15  N           1     -33.756  -4.700 -15.950  0.00  0.00    -0.360 N 
HETATM   16  H           1     -33.730  -5.612 -15.429  0.00  0.00     0.166 HD
HETATM   17  C           1     -34.695  -3.716 -15.812  0.00  0.00     0.114 A 
ENDBRANCH  10  11
ENDBRANCH   5  10
ENDBRANCH   3   5
BRANCH   1  18
HETATM   18  C           1     -35.378  -1.399 -12.594  0.00  0.00     0.189 C 
BRANCH  18  19
HETATM   19  C           1     -36.383  -0.481 -11.942  0.00  0.00     0.197 C 
HETATM   20  O           1     -35.991   0.511 -11.291  0.00  0.00    -0.646 OA
HETATM   21  O           1     -37.606  -0.713 -12.054  0.00  0.00    -0.646 OA
ENDBRANCH  18  19
BRANCH  18  22
HETATM   22  C           1     -34.218  -1.644 -11.639  0.00  0.00     0.074 C 
BRANCH  22  23
HETATM   23  C           1     -34.045  -3.117 -11.431  0.00  0.00    -0.056 A 
HETATM   24  C           1     -32.851  -3.737 -11.799  0.00  0.00     0.007 A 
HETATM   25  C           1     -32.689  -5.109 -11.606  0.00  0.00     0.001 A 
HETATM   26  C           1     -33.721  -5.860 -11.043  0.00  0.00     0.000 A 
HETATM   27  C           1     -34.915  -5.240 -10.675  0.00  0.00     0.001 A 
HETATM   28  C           1     -35.076  -3.868 -10.869  0.00  0.00     0.007 A 
ENDBRANCH  22  23
ENDBRANCH  18  22
ENDBRANCH   1  18
TORSDOF 8
ENDMDL
MODEL 2
REMARK VINA RESULT:      -7.1     15.096     17.274
REMARK  8 active torsions:
REMARK  status: ('A' for Active; 'I' for Inactive)
REMARK    1  A    between atoms: C_1  and  C_19 
REMARK    2  A    between atoms: N_2  and  C_19 
REMARK       I    between atoms: N_2  and  C_13 
REMARK    3  A    between atoms: N_3  and  C_24 
REMARK    4  A    between atoms: C_9  and  C_20 
REMARK    5  A    between atoms: C_12  and  C_24 
REMARK    6  A    between atoms: C_12  and  C_28 
REMARK    7  A    between atoms: C_13  and  C_24 
REMARK    8  A    between atoms: C_19  and  C_20 
ROOT
HETATM    1  N           1     -20.783  -8.220  -5.663  0.00  0.00    -0.344 N 
HETATM    2  O           1     -19.663  -6.591  -6.700  0.00  0.00    -0.271 OA
HETATM    3  C           1     -20.701  -6.969  -6.213  0.00  0.00     0.249 C 
HETATM    4  H           1     -21.059  -9.007  -6.236  0.00  0.00     0.163 HD
ENDROOT
BRANCH   3   5
HETATM    5  C           1     -21.907  -6.064  -6.210  0.00  0.00     0.280 C 
BRANCH   5   6
HETATM    6  N           1     -22.480  -5.998  -4.825  0.00  0.00    -0.066 N 
HETATM    7  H           1     -23.394  -6.503  -4.800  0.00  0.00     0.275 HD
HETATM    8  H           1     -21.817  -6.446  -4.154  0.00  0.00     0.275 HD
HETATM    9  H           1     -22.627  -4.999  -4.556  0.00  0.00     0.275 HD
ENDBRANCH   5   6
BRANCH   5  10
HETATM   10  C           1     -21.496  -4.666  -6.654  0.00  0.00     0.101 C 
BRANCH  10  11
HETATM   11  C           1     -22.276  -4.278  -7.872  0.00  0.00     0.028 A 
HETATM   12  N           1     -23.637  -4.115  -7.906  0.00  0.00    -0.355 N 
HETATM   13  C           1     -23.915  -3.779  -9.144  0.00  0.00     0.180 A 
ATOM     14  HN          1     -24.293  -4.231  -7.133  1.00  0.00     0.166 HD
HETATM   15  N           1     -22.786  -3.717  -9.911  0.00  0.00    -0.360 N 
HETATM   16  H           1     -22.741  -3.470 -10.931  0.00  0.00     0.166 HD
HETATM   17  C           1     -21.726  -4.035  -9.108  0.00  0.00     0.114 A 
ENDBRANCH  10  11
ENDBRANCH   5  10
ENDBRANCH   3   5
BRANCH   1  18
HETATM   18  C           1     -20.474  -8.418  -4.261  0.00  0.00     0.189 C 
BRANCH  18  19
HETATM   19  C           1     -19.096  -9.017  -4.128  0.00  0.00     0.197 C 
HETATM   20  O           1     -18.511  -9.468  -5.137  0.00  0.00    -0.646 OA
HETATM   21  O           1     -18.539  -9.062  -3.010  0.00  0.00    -0.646 OA
ENDBRANCH  18  19
BRANCH  18  22
HETATM   22  C           1     -21.500  -9.360  -3.644  0.00  0.00     0.074 C 
BRANCH  22  23
HETATM   23  C           1     -21.849  -8.886  -2.267  0.00  0.00    -0.056 A 
HETATM   24  C           1     -21.791  -7.526  -1.963  0.00  0.00     0.007 A 
HETATM   25  C           1     -22.116  -7.083  -0.681  0.00  0.00     0.001 A 
HETATM   26  C           1     -22.499  -8.001   0.297  0.00  0.00     0.000 A 
HETATM   27  C           1     -22.556  -9.361  -0.007  0.00  0.00     0.001 A 
HETATM   28  C           1     -22.231  -9.803  -1.290  0.00  0.00     0.007 A 
ENDBRANCH  22  23
ENDBRANCH  18  22
ENDBRANCH   1  18
TORSDOF 8
ENDMDL
MODEL 3
REMARK VINA RESULT:      -7.0     14.651     17.324
REMARK  8 active torsions:
REMARK  status: ('A' for Active; 'I' for Inactive)
REMARK    1  A    between atoms: C_1  and  C_19 
REMARK    2  A    between atoms: N_2  and  C_19 
REMARK       I    between atoms: N_2  and  C_13 
REMARK    3  A    between atoms: N_3  and  C_24 
REMARK    4  A    between atoms: C_9  and  C_20 
REMARK    5  A    between atoms: C_12  and  C_24 
REMARK    6  A    between atoms: C_12  and  C_28 
REMARK    7  A    between atoms: C_13  and  C_24 
REMARK    8  A    between atoms: C_19  and  C_20 
ROOT
HETATM    1  N           1     -22.269  -5.782  -5.591  0.00  0.00    -0.344 N 
HETATM    2  O           1     -21.017  -5.755  -3.743  0.00  0.00    -0.271 OA
HETATM    3  C           1     -21.634  -6.406  -4.551  0.00  0.00     0.249 C 
HETATM    4  H           1     -23.227  -5.472  -5.487  0.00  0.00     0.163 HD
ENDROOT
BRANCH   3   5
HETATM    5  C           1     -21.708  -7.907  -4.414  0.00  0.00     0.280 C 
BRANCH   5   6
HETATM    6  N           1     -21.275  -8.548  -5.700  0.00  0.00    -0.066 N 
HETATM    7  H           1     -20.800  -9.455  -5.495  0.00  0.00     0.275 HD
HETATM    8  H           1     -22.112  -8.721  -6.300  0.00  0.00     0.275 HD
HETATM    9  H           1     -20.613  -7.913  -6.199  0.00  0.00     0.275 HD
ENDBRANCH   5   6
BRANCH   5  10
HETATM   10  C           1     -20.789  -8.361  -3.288  0.00  0.00     0.101 C 
BRANCH  10  11
HETATM   11  C           1     -21.611  -8.778  -2.108  0.00  0.00     0.028 A 
HETATM   12  N           1     -22.142 -10.030  -1.932  0.00  0.00    -0.355 N 
HETATM   13  C           1     -22.782  -9.976  -0.787  0.00  0.00     0.180 A 
ATOM     14  HN          1     -22.057 -10.831  -2.557  1.00  0.00     0.166 HD
HETATM   15  N           1     -22.685  -8.739  -0.217  0.00  0.00    -0.360 N 
HETATM   16  H           1     -23.108  -8.442   0.698  0.00  0.00     0.166 HD
HETATM   17  C           1     -21.936  -7.959  -1.053  0.00  0.00     0.114 A 
ENDBRANCH  10  11
ENDBRANCH   5  10
ENDBRANCH   3   5
BRANCH   1  18
HETATM   18  C           1     -21.569  -5.566  -6.842  0.00  0.00     0.189 C 
BRANCH  18  19
HETATM   19  C           1     -20.080  -5.600  -6.598  0.00  0.00     0.197 C 
HETATM   20  O           1     -19.494  -4.585  -6.165  0.00  0.00    -0.646 OA
HETATM   21  O           1     -19.433  -6.645  -6.829  0.00  0.00    -0.646 OA
ENDBRANCH  18  19
BRANCH  18  22
HETATM   22  C           1     -21.959  -4.209  -7.413  0.00  0.00     0.074 C 
BRANCH  22  23
HETATM   23  C           1     -21.903  -4.262  -8.908  0.00  0.00    -0.056 A 
HETATM   24  C           1     -23.062  -4.522  -9.640  0.00  0.00     0.007 A 
HETATM   25  C           1     -23.012  -4.571 -11.033  0.00  0.00     0.001 A 
HETATM   26  C           1     -21.802  -4.359 -11.694  0.00  0.00     0.000 A 
HETATM   27  C           1     -20.643  -4.099 -10.962  0.00  0.00     0.001 A 
HETATM   28  C           1     -20.695  -4.050  -9.569  0.00  0.00     0.007 A 
ENDBRANCH  22  23
ENDBRANCH  18  22
ENDBRANCH   1  18
TORSDOF 8
ENDMDL
MODEL 4
REMARK VINA RESULT:      -6.8     14.531     16.614
REMARK  8 active torsions:
REMARK  status: ('A' for Active; 'I' for Inactive)
REMARK    1  A    between atoms: C_1  and  C_19 
REMARK    2  A    between atoms: N_2  and  C_19 
REMARK       I    between atoms: N_2  and  C_13 
REMARK    3  A    between atoms: N_3  and  C_24 
REMARK    4  A    between atoms: C_9  and  C_20 
REMARK    5  A    between atoms: C_12  and  C_24 
REMARK    6  A    between atoms: C_12  and  C_28 
REMARK    7  A    between atoms: C_13  and  C_24 
REMARK    8  A    between atoms: C_19  and  C_20 
ROOT
HETATM    1  N           1     -19.826  -6.943  -6.694  0.00  0.00    -0.344 N 
HETATM    2  O           1     -18.810  -4.973  -6.955  0.00  0.00    -0.271 OA
HETATM    3  C           1     -19.839  -5.603  -6.975  0.00  0.00     0.249 C 
HETATM    4  H           1     -19.696  -7.615  -7.439  0.00  0.00     0.163 HD
ENDROOT
BRANCH   3   5
HETATM    5  C           1     -21.139  -4.916  -7.310  0.00  0.00     0.280 C 
BRANCH   5   6
HETATM    6  N           1     -21.143  -3.537  -6.720  0.00  0.00    -0.066 N 
HETATM    7  H           1     -21.952  -2.997  -7.100  0.00  0.00     0.275 HD
HETATM    8  H           1     -21.226  -3.604  -5.681  0.00  0.00     0.275 HD
HETATM    9  H           1     -20.252  -3.050  -6.968  0.00  0.00     0.275 HD
ENDBRANCH   5   6
BRANCH   5  10
HETATM   10  C           1     -21.288  -4.820  -8.823  0.00  0.00     0.101 C 
BRANCH  10  11
HETATM   11  C           1     -22.631  -4.249  -9.158  0.00  0.00     0.028 A 
HETATM   12  N           1     -22.970  -3.716 -10.375  0.00  0.00    -0.355 N 
HETATM   13  C           1     -24.220  -3.336 -10.250  0.00  0.00     0.180 A 
ATOM     14  HN          1     -22.376  -3.633 -11.200  1.00  0.00     0.166 HD
HETATM   15  N           1     -24.702  -3.603  -9.001  0.00  0.00    -0.360 N 
HETATM   16  H           1     -25.671  -3.396  -8.651  0.00  0.00     0.166 HD
HETATM   17  C           1     -23.694  -4.190  -8.288  0.00  0.00     0.114 A 
ENDBRANCH  10  11
ENDBRANCH   5  10
ENDBRANCH   3   5
BRANCH   1  18
HETATM   18  C           1     -19.998  -7.399  -5.329  0.00  0.00     0.189 C 
BRANCH  18  19
HETATM   19  C           1     -19.320  -8.737  -5.156  0.00  0.00     0.197 C 
HETATM   20  O           1     -19.608  -9.686  -5.916  0.00  0.00    -0.646 OA
HETATM   21  O           1     -18.471  -8.894  -4.252  0.00  0.00    -0.646 OA
ENDBRANCH  18  19
BRANCH  18  22
HETATM   22  C           1     -21.484  -7.539  -5.024  0.00  0.00     0.074 C 
BRANCH  22  23
HETATM   23  C           1     -21.698  -7.476  -3.544  0.00  0.00    -0.056 A 
HETATM   24  C           1     -21.657  -8.645  -2.784  0.00  0.00     0.007 A 
HETATM   25  C           1     -21.857  -8.587  -1.404  0.00  0.00     0.001 A 
HETATM   26  C           1     -22.097  -7.360  -0.786  0.00  0.00     0.000 A 
HETATM   27  C           1     -22.138  -6.191  -1.547  0.00  0.00     0.001 A 
HETATM   28  C           1     -21.938  -6.250  -2.926  0.00  0.00     0.007 A 
ENDBRANCH  22  23
ENDBRANCH  18  22
ENDBRANCH   1  18
TORSDOF 8
ENDMDL
MODEL 5
REMARK VINA RESULT:      -6.7      7.605     10.549
REMARK  8 active torsions:
REMARK  status: ('A' for Active; 'I' for Inactive)
REMARK    1  A    between atoms: C_1  and  C_19 
REMARK    2  A    between atoms: N_2  and  C_19 
REMARK       I    between atoms: N_2  and  C_13 
REMARK    3  A    between atoms: N_3  and  C_24 
REMARK    4  A    between atoms: C_9  and  C_20 
REMARK    5  A    between atoms: C_12  and  C_24 
REMARK    6  A    between atoms: C_12  and  C_28 
REMARK    7  A    between atoms: C_13  and  C_24 
REMARK    8  A    between atoms: C_19  and  C_20 
ROOT
HETATM    1  N           1     -27.932  -6.780 -16.348  0.00  0.00    -0.344 N 
HETATM    2  O           1     -29.157  -8.638 -16.176  0.00  0.00    -0.271 OA
HETATM    3  C           1     -28.959  -7.593 -16.747  0.00  0.00     0.249 C 
HETATM    4  H           1     -28.092  -6.072 -15.642  0.00  0.00     0.163 HD
ENDROOT
BRANCH   3   5
HETATM    5  C           1     -29.842  -7.182 -17.899  0.00  0.00     0.280 C 
BRANCH   5   6
HETATM    6  N           1     -29.835  -8.259 -18.943  0.00  0.00    -0.066 N 
HETATM    7  H           1     -30.467  -9.037 -18.647  0.00  0.00     0.275 HD
HETATM    8  H           1     -30.170  -7.865 -19.850  0.00  0.00     0.275 HD
HETATM    9  H           1     -28.863  -8.626 -19.058  0.00  0.00     0.275 HD
ENDBRANCH   5   6
BRANCH   5  10
HETATM   10  C           1     -31.265  -6.971 -17.398  0.00  0.00     0.101 C 
BRANCH  10  11
HETATM   11  C           1     -31.558  -5.505 -17.327  0.00  0.00     0.028 A 
HETATM   12  N           1     -32.768  -4.969 -16.971  0.00  0.00    -0.355 N 
HETATM   13  C           1     -32.603  -3.668 -17.034  0.00  0.00     0.180 A 
ATOM     14  HN          1     -33.616  -5.473 -16.712  1.00  0.00     0.166 HD
HETATM   15  N           1     -31.332  -3.343 -17.416  0.00  0.00    -0.360 N 
HETATM   16  H           1     -30.950  -2.373 -17.541  0.00  0.00     0.166 HD
HETATM   17  C           1     -30.649  -4.512 -17.608  0.00  0.00     0.114 A 
ENDBRANCH  10  11
ENDBRANCH   5  10
ENDBRANCH   3   5
BRANCH   1  18
HETATM   18  C           1     -26.616  -6.932 -16.937  0.00  0.00     0.189 C 
BRANCH  18  19
HETATM   19  C           1     -25.564  -6.587 -15.912  0.00  0.00     0.197 C 
HETATM   20  O           1     -25.224  -7.431 -15.055  0.00  0.00    -0.646 OA
HETATM   21  O           1     -25.032  -5.455 -15.920  0.00  0.00    -0.646 OA
ENDBRANCH  18  19
BRANCH  18  22
HETATM   22  C           1     -26.485  -6.001 -18.134  0.00  0.00     0.074 C 
BRANCH  22  23
HETATM   23  C           1     -25.876  -6.745 -19.282  0.00  0.00    -0.056 A 
HETATM   24  C           1     -26.676  -7.160 -20.346  0.00  0.00     0.007 A 
HETATM   25  C           1     -26.110  -7.853 -21.416  0.00  0.00     0.001 A 
HETATM   26  C           1     -24.742  -8.130 -21.421  0.00  0.00     0.000 A 
HETATM   27  C           1     -23.943  -7.715 -20.356  0.00  0.00     0.001 A 
HETATM   28  C           1     -24.510  -7.022 -19.287  0.00  0.00     0.007 A 
ENDBRANCH  22  23
ENDBRANCH  18  22
ENDBRANCH   1  18
TORSDOF 8
ENDMDL
MODEL 6
REMARK VINA RESULT:      -6.7     16.040     18.274
REMARK  8 active torsions:
REMARK  status: ('A' for Active; 'I' for Inactive)
REMARK    1  A    between atoms: C_1  and  C_19 
REMARK    2  A    between atoms: N_2  and  C_19 
REMARK       I    between atoms: N_2  and  C_13 
REMARK    3  A    between atoms: N_3  and  C_24 
REMARK    4  A    between atoms: C_9  and  C_20 
REMARK    5  A    between atoms: C_12  and  C_24 
REMARK    6  A    between atoms: C_12  and  C_28 
REMARK    7  A    between atoms: C_13  and  C_24 
REMARK    8  A    between atoms: C_19  and  C_20 
ROOT
HETATM    1  N           1     -21.425  -8.847  -3.910  0.00  0.00    -0.344 N 
HETATM    2  O           1     -21.334  -8.466  -6.108  0.00  0.00    -0.271 OA
HETATM    3  C           1     -21.489  -8.018  -4.997  0.00  0.00     0.249 C 
HETATM    4  H           1     -22.264  -9.300  -3.569  0.00  0.00     0.163 HD
ENDROOT
BRANCH   3   5
HETATM    5  C           1     -21.754  -6.545  -4.808  0.00  0.00     0.280 C 
BRANCH   5   6
HETATM    6  N           1     -22.210  -6.297  -3.400  0.00  0.00    -0.066 N 
HETATM    7  H           1     -21.452  -5.814  -2.867  0.00  0.00     0.275 HD
HETATM    8  H           1     -23.064  -5.695  -3.413  0.00  0.00     0.275 HD
HETATM    9  H           1     -22.432  -7.208  -2.940  0.00  0.00     0.275 HD
ENDBRANCH   5   6
BRANCH   5  10
HETATM   10  C           1     -20.475  -5.760  -5.071  0.00  0.00     0.101 C 
BRANCH  10  11
HETATM   11  C           1     -20.494  -5.229  -6.470  0.00  0.00     0.028 A 
HETATM   12  N           1     -20.047  -5.915  -7.570  0.00  0.00    -0.355 N 
HETATM   13  C           1     -20.240  -5.104  -8.585  0.00  0.00     0.180 A 
ATOM     14  HN          1     -19.651  -6.854  -7.594  1.00  0.00     0.166 HD
HETATM   15  N           1     -20.793  -3.922  -8.183  0.00  0.00    -0.360 N 
HETATM   16  H           1     -21.043  -3.111  -8.803  0.00  0.00     0.166 HD
HETATM   17  C           1     -20.963  -3.987  -6.828  0.00  0.00     0.114 A 
ENDBRANCH  10  11
ENDBRANCH   5  10
ENDBRANCH   3   5
BRANCH   1  18
HETATM   18  C           1     -20.157  -9.076  -3.246  0.00  0.00     0.189 C 
BRANCH  18  19
HETATM   19  C           1     -19.194  -9.724  -4.210  0.00  0.00     0.197 C 
HETATM   20  O           1     -19.430 -10.869  -4.654  0.00  0.00    -0.646 OA
HETATM   21  O           1     -18.161  -9.116  -4.565  0.00  0.00    -0.646 OA
ENDBRANCH  18  19
BRANCH  18  22
HETATM   22  C           1     -20.370  -9.992  -2.048  0.00  0.00     0.074 C 
BRANCH  22  23
HETATM   23  C           1     -21.374  -9.378  -1.122  0.00  0.00    -0.056 A 
HETATM   24  C           1     -22.543 -10.071  -0.804  0.00  0.00     0.007 A 
HETATM   25  C           1     -23.479  -9.500   0.058  0.00  0.00     0.001 A 
HETATM   26  C           1     -23.246  -8.236   0.602  0.00  0.00     0.000 A 
HETATM   27  C           1     -22.078  -7.545   0.283  0.00  0.00     0.001 A 
HETATM   28  C           1     -21.142  -8.116  -0.579  0.00  0.00     0.007 A 
ENDBRANCH  22  23
ENDBRANCH  18  22
ENDBRANCH   1  18
TORSDOF 8
ENDMDL
MODEL 7
REMARK VINA RESULT:      -6.7     15.566     18.229
REMARK  8 active torsions:
REMARK  status: ('A' for Active; 'I' for Inactive)
REMARK    1  A    between atoms: C_1  and  C_19 
REMARK    2  A    between atoms: N_2  and  C_19 
REMARK       I    between atoms: N_2  and  C_13 
REMARK    3  A    between atoms: N_3  and  C_24 
REMARK    4  A    between atoms: C_9  and  C_20 
REMARK    5  A    between atoms: C_12  and  C_24 
REMARK    6  A    between atoms: C_12  and  C_28 
REMARK    7  A    between atoms: C_13  and  C_24 
REMARK    8  A    between atoms: C_19  and  C_20 
ROOT
HETATM    1  N           1     -22.445  -6.330  -4.360  0.00  0.00    -0.344 N 
HETATM    2  O           1     -21.163  -5.538  -2.713  0.00  0.00    -0.271 OA
HETATM    3  C           1     -21.699  -6.491  -3.223  0.00  0.00     0.249 C 
HETATM    4  H           1     -23.435  -6.130  -4.292  0.00  0.00     0.163 HD
ENDROOT
BRANCH   3   5
HETATM    5  C           1     -21.549  -7.861  -2.608  0.00  0.00     0.280 C 
BRANCH   5   6
HETATM    6  N           1     -20.123  -8.310  -2.731  0.00  0.00    -0.066 N 
HETATM    7  H           1     -20.093  -9.345  -2.870  0.00  0.00     0.275 HD
HETATM    8  H           1     -19.678  -7.835  -3.548  0.00  0.00     0.275 HD
HETATM    9  H           1     -19.604  -8.061  -1.858  0.00  0.00     0.275 HD
ENDBRANCH   5   6
BRANCH   5  10
HETATM   10  C           1     -21.937  -7.803  -1.136  0.00  0.00     0.101 C 
BRANCH  10  11
HETATM   11  C           1     -21.900  -9.182  -0.555  0.00  0.00     0.028 A 
HETATM   12  N           1     -20.994  -9.609   0.381  0.00  0.00    -0.355 N 
HETATM   13  C           1     -21.306 -10.862   0.618  0.00  0.00     0.180 A 
ATOM     14  HN          1     -20.239  -9.069   0.803  1.00  0.00     0.166 HD
HETATM   15  N           1     -22.379 -11.261  -0.127  0.00  0.00    -0.360 N 
HETATM   16  H           1     -22.822 -12.213  -0.120  0.00  0.00     0.166 HD
HETATM   17  C           1     -22.772 -10.193  -0.886  0.00  0.00     0.114 A 
ENDBRANCH  10  11
ENDBRANCH   5  10
ENDBRANCH   3   5
BRANCH   1  18
HETATM   18  C           1     -21.817  -6.445  -5.661  0.00  0.00     0.189 C 
BRANCH  18  19
HETATM   19  C           1     -20.961  -7.687  -5.698  0.00  0.00     0.197 C 
HETATM   20  O           1     -19.715  -7.587  -5.704  0.00  0.00    -0.646 OA
HETATM   21  O           1     -21.497  -8.816  -5.723  0.00  0.00    -0.646 OA
ENDBRANCH  18  19
BRANCH  18  22
HETATM   22  C           1     -20.948  -5.221  -5.915  0.00  0.00     0.074 C 
BRANCH  22  23
HETATM   23  C           1     -21.128  -4.766  -7.330  0.00  0.00    -0.056 A 
HETATM   24  C           1     -20.075  -4.879  -8.238  0.00  0.00     0.007 A 
HETATM   25  C           1     -20.241  -4.456  -9.556  0.00  0.00     0.001 A 
HETATM   26  C           1     -21.462  -3.919  -9.967  0.00  0.00     0.000 A 
HETATM   27  C           1     -22.514  -3.805  -9.059  0.00  0.00     0.001 A 
HETATM   28  C           1     -22.347  -4.229  -7.741  0.00  0.00     0.007 A 
ENDBRANCH  22  23
ENDBRANCH  18  22
ENDBRANCH   1  18
TORSDOF 8
ENDMDL
MODEL 8
REMARK VINA RESULT:      -6.7      1.563      2.240
REMARK  8 active torsions:
REMARK  status: ('A' for Active; 'I' for Inactive)
REMARK    1  A    between atoms: C_1  and  C_19 
REMARK    2  A    between atoms: N_2  and  C_19 
REMARK       I    between atoms: N_2  and  C_13 
REMARK    3  A    between atoms: N_3  and  C_24 
REMARK    4  A    between atoms: C_9  and  C_20 
REMARK    5  A    between atoms: C_12  and  C_24 
REMARK    6  A    between atoms: C_12  and  C_28 
REMARK    7  A    between atoms: C_13  and  C_24 
REMARK    8  A    between atoms: C_19  and  C_20 
ROOT
HETATM    1  N           1     -34.824  -1.383 -14.623  0.00  0.00    -0.344 N 
HETATM    2  O           1     -35.854  -2.070 -16.481  0.00  0.00    -0.271 OA
HETATM    3  C           1     -34.959  -2.233 -15.688  0.00  0.00     0.249 C 
HETATM    4  H           1     -34.255  -0.551 -14.709  0.00  0.00     0.163 HD
ENDROOT
BRANCH   3   5
HETATM    5  C           1     -33.987  -3.373 -15.870  0.00  0.00     0.280 C 
BRANCH   5   6
HETATM    6  N           1     -34.688  -4.674 -15.609  0.00  0.00    -0.066 N 
HETATM    7  H           1     -33.991  -5.391 -15.308  0.00  0.00     0.275 HD
HETATM    8  H           1     -35.398  -4.540 -14.855  0.00  0.00     0.275 HD
HETATM    9  H           1     -35.163  -4.995 -16.483  0.00  0.00     0.275 HD
ENDBRANCH   5   6
BRANCH   5  10
HETATM   10  C           1     -33.454  -3.363 -17.297  0.00  0.00     0.101 C 
BRANCH  10  11
HETATM   11  C           1     -32.006  -3.746 -17.292  0.00  0.00     0.028 A 
HETATM   12  N           1     -30.982  -2.927 -17.691  0.00  0.00    -0.355 N 
HETATM   13  C           1     -29.889  -3.636 -17.531  0.00  0.00     0.180 A 
ATOM     14  HN          1     -31.055  -1.970 -18.037  1.00  0.00     0.166 HD
HETATM   15  N           1     -30.167  -4.881 -17.044  0.00  0.00    -0.360 N 
HETATM   16  H           1     -29.468  -5.635 -16.830  0.00  0.00     0.166 HD
HETATM   17  C           1     -31.523  -4.967 -16.885  0.00  0.00     0.114 A 
ENDBRANCH  10  11
ENDBRANCH   5  10
ENDBRANCH   3   5
BRANCH   1  18
HETATM   18  C           1     -35.496  -1.676 -13.372  0.00  0.00     0.189 C 
BRANCH  18  19
HETATM   19  C           1     -36.547  -0.626 -13.108  0.00  0.00     0.197 C 
HETATM   20  O           1     -36.290   0.339 -12.356  0.00  0.00    -0.646 OA
HETATM   21  O           1     -37.673  -0.721 -13.641  0.00  0.00    -0.646 OA
ENDBRANCH  18  19
BRANCH  18  22
HETATM   22  C           1     -34.479  -1.675 -12.238  0.00  0.00     0.074 C 
BRANCH  22  23
HETATM   23  C           1     -34.240  -3.080 -11.780  0.00  0.00    -0.056 A 
HETATM   24  C           1     -33.021  -3.702 -12.048  0.00  0.00     0.007 A 
HETATM   25  C           1     -32.797  -5.011 -11.622  0.00  0.00     0.001 A 
HETATM   26  C           1     -33.793  -5.698 -10.927  0.00  0.00     0.000 A 
HETATM   27  C           1     -35.012  -5.075 -10.659  0.00  0.00     0.001 A 
HETATM   28  C           1     -35.235  -3.766 -11.086  0.00  0.00     0.007 A 
ENDBRANCH  22  23
ENDBRANCH  18  22
ENDBRANCH   1  18
TORSDOF 8
ENDMDL
MODEL 9
REMARK VINA RESULT:      -6.7     16.301     18.555
REMARK  8 active torsions:
REMARK  status: ('A' for Active; 'I' for Inactive)
REMARK    1  A    between atoms: C_1  and  C_19 
REMARK    2  A    between atoms: N_2  and  C_19 
REMARK       I    between atoms: N_2  and  C_13 
REMARK    3  A    between atoms: N_3  and  C_24 
REMARK    4  A    between atoms: C_9  and  C_20 
REMARK    5  A    between atoms: C_12  and  C_24 
REMARK    6  A    between atoms: C_12  and  C_28 
REMARK    7  A    between atoms: C_13  and  C_24 
REMARK    8  A    between atoms: C_19  and  C_20 
ROOT
HETATM    1  N           1     -21.061  -7.615  -1.806  0.00  0.00    -0.344 N 
HETATM    2  O           1     -22.141  -5.743  -2.364  0.00  0.00    -0.271 OA
HETATM    3  C           1     -21.697  -6.810  -2.712  0.00  0.00     0.249 C 
HETATM    4  H           1     -20.063  -7.531  -1.667  0.00  0.00     0.163 HD
ENDROOT
BRANCH   3   5
HETATM    5  C           1     -21.840  -7.255  -4.146  0.00  0.00     0.280 C 
BRANCH   5   6
HETATM    6  N           1     -22.803  -6.350  -4.857  0.00  0.00    -0.066 N 
HETATM    7  H           1     -22.735  -6.508  -5.888  0.00  0.00     0.275 HD
HETATM    8  H           1     -23.775  -6.556  -4.536  0.00  0.00     0.275 HD
HETATM    9  H           1     -22.568  -5.354  -4.642  0.00  0.00     0.275 HD
ENDBRANCH   5   6
BRANCH   5  10
HETATM   10  C           1     -20.484  -7.193  -4.836  0.00  0.00     0.101 C 
BRANCH  10  11
HETATM   11  C           1     -20.509  -6.134  -5.894  0.00  0.00     0.028 A 
HETATM   12  N           1     -20.744  -6.366  -7.224  0.00  0.00    -0.355 N 
HETATM   13  C           1     -20.680  -5.187  -7.799  0.00  0.00     0.180 A 
ATOM     14  HN          1     -20.930  -7.264  -7.672  1.00  0.00     0.166 HD
HETATM   15  N           1     -20.413  -4.203  -6.891  0.00  0.00    -0.360 N 
HETATM   16  H           1     -20.312  -3.177  -7.098  0.00  0.00     0.166 HD
HETATM   17  C           1     -20.300  -4.794  -5.663  0.00  0.00     0.114 A 
ENDBRANCH  10  11
ENDBRANCH   5  10
ENDBRANCH   3   5
BRANCH   1  18
HETATM   18  C           1     -21.819  -8.590  -1.046  0.00  0.00     0.189 C 
BRANCH  18  19
HETATM   19  C           1     -22.279  -7.969   0.250  0.00  0.00     0.197 C 
HETATM   20  O           1     -21.510  -7.936   1.234  0.00  0.00    -0.646 OA
HETATM   21  O           1     -23.430  -7.489   0.339  0.00  0.00    -0.646 OA
ENDBRANCH  18  19
BRANCH  18  22
HETATM   22  C           1     -20.938  -9.796  -0.748  0.00  0.00     0.074 C 
BRANCH  22  23
HETATM   23  C           1     -21.791 -10.932  -0.273  0.00  0.00    -0.056 A 
HETATM   24  C           1     -23.078 -11.097  -0.783  0.00  0.00     0.007 A 
HETATM   25  C           1     -23.873 -12.155  -0.342  0.00  0.00     0.001 A 
HETATM   26  C           1     -23.380 -13.047   0.610  0.00  0.00     0.000 A 
HETATM   27  C           1     -22.092 -12.881   1.120  0.00  0.00     0.001 A 
HETATM   28  C           1     -21.298 -11.824   0.678  0.00  0.00     0.007 A 
ENDBRANCH  22  23
ENDBRANCH  18  22
ENDBRANCH   1  18
TORSDOF 8
ENDMDL
