MODEL 1
REMARK VINA RESULT:      -5.9      0.000      0.000
REMARK  6 active torsions:
REMARK  status: ('A' for Active; 'I' for Inactive)
REMARK    1  A    between atoms: N_3  and  C_16 
REMARK       I    between atoms: N_3  and  C_4 
REMARK    2  A    between atoms: C_4  and  C_5 
REMARK    3  A    between atoms: C_5  and  N_7 
REMARK    4  A    between atoms: C_14  and  C_16 
REMARK    5  A    between atoms: C_16  and  C_18 
REMARK    6  A    between atoms: C_18  and  C_19 
ROOT
HETATM    1  C           1     -28.418  -6.374 -18.308  0.00  0.00     0.191 C 
ENDROOT
BRANCH   1   2
HETATM    2  N           1     -29.227  -5.253 -18.746  0.00  0.00    -0.344 N 
HETATM    3  C           1     -29.811  -4.428 -17.824  0.00  0.00     0.248 C 
HETATM    4  O           1     -29.221  -3.454 -17.423  0.00  0.00    -0.271 OA
HETATM    5  H           1     -29.360  -5.080 -19.735  0.00  0.00     0.163 HD
BRANCH   3   6
HETATM    6  C           1     -31.196  -4.736 -17.306  0.00  0.00     0.270 C 
HETATM    7  C           1     -32.063  -3.488 -17.403  0.00  0.00     0.050 C 
BRANCH   6   8
HETATM    8  N           1     -31.108  -5.173 -15.874  0.00  0.00    -0.067 N 
HETATM    9  H           1     -31.418  -6.168 -15.793  0.00  0.00     0.275 HD
HETATM   10  H           1     -30.119  -5.089 -15.545  0.00  0.00     0.275 HD
HETATM   11  H           1     -31.724  -4.567 -15.286  0.00  0.00     0.275 HD
ENDBRANCH   6   8
ENDBRANCH   3   6
ENDBRANCH   1   2
BRANCH   1  12
HETATM   12  C           1     -29.308  -7.565 -18.050  0.00  0.00     0.197 C 
HETATM   13  O           1     -29.603  -7.881 -16.877  0.00  0.00    -0.646 OA
HETATM   14  O           1     -29.748  -8.236 -19.008  0.00  0.00    -0.646 OA
ENDBRANCH   1  12
BRANCH   1  15
HETATM   15  C           1     -27.686  -6.000 -17.026  0.00  0.00     0.094 C 
BRANCH  15  16
HETATM   16  C           1     -26.271  -6.487 -17.099  0.00  0.00     0.028 A 
HETATM   17  N           1     -25.591  -6.734 -18.263  0.00  0.00    -0.354 N 
HETATM   18  C           1     -24.399  -7.139 -17.889  0.00  0.00     0.180 A 
ATOM     19  HN          1     -25.938  -6.627 -19.216  1.00  0.00     0.166 HD
HETATM   20  N           1     -24.283  -7.162 -16.527  0.00  0.00    -0.360 N 
HETATM   21  H           1     -23.433  -7.447 -15.982  0.00  0.00     0.166 HD
HETATM   22  C           1     -25.478  -6.745 -16.007  0.00  0.00     0.114 A 
ENDBRANCH  15  16
ENDBRANCH   1  15
TORSDOF 6
ENDMDL
MODEL 2
REMARK VINA RESULT:      -5.8      2.219      3.043
REMARK  6 active torsions:
REMARK  status: ('A' for Active; 'I' for Inactive)
REMARK    1  A    between atoms: N_3  and  C_16 
REMARK       I    between atoms: N_3  and  C_4 
REMARK    2  A    between atoms: C_4  and  C_5 
REMARK    3  A    between atoms: C_5  and  N_7 
REMARK    4  A    between atoms: C_14  and  C_16 
REMARK    5  A    between atoms: C_16  and  C_18 
REMARK    6  A    between atoms: C_18  and  C_19 
ROOT
HETATM    1  C           1     -27.914  -6.363 -17.134  0.00  0.00     0.191 C 
ENDROOT
BRANCH   1   2
HETATM    2  N           1     -28.950  -5.632 -16.431  0.00  0.00    -0.344 N 
HETATM    3  C           1     -30.076  -5.228 -17.097  0.00  0.00     0.248 C 
HETATM    4  O           1     -31.041  -5.951 -17.146  0.00  0.00    -0.271 OA
HETATM    5  H           1     -28.841  -5.421 -15.447  0.00  0.00     0.163 HD
BRANCH   3   6
HETATM    6  C           1     -30.109  -3.878 -17.771  0.00  0.00     0.270 C 
HETATM    7  C           1     -29.054  -2.973 -17.148  0.00  0.00     0.050 C 
BRANCH   6   8
HETATM    8  N           1     -31.465  -3.262 -17.589  0.00  0.00    -0.067 N 
HETATM    9  H           1     -32.201  -3.963 -17.828  0.00  0.00     0.275 HD
HETATM   10  H           1     -31.580  -2.962 -16.595  0.00  0.00     0.275 HD
HETATM   11  H           1     -31.557  -2.432 -18.217  0.00  0.00     0.275 HD
ENDBRANCH   6   8
ENDBRANCH   3   6
ENDBRANCH   1   2
BRANCH   1  12
HETATM   12  C           1     -26.676  -6.434 -16.272  0.00  0.00     0.197 C 
HETATM   13  O           1     -26.509  -7.402 -15.499  0.00  0.00    -0.646 OA
HETATM   14  O           1     -25.820  -5.526 -16.332  0.00  0.00    -0.646 OA
ENDBRANCH   1  12
BRANCH   1  15
HETATM   15  C           1     -27.584  -5.647 -18.437  0.00  0.00     0.094 C 
BRANCH  15  16
HETATM   16  C           1     -26.761  -6.547 -19.307  0.00  0.00     0.028 A 
HETATM   17  N           1     -25.402  -6.691 -19.214  0.00  0.00    -0.354 N 
HETATM   18  C           1     -25.080  -7.561 -20.144  0.00  0.00     0.180 A 
ATOM     19  HN          1     -24.773  -6.221 -18.562  1.00  0.00     0.166 HD
HETATM   20  N           1     -26.181  -7.985 -20.833  0.00  0.00    -0.360 N 
HETATM   21  H           1     -26.190  -8.678 -21.622  0.00  0.00     0.166 HD
HETATM   22  C           1     -27.268  -7.343 -20.307  0.00  0.00     0.114 A 
ENDBRANCH  15  16
ENDBRANCH   1  15
TORSDOF 6
ENDMDL
MODEL 3
REMARK VINA RESULT:      -5.8      2.467      5.707
REMARK  6 active torsions:
REMARK  status: ('A' for Active; 'I' for Inactive)
REMARK    1  A    between atoms: N_3  and  C_16 
REMARK       I    between atoms: N_3  and  C_4 
REMARK    2  A    between atoms: C_4  and  C_5 
REMARK    3  A    between atoms: C_5  and  N_7 
REMARK    4  A    between atoms: C_14  and  C_16 
REMARK    5  A    between atoms: C_16  and  C_18 
REMARK    6  A    between atoms: C_18  and  C_19 
ROOT
HETATM    1  C           1     -27.291  -5.950 -18.280  0.00  0.00     0.191 C 
ENDROOT
BRANCH   1   2
HETATM    2  N           1     -26.344  -7.008 -18.575  0.00  0.00    -0.344 N 
HETATM    3  C           1     -25.266  -6.758 -19.380  0.00  0.00     0.248 C 
HETATM    4  O           1     -24.227  -6.377 -18.898  0.00  0.00    -0.271 OA
HETATM    5  H           1     -26.481  -7.933 -18.185  0.00  0.00     0.163 HD
BRANCH   3   6
HETATM    6  C           1     -25.377  -6.958 -20.873  0.00  0.00     0.270 C 
HETATM    7  C           1     -24.350  -7.988 -21.324  0.00  0.00     0.050 C 
BRANCH   6   8
HETATM    8  N           1     -25.118  -5.656 -21.571  0.00  0.00    -0.067 N 
HETATM    9  H           1     -24.977  -5.829 -22.592  0.00  0.00     0.275 HD
HETATM   10  H           1     -25.937  -5.021 -21.437  0.00  0.00     0.275 HD
HETATM   11  H           1     -24.262  -5.211 -21.172  0.00  0.00     0.275 HD
ENDBRANCH   6   8
ENDBRANCH   3   6
ENDBRANCH   1   2
BRANCH   1  12
HETATM   12  C           1     -27.146  -5.534 -16.836  0.00  0.00     0.197 C 
HETATM   13  O           1     -27.189  -4.323 -16.528  0.00  0.00    -0.646 OA
HETATM   14  O           1     -26.983  -6.400 -15.949  0.00  0.00    -0.646 OA
ENDBRANCH   1  12
BRANCH   1  15
HETATM   15  C           1     -28.707  -6.454 -18.523  0.00  0.00     0.094 C 
BRANCH  15  16
HETATM   16  C           1     -29.691  -5.451 -18.004  0.00  0.00     0.028 A 
HETATM   17  N           1     -29.708  -4.126 -18.351  0.00  0.00    -0.354 N 
HETATM   18  C           1     -30.713  -3.605 -17.684  0.00  0.00     0.180 A 
ATOM     19  HN          1     -29.076  -3.645 -18.991  1.00  0.00     0.166 HD
HETATM   20  N           1     -31.345  -4.545 -16.919  0.00  0.00    -0.360 N 
HETATM   21  H           1     -32.174  -4.383 -16.296  0.00  0.00     0.166 HD
HETATM   22  C           1     -30.700  -5.736 -17.114  0.00  0.00     0.114 A 
ENDBRANCH  15  16
ENDBRANCH   1  15
TORSDOF 6
ENDMDL
MODEL 4
REMARK VINA RESULT:      -5.5     10.403     12.690
REMARK  6 active torsions:
REMARK  status: ('A' for Active; 'I' for Inactive)
REMARK    1  A    between atoms: N_3  and  C_16 
REMARK       I    between atoms: N_3  and  C_4 
REMARK    2  A    between atoms: C_4  and  C_5 
REMARK    3  A    between atoms: C_5  and  N_7 
REMARK    4  A    between atoms: C_14  and  C_16 
REMARK    5  A    between atoms: C_16  and  C_18 
REMARK    6  A    between atoms: C_18  and  C_19 
ROOT
HETATM    1  C           1     -21.873  -5.069  -7.728  0.00  0.00     0.191 C 
ENDROOT
BRANCH   1   2
HETATM    2  N           1     -22.252  -4.996  -6.330  0.00  0.00    -0.344 N 
HETATM    3  C           1     -21.535  -5.685  -5.390  0.00  0.00     0.248 C 
HETATM    4  O           1     -20.591  -5.163  -4.847  0.00  0.00    -0.271 OA
HETATM    5  H           1     -23.048  -4.436  -6.051  0.00  0.00     0.163 HD
BRANCH   3   6
HETATM    6  C           1     -21.925  -7.099  -5.030  0.00  0.00     0.270 C 
HETATM    7  C           1     -21.589  -7.362  -3.568  0.00  0.00     0.050 C 
BRANCH   6   8
HETATM    8  N           1     -21.168  -8.061  -5.897  0.00  0.00    -0.067 N 
HETATM    9  H           1     -21.541  -9.026  -5.757  0.00  0.00     0.275 HD
HETATM   10  H           1     -21.279  -7.788  -6.900  0.00  0.00     0.275 HD
HETATM   11  H           1     -20.155  -8.039  -5.640  0.00  0.00     0.275 HD
ENDBRANCH   6   8
ENDBRANCH   3   6
ENDBRANCH   1   2
BRANCH   1  12
HETATM   12  C           1     -20.368  -5.071  -7.841  0.00  0.00     0.197 C 
HETATM   13  O           1     -19.743  -3.989  -7.871  0.00  0.00    -0.646 OA
HETATM   14  O           1     -19.748  -6.154  -7.905  0.00  0.00    -0.646 OA
ENDBRANCH   1  12
BRANCH   1  15
HETATM   15  C           1     -22.436  -3.863  -8.469  0.00  0.00     0.094 C 
BRANCH  15  16
HETATM   16  C           1     -22.339  -4.094  -9.946  0.00  0.00     0.028 A 
HETATM   17  N           1     -21.307  -3.660 -10.736  0.00  0.00    -0.354 N 
HETATM   18  C           1     -21.604  -4.065 -11.949  0.00  0.00     0.180 A 
ATOM     19  HN          1     -20.484  -3.133 -10.444  1.00  0.00     0.166 HD
HETATM   20  N           1     -22.789  -4.745 -11.972  0.00  0.00    -0.360 N 
HETATM   21  H           1     -23.244  -5.170 -12.818  0.00  0.00     0.166 HD
HETATM   22  C           1     -23.272  -4.773 -10.693  0.00  0.00     0.114 A 
ENDBRANCH  15  16
ENDBRANCH   1  15
TORSDOF 6
ENDMDL
MODEL 5
REMARK VINA RESULT:      -5.4      2.329      3.298
REMARK  6 active torsions:
REMARK  status: ('A' for Active; 'I' for Inactive)
REMARK    1  A    between atoms: N_3  and  C_16 
REMARK       I    between atoms: N_3  and  C_4 
REMARK    2  A    between atoms: C_4  and  C_5 
REMARK    3  A    between atoms: C_5  and  N_7 
REMARK    4  A    between atoms: C_14  and  C_16 
REMARK    5  A    between atoms: C_16  and  C_18 
REMARK    6  A    between atoms: C_18  and  C_19 
ROOT
HETATM    1  C           1     -26.684  -6.519 -17.083  0.00  0.00     0.191 C 
ENDROOT
BRANCH   1   2
HETATM    2  N           1     -27.289  -5.212 -16.924  0.00  0.00    -0.344 N 
HETATM    3  C           1     -28.587  -5.105 -16.501  0.00  0.00     0.248 C 
HETATM    4  O           1     -28.834  -5.027 -15.321  0.00  0.00    -0.271 OA
HETATM    5  H           1     -26.752  -4.377 -17.126  0.00  0.00     0.163 HD
BRANCH   3   6
HETATM    6  C           1     -29.710  -5.083 -17.510  0.00  0.00     0.270 C 
HETATM    7  C           1     -30.187  -6.507 -17.768  0.00  0.00     0.050 C 
BRANCH   6   8
HETATM    8  N           1     -29.217  -4.482 -18.793  0.00  0.00    -0.067 N 
HETATM    9  H           1     -28.206  -4.714 -18.921  0.00  0.00     0.275 HD
HETATM   10  H           1     -29.767  -4.870 -19.592  0.00  0.00     0.275 HD
HETATM   11  H           1     -29.335  -3.444 -18.759  0.00  0.00     0.275 HD
ENDBRANCH   6   8
ENDBRANCH   3   6
ENDBRANCH   1   2
BRANCH   1  12
HETATM   12  C           1     -26.437  -7.128 -15.723  0.00  0.00     0.197 C 
HETATM   13  O           1     -25.303  -7.052 -15.203  0.00  0.00    -0.646 OA
HETATM   14  O           1     -27.365  -7.706 -15.119  0.00  0.00    -0.646 OA
ENDBRANCH   1  12
BRANCH   1  15
HETATM   15  C           1     -25.360  -6.379 -17.823  0.00  0.00     0.094 C 
BRANCH  15  16
HETATM   16  C           1     -25.469  -7.030 -19.168  0.00  0.00     0.028 A 
HETATM   17  N           1     -26.640  -7.198 -19.859  0.00  0.00    -0.354 N 
HETATM   18  C           1     -26.300  -7.802 -20.975  0.00  0.00     0.180 A 
ATOM     19  HN          1     -27.576  -6.916 -19.569  1.00  0.00     0.166 HD
HETATM   20  N           1     -24.954  -8.029 -21.031  0.00  0.00    -0.360 N 
HETATM   21  H           1     -24.435  -8.495 -21.816  0.00  0.00     0.166 HD
HETATM   22  C           1     -24.407  -7.538 -19.877  0.00  0.00     0.114 A 
ENDBRANCH  15  16
ENDBRANCH   1  15
TORSDOF 6
ENDMDL
MODEL 6
REMARK VINA RESULT:      -5.4     19.153     21.277
REMARK  6 active torsions:
REMARK  status: ('A' for Active; 'I' for Inactive)
REMARK    1  A    between atoms: N_3  and  C_16 
REMARK       I    between atoms: N_3  and  C_4 
REMARK    2  A    between atoms: C_4  and  C_5 
REMARK    3  A    between atoms: C_5  and  N_7 
REMARK    4  A    between atoms: C_14  and  C_16 
REMARK    5  A    between atoms: C_16  and  C_18 
REMARK    6  A    between atoms: C_18  and  C_19 
ROOT
HETATM    1  C           1     -11.301   6.201 -21.078  0.00  0.00     0.191 C 
ENDROOT
BRANCH   1   2
HETATM    2  N           1     -10.138   6.989 -20.721  0.00  0.00    -0.344 N 
HETATM    3  C           1     -10.292   8.169 -20.044  0.00  0.00     0.248 C 
HETATM    4  O           1     -10.292   8.178 -18.837  0.00  0.00    -0.271 OA
HETATM    5  H           1      -9.212   6.667 -20.972  0.00  0.00     0.163 HD
BRANCH   3   6
HETATM    6  C           1     -10.461   9.460 -20.808  0.00  0.00     0.270 C 
HETATM    7  C           1     -11.929   9.867 -20.799  0.00  0.00     0.050 C 
BRANCH   6   8
HETATM    8  N           1     -10.006   9.266 -22.225  0.00  0.00    -0.067 N 
HETATM    9  H           1     -10.176  10.141 -22.769  0.00  0.00     0.275 HD
HETATM   10  H           1      -8.985   9.042 -22.234  0.00  0.00     0.275 HD
HETATM   11  H           1     -10.540   8.478 -22.656  0.00  0.00     0.275 HD
ENDBRANCH   6   8
ENDBRANCH   3   6
ENDBRANCH   1   2
BRANCH   1  12
HETATM   12  C           1     -12.155   5.980 -19.853  0.00  0.00     0.197 C 
HETATM   13  O           1     -11.744   5.242 -18.931  0.00  0.00    -0.646 OA
HETATM   14  O           1     -13.271   6.534 -19.761  0.00  0.00    -0.646 OA
ENDBRANCH   1  12
BRANCH   1  15
HETATM   15  C           1     -10.851   4.855 -21.633  0.00  0.00     0.094 C 
BRANCH  15  16
HETATM   16  C           1     -12.042   3.965 -21.811  0.00  0.00     0.028 A 
HETATM   17  N           1     -12.392   2.952 -20.957  0.00  0.00    -0.354 N 
HETATM   18  C           1     -13.482   2.427 -21.469  0.00  0.00     0.180 A 
ATOM     19  HN          1     -11.908   2.666 -20.105  1.00  0.00     0.166 HD
HETATM   20  N           1     -13.849   3.063 -22.621  0.00  0.00    -0.360 N 
HETATM   21  H           1     -14.681   2.834 -23.218  0.00  0.00     0.166 HD
HETATM   22  C           1     -12.934   4.054 -22.853  0.00  0.00     0.114 A 
ENDBRANCH  15  16
ENDBRANCH   1  15
TORSDOF 6
ENDMDL
MODEL 7
REMARK VINA RESULT:      -5.2     10.618     13.066
REMARK  6 active torsions:
REMARK  status: ('A' for Active; 'I' for Inactive)
REMARK    1  A    between atoms: N_3  and  C_16 
REMARK       I    between atoms: N_3  and  C_4 
REMARK    2  A    between atoms: C_4  and  C_5 
REMARK    3  A    between atoms: C_5  and  N_7 
REMARK    4  A    between atoms: C_14  and  C_16 
REMARK    5  A    between atoms: C_16  and  C_18 
REMARK    6  A    between atoms: C_18  and  C_19 
ROOT
HETATM    1  C           1     -20.998  -4.957  -7.673  0.00  0.00     0.191 C 
ENDROOT
BRANCH   1   2
HETATM    2  N           1     -20.578  -5.377  -6.351  0.00  0.00    -0.344 N 
HETATM    3  C           1     -20.406  -6.707  -6.077  0.00  0.00     0.248 C 
HETATM    4  O           1     -19.330  -7.226  -6.252  0.00  0.00    -0.271 OA
HETATM    5  H           1     -20.413  -4.686  -5.629  0.00  0.00     0.163 HD
BRANCH   3   6
HETATM    6  C           1     -21.563  -7.526  -5.556  0.00  0.00     0.270 C 
HETATM    7  C           1     -21.909  -7.074  -4.143  0.00  0.00     0.050 C 
BRANCH   6   8
HETATM    8  N           1     -21.180  -8.976  -5.537  0.00  0.00    -0.067 N 
HETATM    9  H           1     -21.933  -9.530  -5.070  0.00  0.00     0.275 HD
HETATM   10  H           1     -21.056  -9.315  -6.517  0.00  0.00     0.275 HD
HETATM   11  H           1     -20.285  -9.092  -5.011  0.00  0.00     0.275 HD
ENDBRANCH   6   8
ENDBRANCH   3   6
ENDBRANCH   1   2
BRANCH   1  12
HETATM   12  C           1     -19.782  -4.653  -8.514  0.00  0.00     0.197 C 
HETATM   13  O           1     -19.773  -4.952  -9.728  0.00  0.00    -0.646 OA
HETATM   14  O           1     -18.786  -4.105  -7.997  0.00  0.00    -0.646 OA
ENDBRANCH   1  12
BRANCH   1  15
HETATM   15  C           1     -21.860  -3.706  -7.558  0.00  0.00     0.094 C 
BRANCH  15  16
HETATM   16  C           1     -22.912  -3.724  -8.625  0.00  0.00     0.028 A 
HETATM   17  N           1     -24.244  -3.951  -8.401  0.00  0.00    -0.354 N 
HETATM   18  C           1     -24.811  -3.881  -9.584  0.00  0.00     0.180 A 
ATOM     19  HN          1     -24.699  -4.136  -7.507  1.00  0.00     0.166 HD
HETATM   20  N           1     -23.895  -3.617 -10.563  0.00  0.00    -0.360 N 
HETATM   21  H           1     -24.095  -3.513 -11.588  0.00  0.00     0.166 HD
HETATM   22  C           1     -22.670  -3.513  -9.962  0.00  0.00     0.114 A 
ENDBRANCH  15  16
ENDBRANCH   1  15
TORSDOF 6
ENDMDL
MODEL 8
REMARK VINA RESULT:      -5.1     11.657     13.695
REMARK  6 active torsions:
REMARK  status: ('A' for Active; 'I' for Inactive)
REMARK    1  A    between atoms: N_3  and  C_16 
REMARK       I    between atoms: N_3  and  C_4 
REMARK    2  A    between atoms: C_4  and  C_5 
REMARK    3  A    between atoms: C_5  and  N_7 
REMARK    4  A    between atoms: C_14  and  C_16 
REMARK    5  A    between atoms: C_16  and  C_18 
REMARK    6  A    between atoms: C_18  and  C_19 
ROOT
HETATM    1  C           1     -20.823  -4.944  -6.138  0.00  0.00     0.191 C 
ENDROOT
BRANCH   1   2
HETATM    2  N           1     -21.520  -3.961  -6.945  0.00  0.00    -0.344 N 
HETATM    3  C           1     -22.544  -4.351  -7.766  0.00  0.00     0.248 C 
HETATM    4  O           1     -23.678  -4.368  -7.351  0.00  0.00    -0.271 OA
HETATM    5  H           1     -21.248  -2.987  -6.902  0.00  0.00     0.163 HD
BRANCH   3   6
HETATM    6  C           1     -22.255  -4.759  -9.190  0.00  0.00     0.270 C 
HETATM    7  C           1     -21.192  -3.839  -9.776  0.00  0.00     0.050 C 
BRANCH   6   8
HETATM    8  N           1     -23.510  -4.654 -10.004  0.00  0.00    -0.067 N 
HETATM    9  H           1     -23.553  -3.716 -10.461  0.00  0.00     0.275 HD
HETATM   10  H           1     -23.512  -5.398 -10.738  0.00  0.00     0.275 HD
HETATM   11  H           1     -24.340  -4.776  -9.381  0.00  0.00     0.275 HD
ENDBRANCH   6   8
ENDBRANCH   3   6
ENDBRANCH   1   2
BRANCH   1  12
HETATM   12  C           1     -19.611  -5.442  -6.887  0.00  0.00     0.197 C 
HETATM   13  O           1     -18.722  -4.637  -7.242  0.00  0.00    -0.646 OA
HETATM   14  O           1     -19.497  -6.657  -7.153  0.00  0.00    -0.646 OA
ENDBRANCH   1  12
BRANCH   1  15
HETATM   15  C           1     -21.755  -6.112  -5.845  0.00  0.00     0.094 C 
BRANCH  15  16
HETATM   16  C           1     -21.572  -6.554  -4.426  0.00  0.00     0.028 A 
HETATM   17  N           1     -22.162  -5.957  -3.342  0.00  0.00    -0.354 N 
HETATM   18  C           1     -21.747  -6.641  -2.301  0.00  0.00     0.180 A 
ATOM     19  HN          1     -22.789  -5.153  -3.344  1.00  0.00     0.166 HD
HETATM   20  N           1     -20.911  -7.658  -2.671  0.00  0.00    -0.360 N 
HETATM   21  H           1     -20.448  -8.346  -2.027  0.00  0.00     0.166 HD
HETATM   22  C           1     -20.790  -7.614  -4.033  0.00  0.00     0.114 A 
ENDBRANCH  15  16
ENDBRANCH   1  15
TORSDOF 6
ENDMDL
MODEL 9
REMARK VINA RESULT:      -5.1     13.376     15.530
REMARK  6 active torsions:
REMARK  status: ('A' for Active; 'I' for Inactive)
REMARK    1  A    between atoms: N_3  and  C_16 
REMARK       I    between atoms: N_3  and  C_4 
REMARK    2  A    between atoms: C_4  and  C_5 
REMARK    3  A    between atoms: C_5  and  N_7 
REMARK    4  A    between atoms: C_14  and  C_16 
REMARK    5  A    between atoms: C_16  and  C_18 
REMARK    6  A    between atoms: C_18  and  C_19 
ROOT
HETATM    1  C           1     -20.222  -8.027  -4.712  0.00  0.00     0.191 C 
ENDROOT
BRANCH   1   2
HETATM    2  N           1     -20.837  -7.739  -5.993  0.00  0.00    -0.344 N 
HETATM    3  C           1     -20.538  -6.576  -6.650  0.00  0.00     0.248 C 
HETATM    4  O           1     -19.615  -6.541  -7.427  0.00  0.00    -0.271 OA
HETATM    5  H           1     -21.488  -8.398  -6.401  0.00  0.00     0.163 HD
BRANCH   3   6
HETATM    6  C           1     -21.364  -5.336  -6.402  0.00  0.00     0.270 C 
HETATM    7  C           1     -21.844  -4.772  -7.733  0.00  0.00     0.050 C 
BRANCH   6   8
HETATM    8  N           1     -20.525  -4.311  -5.698  0.00  0.00    -0.067 N 
HETATM    9  H           1     -19.770  -4.788  -5.158  0.00  0.00     0.275 HD
HETATM   10  H           1     -20.096  -3.669  -6.403  0.00  0.00     0.275 HD
HETATM   11  H           1     -21.126  -3.759  -5.045  0.00  0.00     0.275 HD
ENDBRANCH   6   8
ENDBRANCH   3   6
ENDBRANCH   1   2
BRANCH   1  12
HETATM   12  C           1     -19.056  -8.964  -4.913  0.00  0.00     0.197 C 
HETATM   13  O           1     -18.262  -9.184  -3.972  0.00  0.00    -0.646 OA
HETATM   14  O           1     -18.883  -9.519  -6.019  0.00  0.00    -0.646 OA
ENDBRANCH   1  12
BRANCH   1  15
HETATM   15  C           1     -21.246  -8.682  -3.793  0.00  0.00     0.094 C 
BRANCH  15  16
HETATM   16  C           1     -21.680  -7.700  -2.749  0.00  0.00     0.028 A 
HETATM   17  N           1     -21.944  -8.018  -1.443  0.00  0.00    -0.354 N 
HETATM   18  C           1     -22.288  -6.887  -0.872  0.00  0.00     0.180 A 
ATOM     19  HN          1     -21.887  -8.939  -1.006  1.00  0.00     0.166 HD
HETATM   20  N           1     -22.256  -5.849  -1.761  0.00  0.00    -0.360 N 
HETATM   21  H           1     -22.486  -4.846  -1.553  0.00  0.00     0.166 HD
HETATM   22  C           1     -21.866  -6.356  -2.970  0.00  0.00     0.114 A 
ENDBRANCH  15  16
ENDBRANCH   1  15
TORSDOF 6
ENDMDL
