MODEL 1
REMARK VINA RESULT:      -5.6      0.000      0.000
REMARK  5 active torsions:
REMARK  status: ('A' for Active; 'I' for Inactive)
REMARK    1  A    between atoms: C_3  and  C_18 
REMARK    2  A    between atoms: C_4  and  C_9 
REMARK    3  A    between atoms: C_4  and  C_17 
REMARK    4  A    between atoms: C_4  and  N_13 
REMARK    5  A    between atoms: C_9  and  C_10 
REMARK       I    between atoms: N_13  and  C_18 
ROOT
HETATM    1  O           1     -19.430  -4.829  -5.825  0.00  0.00    -0.271 OA
HETATM    2  H           1     -22.328  -6.000  -5.547  0.00  0.00     0.163 HD
HETATM    3  N           1     -21.326  -5.936  -5.418  0.00  0.00    -0.344 N 
HETATM    4  C           1     -20.626  -4.904  -5.981  0.00  0.00     0.251 C 
ENDROOT
BRANCH   3   5
HETATM    5  C           1     -20.633  -6.942  -4.635  0.00  0.00     0.189 C 
BRANCH   5   6
HETATM    6  C           1     -21.505  -7.360  -3.458  0.00  0.00     0.014 C 
HETATM    7  C           1     -20.734  -8.336  -2.578  0.00  0.00     0.012 C 
BRANCH   6   8
HETATM    8  C           1     -21.880  -6.130  -2.642  0.00  0.00     0.002 C 
HETATM    9  C           1     -22.288  -6.558  -1.237  0.00  0.00     0.005 C 
ENDBRANCH   6   8
ENDBRANCH   5   6
BRANCH   5  10
HETATM   10  C           1     -20.348  -8.144  -5.501  0.00  0.00     0.197 C 
HETATM   11  O           1     -19.166  -8.469  -5.749  0.00  0.00    -0.646 OA
HETATM   12  O           1     -21.293  -8.815  -5.970  0.00  0.00    -0.646 OA
ENDBRANCH   5  10
ENDBRANCH   3   5
BRANCH   4  13
HETATM   13  C           1     -21.347  -3.859  -6.795  0.00  0.00     0.311 C 
HETATM   14  N           1     -20.551  -3.461  -7.953  0.00  0.00     0.097 N 
HETATM   15  H           1     -20.894  -2.584  -8.344  0.00  0.00     0.317 HD
HETATM   16  C           1     -20.739  -4.534  -8.925  0.00  0.00     0.271 C 
HETATM   17  C           1     -22.214  -4.879  -8.807  0.00  0.00     0.033 C 
HETATM   18  C           1     -22.616  -4.429  -7.406  0.00  0.00     0.047 C 
ENDBRANCH   4  13
TORSDOF 5
ENDMDL
MODEL 2
REMARK VINA RESULT:      -5.4      2.243      3.029
REMARK  5 active torsions:
REMARK  status: ('A' for Active; 'I' for Inactive)
REMARK    1  A    between atoms: C_3  and  C_18 
REMARK    2  A    between atoms: C_4  and  C_9 
REMARK    3  A    between atoms: C_4  and  C_17 
REMARK    4  A    between atoms: C_4  and  N_13 
REMARK    5  A    between atoms: C_9  and  C_10 
REMARK       I    between atoms: N_13  and  C_18 
ROOT
HETATM    1  O           1     -22.487  -5.572  -5.657  0.00  0.00    -0.271 OA
HETATM    2  H           1     -19.677  -6.279  -4.452  0.00  0.00     0.163 HD
HETATM    3  N           1     -20.675  -6.347  -4.606  0.00  0.00    -0.344 N 
HETATM    4  C           1     -21.295  -5.490  -5.474  0.00  0.00     0.251 C 
ENDROOT
BRANCH   3   5
HETATM    5  C           1     -21.448  -7.355  -3.905  0.00  0.00     0.189 C 
BRANCH   5   6
HETATM    6  C           1     -20.685  -8.673  -3.909  0.00  0.00     0.014 C 
HETATM    7  C           1     -21.629  -9.804  -4.298  0.00  0.00     0.012 C 
BRANCH   6   8
HETATM    8  C           1     -19.544  -8.598  -4.913  0.00  0.00     0.002 C 
HETATM    9  C           1     -18.357  -9.401  -4.395  0.00  0.00     0.005 C 
ENDBRANCH   6   8
ENDBRANCH   5   6
BRANCH   5  10
HETATM   10  C           1     -21.679  -6.911  -2.482  0.00  0.00     0.197 C 
HETATM   11  O           1     -22.452  -5.959  -2.241  0.00  0.00    -0.646 OA
HETATM   12  O           1     -21.096  -7.496  -1.543  0.00  0.00    -0.646 OA
ENDBRANCH   5  10
ENDBRANCH   3   5
BRANCH   4  13
HETATM   13  C           1     -20.491  -4.441  -6.202  0.00  0.00     0.311 C 
HETATM   14  N           1     -19.477  -5.059  -7.051  0.00  0.00     0.097 N 
HETATM   15  H           1     -18.770  -4.378  -7.325  0.00  0.00     0.317 HD
HETATM   16  C           1     -20.202  -5.511  -8.235  0.00  0.00     0.271 C 
HETATM   17  C           1     -21.177  -4.381  -8.518  0.00  0.00     0.033 C 
HETATM   18  C           1     -21.364  -3.673  -7.181  0.00  0.00     0.047 C 
ENDBRANCH   4  13
TORSDOF 5
ENDMDL
MODEL 3
REMARK VINA RESULT:      -5.3     12.358     14.431
REMARK  5 active torsions:
REMARK  status: ('A' for Active; 'I' for Inactive)
REMARK    1  A    between atoms: C_3  and  C_18 
REMARK    2  A    between atoms: C_4  and  C_9 
REMARK    3  A    between atoms: C_4  and  C_17 
REMARK    4  A    between atoms: C_4  and  N_13 
REMARK    5  A    between atoms: C_9  and  C_10 
REMARK       I    between atoms: N_13  and  C_18 
ROOT
HETATM    1  O           1     -28.792  -7.733 -17.018  0.00  0.00    -0.271 OA
HETATM    2  H           1     -27.513  -5.410 -18.696  0.00  0.00     0.163 HD
HETATM    3  N           1     -27.548  -6.248 -18.131  0.00  0.00    -0.344 N 
HETATM    4  C           1     -28.751  -6.732 -17.693  0.00  0.00     0.251 C 
ENDROOT
BRANCH   3   5
HETATM    5  C           1     -26.320  -6.938 -17.783  0.00  0.00     0.189 C 
BRANCH   5   6
HETATM    6  C           1     -25.221  -6.543 -18.761  0.00  0.00     0.014 C 
HETATM    7  C           1     -23.950  -7.317 -18.435  0.00  0.00     0.012 C 
BRANCH   6   8
HETATM    8  C           1     -25.663  -6.871 -20.181  0.00  0.00     0.002 C 
HETATM    9  C           1     -24.614  -7.751 -20.849  0.00  0.00     0.005 C 
ENDBRANCH   6   8
ENDBRANCH   5   6
BRANCH   5  10
HETATM   10  C           1     -25.908  -6.555 -16.383  0.00  0.00     0.197 C 
HETATM   11  O           1     -25.820  -7.431 -15.495  0.00  0.00    -0.646 OA
HETATM   12  O           1     -25.654  -5.362 -16.111  0.00  0.00    -0.646 OA
ENDBRANCH   5  10
ENDBRANCH   3   5
BRANCH   4  13
HETATM   13  C           1     -30.029  -6.014 -18.054  0.00  0.00     0.311 C 
HETATM   14  N           1     -30.930  -5.947 -16.907  0.00  0.00     0.097 N 
HETATM   15  H           1     -31.878  -5.717 -17.205  0.00  0.00     0.317 HD
HETATM   16  C           1     -30.405  -4.865 -16.079  0.00  0.00     0.271 C 
HETATM   17  C           1     -29.997  -3.802 -17.084  0.00  0.00     0.033 C 
HETATM   18  C           1     -29.755  -4.557 -18.386  0.00  0.00     0.047 C 
ENDBRANCH   4  13
TORSDOF 5
ENDMDL
MODEL 4
REMARK VINA RESULT:      -5.2      3.453      6.416
REMARK  5 active torsions:
REMARK  status: ('A' for Active; 'I' for Inactive)
REMARK    1  A    between atoms: C_3  and  C_18 
REMARK    2  A    between atoms: C_4  and  C_9 
REMARK    3  A    between atoms: C_4  and  C_17 
REMARK    4  A    between atoms: C_4  and  N_13 
REMARK    5  A    between atoms: C_9  and  C_10 
REMARK       I    between atoms: N_13  and  C_18 
ROOT
HETATM    1  O           1     -23.013 -10.819  -3.483  0.00  0.00    -0.271 OA
HETATM    2  H           1     -20.537  -9.367  -2.215  0.00  0.00     0.163 HD
HETATM    3  N           1     -21.239  -9.589  -2.909  0.00  0.00    -0.344 N 
HETATM    4  C           1     -22.175 -10.554  -2.653  0.00  0.00     0.251 C 
ENDROOT
BRANCH   3   5
HETATM    5  C           1     -21.251  -8.885  -4.177  0.00  0.00     0.189 C 
BRANCH   5   6
HETATM    6  C           1     -21.038  -7.396  -3.933  0.00  0.00     0.014 C 
HETATM    7  C           1     -22.166  -6.609  -4.586  0.00  0.00     0.012 C 
BRANCH   6   8
HETATM    8  C           1     -21.031  -7.122  -2.435  0.00  0.00     0.002 C 
HETATM    9  C           1     -22.201  -6.214  -2.079  0.00  0.00     0.005 C 
ENDBRANCH   6   8
ENDBRANCH   5   6
BRANCH   5  10
HETATM   10  C           1     -20.146  -9.413  -5.057  0.00  0.00     0.197 C 
HETATM   11  O           1     -18.973  -9.012  -4.895  0.00  0.00    -0.646 OA
HETATM   12  O           1     -20.402 -10.252  -5.947  0.00  0.00    -0.646 OA
ENDBRANCH   5  10
ENDBRANCH   3   5
BRANCH   4  13
HETATM   13  C           1     -22.161 -11.288  -1.335  0.00  0.00     0.311 C 
HETATM   14  N           1     -21.846 -10.378  -0.236  0.00  0.00     0.097 N 
HETATM   15  H           1     -21.569 -10.899   0.596  0.00  0.00     0.317 HD
HETATM   16  C           1     -23.090  -9.662   0.028  0.00  0.00     0.271 C 
HETATM   17  C           1     -24.160 -10.733  -0.097  0.00  0.00     0.033 C 
HETATM   18  C           1     -23.547 -11.806  -0.990  0.00  0.00     0.047 C 
ENDBRANCH   4  13
TORSDOF 5
ENDMDL
MODEL 5
REMARK VINA RESULT:      -5.1     13.235     14.668
REMARK  5 active torsions:
REMARK  status: ('A' for Active; 'I' for Inactive)
REMARK    1  A    between atoms: C_3  and  C_18 
REMARK    2  A    between atoms: C_4  and  C_9 
REMARK    3  A    between atoms: C_4  and  C_17 
REMARK    4  A    between atoms: C_4  and  N_13 
REMARK    5  A    between atoms: C_9  and  C_10 
REMARK       I    between atoms: N_13  and  C_18 
ROOT
HETATM    1  O           1     -25.729  -6.363 -18.315  0.00  0.00    -0.271 OA
HETATM    2  H           1     -28.834  -6.181 -18.727  0.00  0.00     0.163 HD
HETATM    3  N           1     -27.955  -6.202 -18.227  0.00  0.00    -0.344 N 
HETATM    4  C           1     -26.779  -6.338 -18.913  0.00  0.00     0.251 C 
ENDROOT
BRANCH   3   5
HETATM    5  C           1     -27.941  -6.088 -16.781  0.00  0.00     0.189 C 
BRANCH   5   6
HETATM    6  C           1     -28.878  -4.967 -16.350  0.00  0.00     0.014 C 
HETATM    7  C           1     -28.316  -3.630 -16.818  0.00  0.00     0.012 C 
BRANCH   6   8
HETATM    8  C           1     -30.250  -5.184 -16.973  0.00  0.00     0.002 C 
HETATM    9  C           1     -30.771  -3.864 -17.528  0.00  0.00     0.005 C 
ENDBRANCH   6   8
ENDBRANCH   5   6
BRANCH   5  10
HETATM   10  C           1     -28.402  -7.389 -16.170  0.00  0.00     0.197 C 
HETATM   11  O           1     -29.139  -8.159 -16.823  0.00  0.00    -0.646 OA
HETATM   12  O           1     -28.046  -7.696 -15.012  0.00  0.00    -0.646 OA
ENDBRANCH   5  10
ENDBRANCH   3   5
BRANCH   4  13
HETATM   13  C           1     -26.792  -6.457 -20.417  0.00  0.00     0.311 C 
HETATM   14  N           1     -25.544  -5.962 -20.990  0.00  0.00     0.097 N 
HETATM   15  H           1     -25.649  -5.785 -21.989  0.00  0.00     0.317 HD
HETATM   16  C           1     -24.582  -7.041 -20.785  0.00  0.00     0.271 C 
HETATM   17  C           1     -25.379  -8.300 -21.081  0.00  0.00     0.033 C 
HETATM   18  C           1     -26.834  -7.914 -20.845  0.00  0.00     0.047 C 
ENDBRANCH   4  13
TORSDOF 5
ENDMDL
MODEL 6
REMARK VINA RESULT:      -5.1      5.031      7.574
REMARK  5 active torsions:
REMARK  status: ('A' for Active; 'I' for Inactive)
REMARK    1  A    between atoms: C_3  and  C_18 
REMARK    2  A    between atoms: C_4  and  C_9 
REMARK    3  A    between atoms: C_4  and  C_17 
REMARK    4  A    between atoms: C_4  and  N_13 
REMARK    5  A    between atoms: C_9  and  C_10 
REMARK       I    between atoms: N_13  and  C_18 
ROOT
HETATM    1  O           1     -22.959 -10.888  -3.083  0.00  0.00    -0.271 OA
HETATM    2  H           1     -22.503  -9.908  -0.137  0.00  0.00     0.163 HD
HETATM    3  N           1     -22.411  -9.923  -1.145  0.00  0.00    -0.344 N 
HETATM    4  C           1     -23.069 -10.871  -1.880  0.00  0.00     0.251 C 
ENDROOT
BRANCH   3   5
HETATM    5  C           1     -21.579  -8.939  -1.810  0.00  0.00     0.189 C 
BRANCH   5   6
HETATM    6  C           1     -21.598  -7.638  -1.016  0.00  0.00     0.014 C 
HETATM    7  C           1     -22.188  -6.528  -1.876  0.00  0.00     0.012 C 
BRANCH   6   8
HETATM    8  C           1     -22.449  -7.818   0.233  0.00  0.00     0.002 C 
HETATM    9  C           1     -21.552  -8.184   1.410  0.00  0.00     0.005 C 
ENDBRANCH   6   8
ENDBRANCH   5   6
BRANCH   5  10
HETATM   10  C           1     -20.164  -9.453  -1.897  0.00  0.00     0.197 C 
HETATM   11  O           1     -19.350  -8.916  -2.681  0.00  0.00    -0.646 OA
HETATM   12  O           1     -19.804 -10.417  -1.187  0.00  0.00    -0.646 OA
ENDBRANCH   5  10
ENDBRANCH   3   5
BRANCH   4  13
HETATM   13  C           1     -23.934 -11.896  -1.188  0.00  0.00     0.311 C 
HETATM   14  N           1     -23.453 -13.248  -1.456  0.00  0.00     0.097 N 
HETATM   15  H           1     -24.170 -13.938  -1.229  0.00  0.00     0.317 HD
HETATM   16  C           1     -22.309 -13.424  -0.566  0.00  0.00     0.271 C 
HETATM   17  C           1     -22.752 -12.767   0.730  0.00  0.00     0.033 C 
HETATM   18  C           1     -23.825 -11.765   0.322  0.00  0.00     0.047 C 
ENDBRANCH   4  13
TORSDOF 5
ENDMDL
MODEL 7
REMARK VINA RESULT:      -5.0      3.277      4.657
REMARK  5 active torsions:
REMARK  status: ('A' for Active; 'I' for Inactive)
REMARK    1  A    between atoms: C_3  and  C_18 
REMARK    2  A    between atoms: C_4  and  C_9 
REMARK    3  A    between atoms: C_4  and  C_17 
REMARK    4  A    between atoms: C_4  and  N_13 
REMARK    5  A    between atoms: C_9  and  C_10 
REMARK       I    between atoms: N_13  and  C_18 
ROOT
HETATM    1  O           1     -21.023  -6.892  -2.344  0.00  0.00    -0.271 OA
HETATM    2  H           1     -22.100  -9.804  -2.800  0.00  0.00     0.163 HD
HETATM    3  N           1     -21.667  -9.031  -2.312  0.00  0.00    -0.344 N 
HETATM    4  C           1     -21.539  -7.816  -2.928  0.00  0.00     0.251 C 
ENDROOT
BRANCH   3   5
HETATM    5  C           1     -21.182  -9.211  -0.957  0.00  0.00     0.189 C 
BRANCH   5   6
HETATM    6  C           1     -22.355  -9.520  -0.034  0.00  0.00     0.014 C 
HETATM    7  C           1     -23.008  -8.217   0.408  0.00  0.00     0.012 C 
BRANCH   6   8
HETATM    8  C           1     -23.376 -10.371  -0.778  0.00  0.00     0.002 C 
HETATM    9  C           1     -23.733 -11.588   0.066  0.00  0.00     0.005 C 
ENDBRANCH   6   8
ENDBRANCH   5   6
BRANCH   5  10
HETATM   10  C           1     -20.202 -10.356  -0.922  0.00  0.00     0.197 C 
HETATM   11  O           1     -20.026 -10.998   0.136  0.00  0.00    -0.646 OA
HETATM   12  O           1     -19.564 -10.665  -1.953  0.00  0.00    -0.646 OA
ENDBRANCH   5  10
ENDBRANCH   3   5
BRANCH   4  13
HETATM   13  C           1     -22.043  -7.628  -4.338  0.00  0.00     0.311 C 
HETATM   14  N           1     -22.229  -6.212  -4.640  0.00  0.00     0.097 N 
HETATM   15  H           1     -22.813  -6.092  -5.467  0.00  0.00     0.317 HD
HETATM   16  C           1     -20.887  -5.707  -4.915  0.00  0.00     0.271 C 
HETATM   17  C           1     -20.239  -6.817  -5.725  0.00  0.00     0.033 C 
HETATM   18  C           1     -21.003  -8.081  -5.349  0.00  0.00     0.047 C 
ENDBRANCH   4  13
TORSDOF 5
ENDMDL
MODEL 8
REMARK VINA RESULT:      -5.0     14.469     15.620
REMARK  5 active torsions:
REMARK  status: ('A' for Active; 'I' for Inactive)
REMARK    1  A    between atoms: C_3  and  C_18 
REMARK    2  A    between atoms: C_4  and  C_9 
REMARK    3  A    between atoms: C_4  and  C_17 
REMARK    4  A    between atoms: C_4  and  N_13 
REMARK    5  A    between atoms: C_9  and  C_10 
REMARK       I    between atoms: N_13  and  C_18 
ROOT
HETATM    1  O           1     -28.709  -4.999 -19.406  0.00  0.00    -0.271 OA
HETATM    2  H           1     -27.195  -7.431 -18.126  0.00  0.00     0.163 HD
HETATM    3  N           1     -27.523  -6.810 -18.854  0.00  0.00    -0.344 N 
HETATM    4  C           1     -28.318  -5.742 -18.536  0.00  0.00     0.251 C 
ENDROOT
BRANCH   3   5
HETATM    5  C           1     -27.152  -7.052 -20.235  0.00  0.00     0.189 C 
BRANCH   5   6
HETATM    6  C           1     -25.636  -7.161 -20.341  0.00  0.00     0.014 C 
HETATM    7  C           1     -25.121  -6.124 -21.331  0.00  0.00     0.012 C 
BRANCH   6   8
HETATM    8  C           1     -25.011  -6.910 -18.975  0.00  0.00     0.002 C 
HETATM    9  C           1     -23.504  -7.114 -19.061  0.00  0.00     0.005 C 
ENDBRANCH   6   8
ENDBRANCH   5   6
BRANCH   5  10
HETATM   10  C           1     -27.782  -8.338 -20.707  0.00  0.00     0.197 C 
HETATM   11  O           1     -27.241  -9.003 -21.617  0.00  0.00    -0.646 OA
HETATM   12  O           1     -28.846  -8.740 -20.188  0.00  0.00    -0.646 OA
ENDBRANCH   5  10
ENDBRANCH   3   5
BRANCH   4  13
HETATM   13  C           1     -28.705  -5.490 -17.100  0.00  0.00     0.311 C 
HETATM   14  N           1     -29.074  -4.092 -16.898  0.00  0.00     0.097 N 
HETATM   15  H           1     -29.070  -3.856 -15.905  0.00  0.00     0.317 HD
HETATM   16  C           1     -30.434  -3.982 -17.418  0.00  0.00     0.271 C 
HETATM   17  C           1     -31.106  -5.262 -16.953  0.00  0.00     0.033 C 
HETATM   18  C           1     -29.968  -6.254 -16.738  0.00  0.00     0.047 C 
ENDBRANCH   4  13
TORSDOF 5
ENDMDL
MODEL 9
REMARK VINA RESULT:      -5.0      4.011      5.454
REMARK  5 active torsions:
REMARK  status: ('A' for Active; 'I' for Inactive)
REMARK    1  A    between atoms: C_3  and  C_18 
REMARK    2  A    between atoms: C_4  and  C_9 
REMARK    3  A    between atoms: C_4  and  C_17 
REMARK    4  A    between atoms: C_4  and  N_13 
REMARK    5  A    between atoms: C_9  and  C_10 
REMARK       I    between atoms: N_13  and  C_18 
ROOT
HETATM    1  O           1     -22.265  -6.777  -1.575  0.00  0.00    -0.271 OA
HETATM    2  H           1     -20.797  -9.501  -2.097  0.00  0.00     0.163 HD
HETATM    3  N           1     -21.429  -8.847  -1.653  0.00  0.00    -0.344 N 
HETATM    4  C           1     -21.510  -7.558  -2.104  0.00  0.00     0.251 C 
ENDROOT
BRANCH   3   5
HETATM    5  C           1     -22.251  -9.277  -0.538  0.00  0.00     0.189 C 
BRANCH   5   6
HETATM    6  C           1     -22.732 -10.702  -0.781  0.00  0.00     0.014 C 
HETATM    7  C           1     -24.085 -10.901  -0.109  0.00  0.00     0.012 C 
BRANCH   6   8
HETATM    8  C           1     -22.871 -10.942  -2.278  0.00  0.00     0.002 C 
HETATM    9  C           1     -22.708 -12.429  -2.571  0.00  0.00     0.005 C 
ENDBRANCH   6   8
ENDBRANCH   5   6
BRANCH   5  10
HETATM   10  C           1     -21.437  -9.232   0.732  0.00  0.00     0.197 C 
HETATM   11  O           1     -21.461  -8.213   1.455  0.00  0.00    -0.646 OA
HETATM   12  O           1     -20.738 -10.215   1.061  0.00  0.00    -0.646 OA
ENDBRANCH   5  10
ENDBRANCH   3   5
BRANCH   4  13
HETATM   13  C           1     -20.655  -7.109  -3.265  0.00  0.00     0.311 C 
HETATM   14  N           1     -20.514  -8.178  -4.250  0.00  0.00     0.097 N 
HETATM   15  H           1     -19.737  -7.986  -4.882  0.00  0.00     0.317 HD
HETATM   16  C           1     -21.767  -8.165  -5.001  0.00  0.00     0.271 C 
HETATM   17  C           1     -22.071  -6.687  -5.177  0.00  0.00     0.033 C 
HETATM   18  C           1     -21.335  -5.991  -4.037  0.00  0.00     0.047 C 
ENDBRANCH   4  13
TORSDOF 5
ENDMDL
