MODEL 1
REMARK VINA RESULT:      -5.8      0.000      0.000
REMARK  5 active torsions:
REMARK  status: ('A' for Active; 'I' for Inactive)
REMARK    1  A    between atoms: C_5  and  C_19 
REMARK    2  A    between atoms: N_8  and  C_18 
REMARK    3  A    between atoms: C_13  and  C_15 
REMARK       I    between atoms: N_16  and  C_17 
REMARK    4  A    between atoms: C_17  and  C_18 
REMARK    5  A    between atoms: C_18  and  C_19 
ROOT
HETATM    1  C           1     -23.492  -4.807 -10.843  0.00  0.00     0.038 C 
HETATM    2  O           1     -20.558  -5.814  -8.169  0.00  0.00    -0.271 OA
HETATM    3  C           1     -23.333  -3.579  -8.767  0.00  0.00     0.127 C 
HETATM    4  C           1     -24.327  -4.060  -9.810  0.00  0.00     0.022 C 
HETATM    5  C           1     -22.061  -4.707 -10.341  0.00  0.00     0.188 C 
HETATM    6  N           1     -22.211  -4.505  -8.902  0.00  0.00    -0.336 N 
HETATM    7  C           1     -21.463  -5.060  -7.900  0.00  0.00     0.251 C 
ENDROOT
BRANCH   7   8
HETATM    8  C           1     -21.768  -4.730  -6.459  0.00  0.00     0.284 C 
BRANCH   8   9
HETATM    9  N           1     -22.972  -5.505  -6.014  0.00  0.00    -0.066 N 
HETATM   10  H           1     -23.638  -5.604  -6.814  0.00  0.00     0.275 HD
HETATM   11  H           1     -22.676  -6.453  -5.690  0.00  0.00     0.275 HD
HETATM   12  H           1     -23.442  -4.999  -5.231  0.00  0.00     0.275 HD
ENDBRANCH   8   9
BRANCH   8  13
HETATM   13  C           1     -20.575  -5.103  -5.589  0.00  0.00     0.155 C 
BRANCH  13  14
HETATM   14  C           1     -20.985  -6.164  -4.597  0.00  0.00     0.175 C 
HETATM   15  O           1     -21.481  -5.834  -3.498  0.00  0.00    -0.648 OA
HETATM   16  O           1     -20.829  -7.373  -4.875  0.00  0.00    -0.648 OA
ENDBRANCH  13  14
ENDBRANCH   8  13
ENDBRANCH   7   8
BRANCH   5  17
HETATM   17  C           1     -21.348  -3.540 -10.977  0.00  0.00     0.196 C 
HETATM   18  O           1     -21.978  -2.743 -11.705  0.00  0.00    -0.646 OA
HETATM   19  O           1     -20.126  -3.369 -10.775  0.00  0.00    -0.646 OA
ENDBRANCH   5  17
TORSDOF 5
ENDMDL
MODEL 2
REMARK VINA RESULT:      -5.4     17.875     19.893
REMARK  5 active torsions:
REMARK  status: ('A' for Active; 'I' for Inactive)
REMARK    1  A    between atoms: C_5  and  C_19 
REMARK    2  A    between atoms: N_8  and  C_18 
REMARK    3  A    between atoms: C_13  and  C_15 
REMARK       I    between atoms: N_16  and  C_17 
REMARK    4  A    between atoms: C_17  and  C_18 
REMARK    5  A    between atoms: C_18  and  C_19 
ROOT
HETATM    1  C           1     -15.028   4.562 -21.426  0.00  0.00     0.038 C 
HETATM    2  O           1     -11.920   6.230 -19.345  0.00  0.00    -0.271 OA
HETATM    3  C           1     -13.248   5.642 -22.653  0.00  0.00     0.127 C 
HETATM    4  C           1     -14.737   5.345 -22.701  0.00  0.00     0.022 C 
HETATM    5  C           1     -13.688   4.445 -20.719  0.00  0.00     0.188 C 
HETATM    6  N           1     -12.925   5.580 -21.230  0.00  0.00    -0.336 N 
HETATM    7  C           1     -12.090   6.407 -20.528  0.00  0.00     0.251 C 
ENDROOT
BRANCH   7   8
HETATM    8  C           1     -11.381   7.538 -21.232  0.00  0.00     0.284 C 
BRANCH   8   9
HETATM    9  N           1     -12.096   8.826 -20.951  0.00  0.00    -0.066 N 
HETATM   10  H           1     -13.002   8.843 -21.472  0.00  0.00     0.275 HD
HETATM   11  H           1     -12.284   8.903 -19.926  0.00  0.00     0.275 HD
HETATM   12  H           1     -11.502   9.628 -21.258  0.00  0.00     0.275 HD
ENDBRANCH   8   9
BRANCH   8  13
HETATM   13  C           1      -9.948   7.632 -20.726  0.00  0.00     0.155 C 
BRANCH  13  14
HETATM   14  C           1      -9.749   8.949 -20.015  0.00  0.00     0.175 C 
HETATM   15  O           1      -9.281   9.929 -20.634  0.00  0.00    -0.648 OA
HETATM   16  O           1     -10.051   9.058 -18.807  0.00  0.00    -0.648 OA
ENDBRANCH  13  14
ENDBRANCH   8  13
ENDBRANCH   7   8
BRANCH   5  17
HETATM   17  C           1     -13.010   3.142 -21.066  0.00  0.00     0.196 C 
HETATM   18  O           1     -13.684   2.179 -21.489  0.00  0.00    -0.646 OA
HETATM   19  O           1     -11.773   3.027 -20.930  0.00  0.00    -0.646 OA
ENDBRANCH   5  17
TORSDOF 5
ENDMDL
MODEL 3
REMARK VINA RESULT:      -5.1      4.594      8.990
REMARK  5 active torsions:
REMARK  status: ('A' for Active; 'I' for Inactive)
REMARK    1  A    between atoms: C_5  and  C_19 
REMARK    2  A    between atoms: N_8  and  C_18 
REMARK    3  A    between atoms: C_13  and  C_15 
REMARK       I    between atoms: N_16  and  C_17 
REMARK    4  A    between atoms: C_17  and  C_18 
REMARK    5  A    between atoms: C_18  and  C_19 
ROOT
HETATM    1  C           1     -21.053  -8.846   1.241  0.00  0.00     0.038 C 
HETATM    2  O           1     -19.754  -8.515  -2.629  0.00  0.00    -0.271 OA
HETATM    3  C           1     -22.649  -8.275  -0.481  0.00  0.00     0.127 C 
HETATM    4  C           1     -22.338  -8.065   0.991  0.00  0.00     0.022 C 
HETATM    5  C           1     -20.701  -9.468  -0.100  0.00  0.00     0.188 C 
HETATM    6  N           1     -21.351  -8.593  -1.071  0.00  0.00    -0.336 N 
HETATM    7  C           1     -20.854  -8.165  -2.271  0.00  0.00     0.251 C 
ENDROOT
BRANCH   7   8
HETATM    8  C           1     -21.678  -7.255  -3.149  0.00  0.00     0.284 C 
BRANCH   8   9
HETATM    9  N           1     -21.664  -5.867  -2.581  0.00  0.00    -0.066 N 
HETATM   10  H           1     -21.084  -5.853  -1.711  0.00  0.00     0.275 HD
HETATM   11  H           1     -21.256  -5.209  -3.282  0.00  0.00     0.275 HD
HETATM   12  H           1     -22.641  -5.574  -2.353  0.00  0.00     0.275 HD
ENDBRANCH   8   9
BRANCH   8  13
HETATM   13  C           1     -21.090  -7.234  -4.553  0.00  0.00     0.155 C 
BRANCH  13  14
HETATM   14  C           1     -21.355  -5.892  -5.192  0.00  0.00     0.175 C 
HETATM   15  O           1     -20.437  -5.048  -5.277  0.00  0.00    -0.648 OA
HETATM   16  O           1     -22.493  -5.626  -5.635  0.00  0.00    -0.648 OA
ENDBRANCH  13  14
ENDBRANCH   8  13
ENDBRANCH   7   8
BRANCH   5  17
HETATM   17  C           1     -21.240 -10.875  -0.197  0.00  0.00     0.196 C 
HETATM   18  O           1     -21.576 -11.489   0.838  0.00  0.00    -0.646 OA
HETATM   19  O           1     -21.351 -11.424  -1.314  0.00  0.00    -0.646 OA
ENDBRANCH   5  17
TORSDOF 5
ENDMDL
MODEL 4
REMARK VINA RESULT:      -5.1      3.032      7.127
REMARK  5 active torsions:
REMARK  status: ('A' for Active; 'I' for Inactive)
REMARK    1  A    between atoms: C_5  and  C_19 
REMARK    2  A    between atoms: N_8  and  C_18 
REMARK    3  A    between atoms: C_13  and  C_15 
REMARK       I    between atoms: N_16  and  C_17 
REMARK    4  A    between atoms: C_17  and  C_18 
REMARK    5  A    between atoms: C_18  and  C_19 
ROOT
HETATM    1  C           1     -21.540  -9.668  -2.725  0.00  0.00     0.038 C 
HETATM    2  O           1     -22.547  -6.273  -4.783  0.00  0.00    -0.271 OA
HETATM    3  C           1     -19.776  -8.237  -3.551  0.00  0.00     0.127 C 
HETATM    4  C           1     -20.107  -9.688  -3.244  0.00  0.00     0.022 C 
HETATM    5  C           1     -21.951  -8.206  -2.755  0.00  0.00     0.188 C 
HETATM    6  N           1     -21.082  -7.620  -3.771  0.00  0.00    -0.336 N 
HETATM    7  C           1     -21.416  -6.696  -4.723  0.00  0.00     0.251 C 
ENDROOT
BRANCH   7   8
HETATM    8  C           1     -20.374  -6.203  -5.697  0.00  0.00     0.284 C 
BRANCH   8   9
HETATM    9  N           1     -20.746  -6.633  -7.085  0.00  0.00    -0.066 N 
HETATM   10  H           1     -21.627  -7.194  -7.051  0.00  0.00     0.275 HD
HETATM   11  H           1     -20.895  -5.788  -7.682  0.00  0.00     0.275 HD
HETATM   12  H           1     -19.977  -7.214  -7.487  0.00  0.00     0.275 HD
ENDBRANCH   8   9
BRANCH   8  13
HETATM   13  C           1     -20.302  -4.683  -5.638  0.00  0.00     0.155 C 
BRANCH  13  14
HETATM   14  C           1     -20.772  -4.105  -6.951  0.00  0.00     0.175 C 
HETATM   15  O           1     -21.992  -3.916  -7.150  0.00  0.00    -0.648 OA
HETATM   16  O           1     -19.942  -3.815  -7.839  0.00  0.00    -0.648 OA
ENDBRANCH  13  14
ENDBRANCH   8  13
ENDBRANCH   7   8
BRANCH   5  17
HETATM   17  C           1     -21.722  -7.556  -1.412  0.00  0.00     0.196 C 
HETATM   18  O           1     -21.187  -8.203  -0.487  0.00  0.00    -0.646 OA
HETATM   19  O           1     -22.068  -6.369  -1.226  0.00  0.00    -0.646 OA
ENDBRANCH   5  17
TORSDOF 5
ENDMDL
MODEL 5
REMARK VINA RESULT:      -5.0      2.687      6.805
REMARK  5 active torsions:
REMARK  status: ('A' for Active; 'I' for Inactive)
REMARK    1  A    between atoms: C_5  and  C_19 
REMARK    2  A    between atoms: N_8  and  C_18 
REMARK    3  A    between atoms: C_13  and  C_15 
REMARK       I    between atoms: N_16  and  C_17 
REMARK    4  A    between atoms: C_17  and  C_18 
REMARK    5  A    between atoms: C_18  and  C_19 
ROOT
HETATM    1  C           1     -20.453  -8.011  -1.877  0.00  0.00     0.038 C 
HETATM    2  O           1     -19.650  -7.583  -5.871  0.00  0.00    -0.271 OA
HETATM    3  C           1     -21.962  -6.703  -3.237  0.00  0.00     0.127 C 
HETATM    4  C           1     -21.403  -6.820  -1.830  0.00  0.00     0.022 C 
HETATM    5  C           1     -20.524  -8.517  -3.308  0.00  0.00     0.188 C 
HETATM    6  N           1     -20.950  -7.347  -4.070  0.00  0.00    -0.336 N 
HETATM    7  C           1     -20.499  -6.942  -5.297  0.00  0.00     0.251 C 
ENDROOT
BRANCH   7   8
HETATM    8  C           1     -21.061  -5.695  -5.934  0.00  0.00     0.284 C 
BRANCH   8   9
HETATM    9  N           1     -20.196  -4.522  -5.582  0.00  0.00    -0.066 N 
HETATM   10  H           1     -20.715  -3.635  -5.775  0.00  0.00     0.275 HD
HETATM   11  H           1     -19.946  -4.565  -4.569  0.00  0.00     0.275 HD
HETATM   12  H           1     -19.325  -4.546  -6.158  0.00  0.00     0.275 HD
ENDBRANCH   8   9
BRANCH   8  13
HETATM   13  C           1     -21.092  -5.867  -7.447  0.00  0.00     0.155 C 
BRANCH  13  14
HETATM   14  C           1     -20.994  -4.515  -8.111  0.00  0.00     0.175 C 
HETATM   15  O           1     -21.930  -3.694  -7.999  0.00  0.00    -0.648 OA
HETATM   16  O           1     -19.977  -4.217  -8.774  0.00  0.00    -0.648 OA
ENDBRANCH  13  14
ENDBRANCH   8  13
ENDBRANCH   7   8
BRANCH   5  17
HETATM   17  C           1     -21.530  -9.635  -3.433  0.00  0.00     0.196 C 
HETATM   18  O           1     -21.845 -10.071  -4.562  0.00  0.00    -0.646 OA
HETATM   19  O           1     -22.048 -10.127  -2.407  0.00  0.00    -0.646 OA
ENDBRANCH   5  17
TORSDOF 5
ENDMDL
MODEL 6
REMARK VINA RESULT:      -4.8      7.693     10.155
REMARK  5 active torsions:
REMARK  status: ('A' for Active; 'I' for Inactive)
REMARK    1  A    between atoms: C_5  and  C_19 
REMARK    2  A    between atoms: N_8  and  C_18 
REMARK    3  A    between atoms: C_13  and  C_15 
REMARK       I    between atoms: N_16  and  C_17 
REMARK    4  A    between atoms: C_17  and  C_18 
REMARK    5  A    between atoms: C_18  and  C_19 
ROOT
HETATM    1  C           1     -20.534  -7.978  -2.096  0.00  0.00     0.038 C 
HETATM    2  O           1     -20.884 -10.366   1.213  0.00  0.00    -0.271 OA
HETATM    3  C           1     -22.037  -9.868  -2.174  0.00  0.00     0.127 C 
HETATM    4  C           1     -21.126  -9.017  -3.041  0.00  0.00     0.022 C 
HETATM    5  C           1     -21.143  -8.286  -0.739  0.00  0.00     0.188 C 
HETATM    6  N           1     -21.496  -9.700  -0.828  0.00  0.00    -0.336 N 
HETATM    7  C           1     -21.352 -10.658   0.138  0.00  0.00     0.251 C 
ENDROOT
BRANCH   7   8
HETATM    8  C           1     -21.776 -12.080  -0.139  0.00  0.00     0.284 C 
BRANCH   8   9
HETATM    9  N           1     -20.842 -13.024   0.557  0.00  0.00    -0.066 N 
HETATM   10  H           1     -20.270 -13.535  -0.154  0.00  0.00     0.275 HD
HETATM   11  H           1     -20.208 -12.484   1.188  0.00  0.00     0.275 HD
HETATM   12  H           1     -21.394 -13.710   1.118  0.00  0.00     0.275 HD
ENDBRANCH   8   9
BRANCH   8  13
HETATM   13  C           1     -23.193 -12.296   0.377  0.00  0.00     0.155 C 
BRANCH  13  14
HETATM   14  C           1     -23.294 -13.659   1.016  0.00  0.00     0.175 C 
HETATM   15  O           1     -23.388 -14.680   0.301  0.00  0.00    -0.648 OA
HETATM   16  O           1     -23.285 -13.767   2.262  0.00  0.00    -0.648 OA
ENDBRANCH  13  14
ENDBRANCH   8  13
ENDBRANCH   7   8
BRANCH   5  17
HETATM   17  C           1     -22.369  -7.440  -0.496  0.00  0.00     0.196 C 
HETATM   18  O           1     -23.190  -7.767   0.388  0.00  0.00    -0.646 OA
HETATM   19  O           1     -22.563  -6.412  -1.179  0.00  0.00    -0.646 OA
ENDBRANCH   5  17
TORSDOF 5
ENDMDL
MODEL 7
REMARK VINA RESULT:      -4.8      3.980      8.190
REMARK  5 active torsions:
REMARK  status: ('A' for Active; 'I' for Inactive)
REMARK    1  A    between atoms: C_5  and  C_19 
REMARK    2  A    between atoms: N_8  and  C_18 
REMARK    3  A    between atoms: C_13  and  C_15 
REMARK       I    between atoms: N_16  and  C_17 
REMARK    4  A    between atoms: C_17  and  C_18 
REMARK    5  A    between atoms: C_18  and  C_19 
ROOT
HETATM    1  C           1     -22.621 -10.555  -0.992  0.00  0.00     0.038 C 
HETATM    2  O           1     -20.944  -7.098  -2.410  0.00  0.00    -0.271 OA
HETATM    3  C           1     -22.141 -10.374  -3.354  0.00  0.00     0.127 C 
HETATM    4  C           1     -23.100 -11.013  -2.365  0.00  0.00     0.022 C 
HETATM    5  C           1     -21.408  -9.683  -1.268  0.00  0.00     0.188 C 
HETATM    6  N           1     -21.620  -9.214  -2.634  0.00  0.00    -0.336 N 
HETATM    7  C           1     -21.382  -7.962  -3.133  0.00  0.00     0.251 C 
ENDROOT
BRANCH   7   8
HETATM    8  C           1     -21.664  -7.661  -4.584  0.00  0.00     0.284 C 
BRANCH   8   9
HETATM    9  N           1     -22.465  -6.397  -4.685  0.00  0.00    -0.066 N 
HETATM   10  H           1     -22.603  -5.996  -3.730  0.00  0.00     0.275 HD
HETATM   11  H           1     -21.953  -5.708  -5.280  0.00  0.00     0.275 HD
HETATM   12  H           1     -23.394  -6.607  -5.112  0.00  0.00     0.275 HD
ENDBRANCH   8   9
BRANCH   8  13
HETATM   13  C           1     -20.349  -7.489  -5.332  0.00  0.00     0.155 C 
BRANCH  13  14
HETATM   14  C           1     -20.408  -6.239  -6.177  0.00  0.00     0.175 C 
HETATM   15  O           1     -20.873  -6.289  -7.336  0.00  0.00    -0.648 OA
HETATM   16  O           1     -19.990  -5.154  -5.717  0.00  0.00    -0.648 OA
ENDBRANCH  13  14
ENDBRANCH   8  13
ENDBRANCH   7   8
BRANCH   5  17
HETATM   17  C           1     -20.135 -10.486  -1.166  0.00  0.00     0.196 C 
HETATM   18  O           1     -19.141 -10.174  -1.858  0.00  0.00    -0.646 OA
HETATM   19  O           1     -20.073 -11.464  -0.389  0.00  0.00    -0.646 OA
ENDBRANCH   5  17
TORSDOF 5
ENDMDL
MODEL 8
REMARK VINA RESULT:      -4.8      3.707      5.854
REMARK  5 active torsions:
REMARK  status: ('A' for Active; 'I' for Inactive)
REMARK    1  A    between atoms: C_5  and  C_19 
REMARK    2  A    between atoms: N_8  and  C_18 
REMARK    3  A    between atoms: C_13  and  C_15 
REMARK       I    between atoms: N_16  and  C_17 
REMARK    4  A    between atoms: C_17  and  C_18 
REMARK    5  A    between atoms: C_18  and  C_19 
ROOT
HETATM    1  C           1     -20.013  -5.902  -5.909  0.00  0.00     0.038 C 
HETATM    2  O           1     -21.854  -5.500  -2.273  0.00  0.00    -0.271 OA
HETATM    3  C           1     -20.990  -7.855  -4.873  0.00  0.00     0.127 C 
HETATM    4  C           1     -19.858  -7.414  -5.785  0.00  0.00     0.022 C 
HETATM    5  C           1     -21.230  -5.559  -5.068  0.00  0.00     0.188 C 
HETATM    6  N           1     -21.308  -6.654  -4.104  0.00  0.00    -0.336 N 
HETATM    7  C           1     -21.611  -6.573  -2.772  0.00  0.00     0.251 C 
ENDROOT
BRANCH   7   8
HETATM    8  C           1     -21.643  -7.823  -1.928  0.00  0.00     0.284 C 
BRANCH   8   9
HETATM    9  N           1     -20.240  -8.247  -1.610  0.00  0.00    -0.066 N 
HETATM   10  H           1     -19.568  -7.664  -2.160  0.00  0.00     0.275 HD
HETATM   11  H           1     -20.060  -8.115  -0.590  0.00  0.00     0.275 HD
HETATM   12  H           1     -20.115  -9.253  -1.861  0.00  0.00     0.275 HD
ENDBRANCH   8   9
BRANCH   8  13
HETATM   13  C           1     -22.394  -7.542  -0.633  0.00  0.00     0.155 C 
BRANCH  13  14
HETATM   14  C           1     -22.528  -8.819   0.160  0.00  0.00     0.175 C 
HETATM   15  O           1     -23.623  -9.422   0.195  0.00  0.00    -0.648 OA
HETATM   16  O           1     -21.544  -9.274   0.783  0.00  0.00    -0.648 OA
ENDBRANCH  13  14
ENDBRANCH   8  13
ENDBRANCH   7   8
BRANCH   5  17
HETATM   17  C           1     -22.474  -5.504  -5.920  0.00  0.00     0.196 C 
HETATM   18  O           1     -23.571  -5.876  -5.451  0.00  0.00    -0.646 OA
HETATM   19  O           1     -22.407  -5.085  -7.096  0.00  0.00    -0.646 OA
ENDBRANCH   5  17
TORSDOF 5
ENDMDL
MODEL 9
REMARK VINA RESULT:      -4.7      5.780      9.470
REMARK  5 active torsions:
REMARK  status: ('A' for Active; 'I' for Inactive)
REMARK    1  A    between atoms: C_5  and  C_19 
REMARK    2  A    between atoms: N_8  and  C_18 
REMARK    3  A    between atoms: C_13  and  C_15 
REMARK       I    between atoms: N_16  and  C_17 
REMARK    4  A    between atoms: C_17  and  C_18 
REMARK    5  A    between atoms: C_18  and  C_19 
ROOT
HETATM    1  C           1     -23.768 -11.222  -0.008  0.00  0.00     0.038 C 
HETATM    2  O           1     -21.972  -7.549   0.226  0.00  0.00    -0.271 OA
HETATM    3  C           1     -22.668 -10.334  -1.968  0.00  0.00     0.127 C 
HETATM    4  C           1     -23.823 -11.218  -1.532  0.00  0.00     0.022 C 
HETATM    5  C           1     -22.579 -10.345   0.347  0.00  0.00     0.188 C 
HETATM    6  N           1     -22.434  -9.470  -0.813  0.00  0.00    -0.336 N 
HETATM    7  C           1     -22.142  -8.133  -0.818  0.00  0.00     0.251 C 
ENDROOT
BRANCH   7   8
HETATM    8  C           1     -22.031  -7.389  -2.126  0.00  0.00     0.284 C 
BRANCH   8   9
HETATM    9  N           1     -22.325  -5.936  -1.900  0.00  0.00    -0.066 N 
HETATM   10  H           1     -22.760  -5.812  -0.958  0.00  0.00     0.275 HD
HETATM   11  H           1     -21.436  -5.390  -1.947  0.00  0.00     0.275 HD
HETATM   12  H           1     -22.983  -5.596  -2.636  0.00  0.00     0.275 HD
ENDBRANCH   8   9
BRANCH   8  13
HETATM   13  C           1     -20.620  -7.541  -2.679  0.00  0.00     0.155 C 
BRANCH  13  14
HETATM   14  C           1     -20.677  -7.680  -4.180  0.00  0.00     0.175 C 
HETATM   15  O           1     -19.700  -8.148  -4.803  0.00  0.00    -0.648 OA
HETATM   16  O           1     -21.703  -7.326  -4.801  0.00  0.00    -0.648 OA
ENDBRANCH  13  14
ENDBRANCH   8  13
ENDBRANCH   7   8
BRANCH   5  17
HETATM   17  C           1     -21.338 -11.179   0.550  0.00  0.00     0.196 C 
HETATM   18  O           1     -21.436 -12.412   0.733  0.00  0.00    -0.646 OA
HETATM   19  O           1     -20.212 -10.636   0.535  0.00  0.00    -0.646 OA
ENDBRANCH   5  17
TORSDOF 5
ENDMDL
