MODEL 1
REMARK VINA RESULT:      -7.0      0.000      0.000
REMARK  9 active torsions:
REMARK  status: ('A' for Active; 'I' for Inactive)
REMARK       I    between atoms: N_1  and  C_15 
REMARK       I    between atoms: N_2  and  C_15 
REMARK    1  A    between atoms: N_2  and  C_21 
REMARK       I    between atoms: C_5  and  N_20 
REMARK    2  A    between atoms: C_5  and  C_14 
REMARK    3  A    between atoms: C_9  and  C_24 
REMARK    4  A    between atoms: C_9  and  C_19 
REMARK    5  A    between atoms: C_9  and  N_20 
REMARK    6  A    between atoms: C_10  and  C_14 
REMARK    7  A    between atoms: C_14  and  N_26 
REMARK    8  A    between atoms: C_21  and  C_23 
REMARK    9  A    between atoms: C_23  and  C_24 
ROOT
HETATM    1  C           1     -35.833  -0.542 -11.720  0.00  0.00     0.185 C 
ENDROOT
BRANCH   1   2
HETATM    2  C           1     -36.390   0.311 -12.852  0.00  0.00     0.038 C 
BRANCH   2   3
HETATM    3  C           1     -35.244   0.833 -13.708  0.00  0.00     0.023 C 
BRANCH   3   4
HETATM    4  C           1     -35.526   0.531 -15.175  0.00  0.00     0.138 C 
BRANCH   4   5
HETATM    5  N           1     -34.910  -0.753 -15.539  0.00  0.00    -0.227 N 
HETATM    6  C           1     -35.319  -1.385 -16.557  0.00  0.00     0.665 C 
HETATM    7  N           1     -36.259  -0.911 -17.261  0.00  0.00    -0.235 N 
HETATM    8  N           1     -34.775  -2.520 -16.879  0.00  0.00    -0.235 N 
HETATM    9  H           1     -36.699   0.007 -17.001  0.00  0.00     0.174 HD
HETATM   10  H           1     -36.598  -1.435 -18.105  0.00  0.00     0.174 HD
HETATM   11  H           1     -35.112  -3.041 -17.719  0.00  0.00     0.174 HD
HETATM   12  H           1     -33.999  -2.911 -16.298  0.00  0.00     0.174 HD
HETATM   13  H           1     -34.132  -1.146 -14.955  0.00  0.00     0.177 HD
ENDBRANCH   4   5
ENDBRANCH   3   4
ENDBRANCH   2   3
ENDBRANCH   1   2
BRANCH   1  14
HETATM   14  C           1     -36.822  -0.579 -10.582  0.00  0.00     0.196 C 
HETATM   15  O           1     -36.443  -0.337  -9.415  0.00  0.00    -0.646 OA
HETATM   16  O           1     -38.022  -0.850 -10.805  0.00  0.00    -0.646 OA
ENDBRANCH   1  14
BRANCH   1  17
HETATM   17  N           1     -35.600  -1.890 -12.202  0.00  0.00    -0.345 N 
HETATM   18  C           1     -34.486  -2.576 -11.801  0.00  0.00     0.249 C 
HETATM   19  O           1     -33.696  -2.060 -11.046  0.00  0.00    -0.271 OA
HETATM   20  H           1     -36.261  -2.322 -12.834  0.00  0.00     0.163 HD
BRANCH  18  21
HETATM   21  C           1     -34.243  -3.979 -12.301  0.00  0.00     0.278 C 
BRANCH  21  22
HETATM   22  C           1     -33.204  -4.661 -11.421  0.00  0.00     0.017 C 
HETATM   23  C           1     -33.722  -6.024 -10.984  0.00  0.00     0.012 C 
HETATM   24  C           1     -31.911  -4.838 -12.208  0.00  0.00     0.012 C 
ENDBRANCH  21  22
BRANCH  21  25
HETATM   25  N           1     -33.743  -3.926 -13.715  0.00  0.00    -0.066 N 
HETATM   26  H           1     -34.411  -3.374 -14.300  0.00  0.00     0.275 HD
HETATM   27  H           1     -32.802  -3.470 -13.736  0.00  0.00     0.275 HD
HETATM   28  H           1     -33.668  -4.896 -14.094  0.00  0.00     0.275 HD
ENDBRANCH  21  25
ENDBRANCH  18  21
ENDBRANCH   1  17
TORSDOF 9
ENDMDL
MODEL 2
REMARK VINA RESULT:      -6.8      8.992     11.262
REMARK  9 active torsions:
REMARK  status: ('A' for Active; 'I' for Inactive)
REMARK       I    between atoms: N_1  and  C_15 
REMARK       I    between atoms: N_2  and  C_15 
REMARK    1  A    between atoms: N_2  and  C_21 
REMARK       I    between atoms: C_5  and  N_20 
REMARK    2  A    between atoms: C_5  and  C_14 
REMARK    3  A    between atoms: C_9  and  C_24 
REMARK    4  A    between atoms: C_9  and  C_19 
REMARK    5  A    between atoms: C_9  and  N_20 
REMARK    6  A    between atoms: C_10  and  C_14 
REMARK    7  A    between atoms: C_14  and  N_26 
REMARK    8  A    between atoms: C_21  and  C_23 
REMARK    9  A    between atoms: C_23  and  C_24 
ROOT
HETATM    1  C           1     -26.312  -6.002 -17.001  0.00  0.00     0.185 C 
ENDROOT
BRANCH   1   2
HETATM    2  C           1     -27.590  -5.176 -16.936  0.00  0.00     0.038 C 
BRANCH   2   3
HETATM    3  C           1     -28.422  -5.426 -18.187  0.00  0.00     0.023 C 
BRANCH   3   4
HETATM    4  C           1     -29.610  -4.473 -18.207  0.00  0.00     0.138 C 
BRANCH   4   5
HETATM    5  N           1     -30.596  -4.897 -17.202  0.00  0.00    -0.227 N 
HETATM    6  C           1     -31.624  -4.190 -16.986  0.00  0.00     0.665 C 
HETATM    7  N           1     -31.803  -3.118 -17.635  0.00  0.00    -0.235 N 
HETATM    8  N           1     -32.495  -4.565 -16.097  0.00  0.00    -0.235 N 
HETATM    9  H           1     -31.099  -2.815 -18.353  0.00  0.00     0.174 HD
HETATM   10  H           1     -32.655  -2.532 -17.456  0.00  0.00     0.174 HD
HETATM   11  H           1     -33.343  -3.981 -15.919  0.00  0.00     0.174 HD
HETATM   12  H           1     -32.347  -5.450 -15.561  0.00  0.00     0.174 HD
HETATM   13  H           1     -30.448  -5.785 -16.663  0.00  0.00     0.177 HD
ENDBRANCH   4   5
ENDBRANCH   3   4
ENDBRANCH   2   3
ENDBRANCH   1   2
BRANCH   1  14
HETATM   14  C           1     -26.278  -6.969 -15.844  0.00  0.00     0.196 C 
HETATM   15  O           1     -27.347  -7.392 -15.350  0.00  0.00    -0.646 OA
HETATM   16  O           1     -25.182  -7.350 -15.378  0.00  0.00    -0.646 OA
ENDBRANCH   1  14
BRANCH   1  17
HETATM   17  N           1     -26.277  -6.740 -18.248  0.00  0.00    -0.345 N 
HETATM   18  C           1     -25.083  -6.957 -18.881  0.00  0.00     0.249 C 
HETATM   19  O           1     -24.058  -6.535 -18.400  0.00  0.00    -0.271 OA
HETATM   20  H           1     -27.135  -7.093 -18.651  0.00  0.00     0.163 HD
BRANCH  18  21
HETATM   21  C           1     -25.046  -7.725 -20.179  0.00  0.00     0.278 C 
BRANCH  21  22
HETATM   22  C           1     -24.373  -6.878 -21.252  0.00  0.00     0.017 C 
HETATM   23  C           1     -24.052  -7.749 -22.460  0.00  0.00     0.012 C 
HETATM   24  C           1     -25.311  -5.754 -21.672  0.00  0.00     0.012 C 
ENDBRANCH  21  22
BRANCH  21  25
HETATM   25  N           1     -26.446  -8.052 -20.607  0.00  0.00    -0.066 N 
HETATM   26  H           1     -26.835  -7.257 -21.163  0.00  0.00     0.275 HD
HETATM   27  H           1     -26.439  -8.917 -21.193  0.00  0.00     0.275 HD
HETATM   28  H           1     -27.040  -8.209 -19.761  0.00  0.00     0.275 HD
ENDBRANCH  21  25
ENDBRANCH  18  21
ENDBRANCH   1  17
TORSDOF 9
ENDMDL
MODEL 3
REMARK VINA RESULT:      -6.8      8.233     10.246
REMARK  9 active torsions:
REMARK  status: ('A' for Active; 'I' for Inactive)
REMARK       I    between atoms: N_1  and  C_15 
REMARK       I    between atoms: N_2  and  C_15 
REMARK    1  A    between atoms: N_2  and  C_21 
REMARK       I    between atoms: C_5  and  N_20 
REMARK    2  A    between atoms: C_5  and  C_14 
REMARK    3  A    between atoms: C_9  and  C_24 
REMARK    4  A    between atoms: C_9  and  C_19 
REMARK    5  A    between atoms: C_9  and  N_20 
REMARK    6  A    between atoms: C_10  and  C_14 
REMARK    7  A    between atoms: C_14  and  N_26 
REMARK    8  A    between atoms: C_21  and  C_23 
REMARK    9  A    between atoms: C_23  and  C_24 
ROOT
HETATM    1  C           1     -28.750  -6.326 -18.073  0.00  0.00     0.185 C 
ENDROOT
BRANCH   1   2
HETATM    2  C           1     -29.290  -4.980 -18.540  0.00  0.00     0.038 C 
BRANCH   2   3
HETATM    3  C           1     -29.553  -4.090 -17.334  0.00  0.00     0.023 C 
BRANCH   3   4
HETATM    4  C           1     -30.977  -3.550 -17.401  0.00  0.00     0.138 C 
BRANCH   4   5
HETATM    5  N           1     -31.876  -4.445 -16.659  0.00  0.00    -0.227 N 
HETATM    6  C           1     -33.124  -4.232 -16.662  0.00  0.00     0.665 C 
HETATM    7  N           1     -33.598  -3.249 -17.304  0.00  0.00    -0.235 N 
HETATM    8  N           1     -33.920  -5.024 -16.006  0.00  0.00    -0.235 N 
HETATM    9  H           1     -32.955  -2.610 -17.834  0.00  0.00     0.174 HD
HETATM   10  H           1     -34.633  -3.073 -17.307  0.00  0.00     0.174 HD
HETATM   11  H           1     -34.950  -4.848 -16.009  0.00  0.00     0.174 HD
HETATM   12  H           1     -33.529  -5.835 -15.476  0.00  0.00     0.174 HD
HETATM   13  H           1     -31.484  -5.260 -16.126  0.00  0.00     0.177 HD
ENDBRANCH   4   5
ENDBRANCH   3   4
ENDBRANCH   2   3
ENDBRANCH   1   2
BRANCH   1  14
HETATM   14  C           1     -29.770  -7.402 -18.350  0.00  0.00     0.196 C 
HETATM   15  O           1     -30.929  -7.299 -17.891  0.00  0.00    -0.646 OA
HETATM   16  O           1     -29.458  -8.397 -19.040  0.00  0.00    -0.646 OA
ENDBRANCH   1  14
BRANCH   1  17
HETATM   17  N           1     -27.524  -6.627 -18.784  0.00  0.00    -0.345 N 
HETATM   18  C           1     -26.313  -6.339 -18.213  0.00  0.00     0.249 C 
HETATM   19  O           1     -26.267  -5.833 -17.118  0.00  0.00    -0.271 OA
HETATM   20  H           1     -27.562  -7.051 -19.702  0.00  0.00     0.163 HD
BRANCH  18  21
HETATM   21  C           1     -25.037  -6.653 -18.954  0.00  0.00     0.278 C 
BRANCH  21  22
HETATM   22  C           1     -25.371  -7.188 -20.340  0.00  0.00     0.017 C 
HETATM   23  C           1     -25.462  -6.029 -21.324  0.00  0.00     0.012 C 
HETATM   24  C           1     -24.279  -8.150 -20.789  0.00  0.00     0.012 C 
ENDBRANCH  21  22
BRANCH  21  25
HETATM   25  N           1     -24.260  -7.687 -18.194  0.00  0.00    -0.066 N 
HETATM   26  H           1     -24.300  -8.598 -18.705  0.00  0.00     0.275 HD
HETATM   27  H           1     -23.264  -7.381 -18.105  0.00  0.00     0.275 HD
HETATM   28  H           1     -24.674  -7.804 -17.242  0.00  0.00     0.275 HD
ENDBRANCH  21  25
ENDBRANCH  18  21
ENDBRANCH   1  17
TORSDOF 9
ENDMDL
MODEL 4
REMARK VINA RESULT:      -6.2      8.150     10.402
REMARK  9 active torsions:
REMARK  status: ('A' for Active; 'I' for Inactive)
REMARK       I    between atoms: N_1  and  C_15 
REMARK       I    between atoms: N_2  and  C_15 
REMARK    1  A    between atoms: N_2  and  C_21 
REMARK       I    between atoms: C_5  and  N_20 
REMARK    2  A    between atoms: C_5  and  C_14 
REMARK    3  A    between atoms: C_9  and  C_24 
REMARK    4  A    between atoms: C_9  and  C_19 
REMARK    5  A    between atoms: C_9  and  N_20 
REMARK    6  A    between atoms: C_10  and  C_14 
REMARK    7  A    between atoms: C_14  and  N_26 
REMARK    8  A    between atoms: C_21  and  C_23 
REMARK    9  A    between atoms: C_23  and  C_24 
ROOT
HETATM    1  C           1     -28.200  -6.360 -17.200  0.00  0.00     0.185 C 
ENDROOT
BRANCH   1   2
HETATM    2  C           1     -29.166  -7.507 -17.469  0.00  0.00     0.038 C 
BRANCH   2   3
HETATM    3  C           1     -30.478  -6.952 -18.008  0.00  0.00     0.023 C 
BRANCH   3   4
HETATM    4  C           1     -30.652  -5.512 -17.540  0.00  0.00     0.138 C 
BRANCH   4   5
HETATM    5  N           1     -31.878  -5.402 -16.736  0.00  0.00    -0.227 N 
HETATM    6  C           1     -32.548  -4.329 -16.747  0.00  0.00     0.665 C 
HETATM    7  N           1     -32.163  -3.349 -17.452  0.00  0.00    -0.235 N 
HETATM    8  N           1     -33.632  -4.232 -16.037  0.00  0.00    -0.235 N 
HETATM    9  H           1     -31.288  -3.428 -18.026  0.00  0.00     0.174 HD
HETATM   10  H           1     -32.719  -2.459 -17.461  0.00  0.00     0.174 HD
HETATM   11  H           1     -34.186  -3.346 -16.047  0.00  0.00     0.174 HD
HETATM   12  H           1     -33.950  -5.040 -15.456  0.00  0.00     0.174 HD
HETATM   13  H           1     -32.197  -6.214 -16.152  0.00  0.00     0.177 HD
ENDBRANCH   4   5
ENDBRANCH   3   4
ENDBRANCH   2   3
ENDBRANCH   1   2
BRANCH   1  14
HETATM   14  C           1     -27.992  -6.214 -15.713  0.00  0.00     0.196 C 
HETATM   15  O           1     -27.999  -5.079 -15.189  0.00  0.00    -0.646 OA
HETATM   16  O           1     -27.815  -7.228 -15.004  0.00  0.00    -0.646 OA
ENDBRANCH   1  14
BRANCH   1  17
HETATM   17  N           1     -26.930  -6.640 -17.840  0.00  0.00    -0.345 N 
HETATM   18  C           1     -26.732  -6.292 -19.149  0.00  0.00     0.249 C 
HETATM   19  O           1     -27.616  -5.752 -19.771  0.00  0.00    -0.271 OA
HETATM   20  H           1     -26.189  -7.092 -17.319  0.00  0.00     0.163 HD
BRANCH  18  21
HETATM   21  C           1     -25.410  -6.583 -19.815  0.00  0.00     0.278 C 
BRANCH  21  22
HETATM   22  C           1     -25.655  -7.249 -21.163  0.00  0.00     0.017 C 
HETATM   23  C           1     -24.363  -7.885 -21.659  0.00  0.00     0.012 C 
HETATM   24  C           1     -26.724  -8.323 -21.011  0.00  0.00     0.012 C 
ENDBRANCH  21  22
BRANCH  21  25
HETATM   25  N           1     -24.603  -7.500 -18.945  0.00  0.00    -0.066 N 
HETATM   26  H           1     -25.102  -7.650 -18.039  0.00  0.00     0.275 HD
HETATM   27  H           1     -24.474  -8.418 -19.429  0.00  0.00     0.275 HD
HETATM   28  H           1     -23.668  -7.071 -18.760  0.00  0.00     0.275 HD
ENDBRANCH  21  25
ENDBRANCH  18  21
ENDBRANCH   1  17
TORSDOF 9
ENDMDL
MODEL 5
REMARK VINA RESULT:      -6.1     13.563     15.644
REMARK  9 active torsions:
REMARK  status: ('A' for Active; 'I' for Inactive)
REMARK       I    between atoms: N_1  and  C_15 
REMARK       I    between atoms: N_2  and  C_15 
REMARK    1  A    between atoms: N_2  and  C_21 
REMARK       I    between atoms: C_5  and  N_20 
REMARK    2  A    between atoms: C_5  and  C_14 
REMARK    3  A    between atoms: C_9  and  C_24 
REMARK    4  A    between atoms: C_9  and  C_19 
REMARK    5  A    between atoms: C_9  and  N_20 
REMARK    6  A    between atoms: C_10  and  C_14 
REMARK    7  A    between atoms: C_14  and  N_26 
REMARK    8  A    between atoms: C_21  and  C_23 
REMARK    9  A    between atoms: C_23  and  C_24 
ROOT
HETATM    1  C           1     -21.433  -5.220  -7.050  0.00  0.00     0.185 C 
ENDROOT
BRANCH   1   2
HETATM    2  C           1     -22.443  -4.159  -7.467  0.00  0.00     0.038 C 
BRANCH   2   3
HETATM    3  C           1     -23.308  -4.696  -8.599  0.00  0.00     0.023 C 
BRANCH   3   4
HETATM    4  C           1     -23.270  -3.726  -9.773  0.00  0.00     0.138 C 
BRANCH   4   5
HETATM    5  N           1     -21.874  -3.480 -10.161  0.00  0.00    -0.227 N 
HETATM    6  C           1     -21.437  -3.918 -11.265  0.00  0.00     0.665 C 
HETATM    7  N           1     -22.203  -4.569 -12.036  0.00  0.00    -0.235 N 
HETATM    8  N           1     -20.203  -3.700 -11.609  0.00  0.00    -0.235 N 
HETATM    9  H           1     -23.200  -4.745 -11.759  0.00  0.00     0.174 HD
HETATM   10  H           1     -21.841  -4.933 -12.952  0.00  0.00     0.174 HD
HETATM   11  H           1     -19.843  -4.062 -12.520  0.00  0.00     0.174 HD
HETATM   12  H           1     -19.571  -3.163 -10.973  0.00  0.00     0.174 HD
HETATM   13  H           1     -21.239  -2.940  -9.523  0.00  0.00     0.177 HD
ENDBRANCH   4   5
ENDBRANCH   3   4
ENDBRANCH   2   3
ENDBRANCH   1   2
BRANCH   1  14
HETATM   14  C           1     -20.056  -4.607  -6.987  0.00  0.00     0.196 C 
HETATM   15  O           1     -19.433  -4.578  -5.903  0.00  0.00    -0.646 OA
HETATM   16  O           1     -19.536  -4.128  -8.018  0.00  0.00    -0.646 OA
ENDBRANCH   1  14
BRANCH   1  17
HETATM   17  N           1     -21.790  -5.741  -5.746  0.00  0.00    -0.345 N 
HETATM   18  C           1     -21.618  -7.071  -5.470  0.00  0.00     0.249 C 
HETATM   19  O           1     -21.168  -7.810  -6.312  0.00  0.00    -0.271 OA
HETATM   20  H           1     -22.167  -5.122  -5.040  0.00  0.00     0.163 HD
BRANCH  18  21
HETATM   21  C           1     -21.990  -7.613  -4.112  0.00  0.00     0.278 C 
BRANCH  21  22
HETATM   22  C           1     -21.179  -6.898  -3.039  0.00  0.00     0.017 C 
HETATM   23  C           1     -22.118  -6.119  -2.127  0.00  0.00     0.012 C 
HETATM   24  C           1     -20.409  -7.924  -2.217  0.00  0.00     0.012 C 
ENDBRANCH  21  22
BRANCH  21  25
HETATM   25  N           1     -21.695  -9.083  -4.063  0.00  0.00    -0.066 N 
HETATM   26  H           1     -20.705  -9.250  -4.353  0.00  0.00     0.275 HD
HETATM   27  H           1     -21.838  -9.436  -3.089  0.00  0.00     0.275 HD
HETATM   28  H           1     -22.338  -9.589  -4.713  0.00  0.00     0.275 HD
ENDBRANCH  21  25
ENDBRANCH  18  21
ENDBRANCH   1  17
TORSDOF 9
ENDMDL
MODEL 6
REMARK VINA RESULT:      -6.0      9.680     12.160
REMARK  9 active torsions:
REMARK  status: ('A' for Active; 'I' for Inactive)
REMARK       I    between atoms: N_1  and  C_15 
REMARK       I    between atoms: N_2  and  C_15 
REMARK    1  A    between atoms: N_2  and  C_21 
REMARK       I    between atoms: C_5  and  N_20 
REMARK    2  A    between atoms: C_5  and  C_14 
REMARK    3  A    between atoms: C_9  and  C_24 
REMARK    4  A    between atoms: C_9  and  C_19 
REMARK    5  A    between atoms: C_9  and  N_20 
REMARK    6  A    between atoms: C_10  and  C_14 
REMARK    7  A    between atoms: C_14  and  N_26 
REMARK    8  A    between atoms: C_21  and  C_23 
REMARK    9  A    between atoms: C_23  and  C_24 
ROOT
HETATM    1  C           1     -26.193  -7.031 -17.643  0.00  0.00     0.185 C 
ENDROOT
BRANCH   1   2
HETATM    2  C           1     -25.115  -6.779 -18.689  0.00  0.00     0.038 C 
BRANCH   2   3
HETATM    3  C           1     -25.750  -6.731 -20.072  0.00  0.00     0.023 C 
BRANCH   3   4
HETATM    4  C           1     -25.249  -7.906 -20.903  0.00  0.00     0.138 C 
BRANCH   4   5
HETATM    5  N           1     -23.867  -8.227 -20.517  0.00  0.00    -0.227 N 
HETATM    6  C           1     -23.016  -8.530 -21.403  0.00  0.00     0.665 C 
HETATM    7  N           1     -23.354  -8.557 -22.623  0.00  0.00    -0.235 N 
HETATM    8  N           1     -21.794  -8.814 -21.061  0.00  0.00    -0.235 N 
HETATM    9  H           1     -24.341  -8.328 -22.899  0.00  0.00     0.174 HD
HETATM   10  H           1     -22.648  -8.809 -23.358  0.00  0.00     0.174 HD
HETATM   11  H           1     -21.092  -9.064 -21.793  0.00  0.00     0.174 HD
HETATM   12  H           1     -21.515  -8.792 -20.054  0.00  0.00     0.174 HD
HETATM   13  H           1     -23.587  -8.205 -19.506  0.00  0.00     0.177 HD
ENDBRANCH   4   5
ENDBRANCH   3   4
ENDBRANCH   2   3
ENDBRANCH   1   2
BRANCH   1  14
HETATM   14  C           1     -25.666  -6.664 -16.278  0.00  0.00     0.196 C 
HETATM   15  O           1     -25.195  -5.523 -16.075  0.00  0.00    -0.646 OA
HETATM   16  O           1     -25.699  -7.499 -15.349  0.00  0.00    -0.646 OA
ENDBRANCH   1  14
BRANCH   1  17
HETATM   17  N           1     -27.357  -6.220 -17.945  0.00  0.00    -0.345 N 
HETATM   18  C           1     -28.581  -6.565 -17.437  0.00  0.00     0.249 C 
HETATM   19  O           1     -28.691  -7.544 -16.738  0.00  0.00    -0.271 OA
HETATM   20  H           1     -27.265  -5.401 -18.530  0.00  0.00     0.163 HD
BRANCH  18  21
HETATM   21  C           1     -29.792  -5.722 -17.751  0.00  0.00     0.278 C 
BRANCH  21  22
HETATM   22  C           1     -29.386  -4.255 -17.821  0.00  0.00     0.017 C 
HETATM   23  C           1     -30.633  -3.381 -17.783  0.00  0.00     0.012 C 
HETATM   24  C           1     -28.495  -3.919 -16.632  0.00  0.00     0.012 C 
ENDBRANCH  21  22
BRANCH  21  25
HETATM   25  N           1     -30.821  -5.905 -16.675  0.00  0.00    -0.066 N 
HETATM   26  H           1     -31.064  -6.918 -16.594  0.00  0.00     0.275 HD
HETATM   27  H           1     -30.438  -5.564 -15.764  0.00  0.00     0.275 HD
HETATM   28  H           1     -31.679  -5.359 -16.917  0.00  0.00     0.275 HD
ENDBRANCH  21  25
ENDBRANCH  18  21
ENDBRANCH   1  17
TORSDOF 9
ENDMDL
MODEL 7
REMARK VINA RESULT:      -6.0     14.452     17.717
REMARK  9 active torsions:
REMARK  status: ('A' for Active; 'I' for Inactive)
REMARK       I    between atoms: N_1  and  C_15 
REMARK       I    between atoms: N_2  and  C_15 
REMARK    1  A    between atoms: N_2  and  C_21 
REMARK       I    between atoms: C_5  and  N_20 
REMARK    2  A    between atoms: C_5  and  C_14 
REMARK    3  A    between atoms: C_9  and  C_24 
REMARK    4  A    between atoms: C_9  and  C_19 
REMARK    5  A    between atoms: C_9  and  N_20 
REMARK    6  A    between atoms: C_10  and  C_14 
REMARK    7  A    between atoms: C_14  and  N_26 
REMARK    8  A    between atoms: C_21  and  C_23 
REMARK    9  A    between atoms: C_23  and  C_24 
ROOT
HETATM    1  C           1     -20.866  -6.598  -4.977  0.00  0.00     0.185 C 
ENDROOT
BRANCH   1   2
HETATM    2  C           1     -21.894  -6.825  -3.877  0.00  0.00     0.038 C 
BRANCH   2   3
HETATM    3  C           1     -21.496  -6.036  -2.637  0.00  0.00     0.023 C 
BRANCH   3   4
HETATM    4  C           1     -22.311  -6.518  -1.443  0.00  0.00     0.138 C 
BRANCH   4   5
HETATM    5  N           1     -21.616  -7.639  -0.794  0.00  0.00    -0.227 N 
HETATM    6  C           1     -22.188  -8.289   0.129  0.00  0.00     0.665 C 
HETATM    7  N           1     -23.359  -7.973   0.494  0.00  0.00    -0.235 N 
HETATM    8  N           1     -21.574  -9.280   0.703  0.00  0.00    -0.235 N 
HETATM    9  H           1     -23.855  -7.172   0.031  0.00  0.00     0.174 HD
HETATM   10  H           1     -23.833  -8.512   1.260  0.00  0.00     0.174 HD
HETATM   11  H           1     -22.046  -9.816   1.465  0.00  0.00     0.174 HD
HETATM   12  H           1     -20.608  -9.540   0.401  0.00  0.00     0.174 HD
HETATM   13  H           1     -20.646  -7.901  -1.097  0.00  0.00     0.177 HD
ENDBRANCH   4   5
ENDBRANCH   3   4
ENDBRANCH   2   3
ENDBRANCH   1   2
BRANCH   1  14
HETATM   14  C           1     -19.996  -7.823  -5.115  0.00  0.00     0.196 C 
HETATM   15  O           1     -19.320  -7.996  -6.152  0.00  0.00    -0.646 OA
HETATM   16  O           1     -19.951  -8.665  -4.193  0.00  0.00    -0.646 OA
ENDBRANCH   1  14
BRANCH   1  17
HETATM   17  N           1     -21.549  -6.346  -6.231  0.00  0.00    -0.345 N 
HETATM   18  C           1     -21.513  -5.097  -6.791  0.00  0.00     0.249 C 
HETATM   19  O           1     -20.913  -4.205  -6.240  0.00  0.00    -0.271 OA
HETATM   20  H           1     -22.052  -7.093  -6.692  0.00  0.00     0.163 HD
BRANCH  18  21
HETATM   21  C           1     -22.224  -4.835  -8.096  0.00  0.00     0.278 C 
BRANCH  21  22
HETATM   22  C           1     -21.343  -3.972  -8.990  0.00  0.00     0.017 C 
HETATM   23  C           1     -20.098  -4.755  -9.386  0.00  0.00     0.012 C 
HETATM   24  C           1     -22.119  -3.584 -10.242  0.00  0.00     0.012 C 
ENDBRANCH  21  22
BRANCH  21  25
HETATM   25  N           1     -23.515  -4.121  -7.827  0.00  0.00    -0.066 N 
HETATM   26  H           1     -24.215  -4.380  -8.559  0.00  0.00     0.275 HD
HETATM   27  H           1     -23.877  -4.394  -6.886  0.00  0.00     0.275 HD
HETATM   28  H           1     -23.353  -3.088  -7.851  0.00  0.00     0.275 HD
ENDBRANCH  21  25
ENDBRANCH  18  21
ENDBRANCH   1  17
TORSDOF 9
ENDMDL
MODEL 8
REMARK VINA RESULT:      -5.9     14.803     17.515
REMARK  9 active torsions:
REMARK  status: ('A' for Active; 'I' for Inactive)
REMARK       I    between atoms: N_1  and  C_15 
REMARK       I    between atoms: N_2  and  C_15 
REMARK    1  A    between atoms: N_2  and  C_21 
REMARK       I    between atoms: C_5  and  N_20 
REMARK    2  A    between atoms: C_5  and  C_14 
REMARK    3  A    between atoms: C_9  and  C_24 
REMARK    4  A    between atoms: C_9  and  C_19 
REMARK    5  A    between atoms: C_9  and  N_20 
REMARK    6  A    between atoms: C_10  and  C_14 
REMARK    7  A    between atoms: C_14  and  N_26 
REMARK    8  A    between atoms: C_21  and  C_23 
REMARK    9  A    between atoms: C_23  and  C_24 
ROOT
HETATM    1  C           1     -20.422  -8.128  -4.834  0.00  0.00     0.185 C 
ENDROOT
BRANCH   1   2
HETATM    2  C           1     -20.382  -6.976  -5.831  0.00  0.00     0.038 C 
BRANCH   2   3
HETATM    3  C           1     -21.651  -6.145  -5.699  0.00  0.00     0.023 C 
BRANCH   3   4
HETATM    4  C           1     -21.523  -4.884  -6.545  0.00  0.00     0.138 C 
BRANCH   4   5
HETATM    5  N           1     -22.854  -4.465  -7.007  0.00  0.00    -0.227 N 
HETATM    6  C           1     -23.030  -4.137  -8.217  0.00  0.00     0.665 C 
HETATM    7  N           1     -22.059  -4.168  -9.029  0.00  0.00    -0.235 N 
HETATM    8  N           1     -24.207  -3.766  -8.625  0.00  0.00    -0.235 N 
HETATM    9  H           1     -21.108  -4.467  -8.699  0.00  0.00     0.174 HD
HETATM   10  H           1     -22.204  -3.896 -10.032  0.00  0.00     0.174 HD
HETATM   11  H           1     -24.351  -3.495  -9.624  0.00  0.00     0.174 HD
HETATM   12  H           1     -25.008  -3.740  -7.955  0.00  0.00     0.174 HD
HETATM   13  H           1     -23.659  -4.439  -6.334  0.00  0.00     0.177 HD
ENDBRANCH   4   5
ENDBRANCH   3   4
ENDBRANCH   2   3
ENDBRANCH   1   2
BRANCH   1  14
HETATM   14  C           1     -19.137  -8.914  -4.921  0.00  0.00     0.196 C 
HETATM   15  O           1     -18.748  -9.356  -6.024  0.00  0.00    -0.646 OA
HETATM   16  O           1     -18.461  -9.122  -3.891  0.00  0.00    -0.646 OA
ENDBRANCH   1  14
BRANCH   1  17
HETATM   17  N           1     -20.575  -7.600  -3.493  0.00  0.00    -0.345 N 
HETATM   18  C           1     -21.343  -8.269  -2.578  0.00  0.00     0.249 C 
HETATM   19  O           1     -21.891  -9.300  -2.888  0.00  0.00    -0.271 OA
HETATM   20  H           1     -20.116  -6.736  -3.233  0.00  0.00     0.163 HD
BRANCH  18  21
HETATM   21  C           1     -21.502  -7.720  -1.182  0.00  0.00     0.278 C 
BRANCH  21  22
HETATM   22  C           1     -22.171  -8.765  -0.298  0.00  0.00     0.017 C 
HETATM   23  C           1     -21.137  -9.375   0.639  0.00  0.00     0.012 C 
HETATM   24  C           1     -23.272  -8.105   0.522  0.00  0.00     0.012 C 
ENDBRANCH  21  22
BRANCH  21  25
HETATM   25  N           1     -22.353  -6.485  -1.225  0.00  0.00    -0.066 N 
HETATM   26  H           1     -22.615  -6.277  -2.215  0.00  0.00     0.275 HD
HETATM   27  H           1     -23.218  -6.636  -0.659  0.00  0.00     0.275 HD
HETATM   28  H           1     -21.816  -5.679  -0.831  0.00  0.00     0.275 HD
ENDBRANCH  21  25
ENDBRANCH  18  21
ENDBRANCH   1  17
TORSDOF 9
ENDMDL
MODEL 9
REMARK VINA RESULT:      -5.8     15.060     17.693
REMARK  9 active torsions:
REMARK  status: ('A' for Active; 'I' for Inactive)
REMARK       I    between atoms: N_1  and  C_15 
REMARK       I    between atoms: N_2  and  C_15 
REMARK    1  A    between atoms: N_2  and  C_21 
REMARK       I    between atoms: C_5  and  N_20 
REMARK    2  A    between atoms: C_5  and  C_14 
REMARK    3  A    between atoms: C_9  and  C_24 
REMARK    4  A    between atoms: C_9  and  C_19 
REMARK    5  A    between atoms: C_9  and  N_20 
REMARK    6  A    between atoms: C_10  and  C_14 
REMARK    7  A    between atoms: C_14  and  N_26 
REMARK    8  A    between atoms: C_21  and  C_23 
REMARK    9  A    between atoms: C_23  and  C_24 
ROOT
HETATM    1  C           1     -21.011  -8.027  -3.988  0.00  0.00     0.185 C 
ENDROOT
BRANCH   1   2
HETATM    2  C           1     -21.203  -6.528  -4.173  0.00  0.00     0.038 C 
BRANCH   2   3
HETATM    3  C           1     -22.335  -6.277  -5.160  0.00  0.00     0.023 C 
BRANCH   3   4
HETATM    4  C           1     -21.859  -5.323  -6.248  0.00  0.00     0.138 C 
BRANCH   4   5
HETATM    5  N           1     -23.013  -4.609  -6.814  0.00  0.00    -0.227 N 
HETATM    6  C           1     -23.010  -4.266  -8.033  0.00  0.00     0.665 C 
HETATM    7  N           1     -22.013  -4.538  -8.764  0.00  0.00    -0.235 N 
HETATM    8  N           1     -24.031  -3.635  -8.533  0.00  0.00    -0.235 N 
HETATM    9  H           1     -21.189  -5.047  -8.360  0.00  0.00     0.174 HD
HETATM   10  H           1     -22.010  -4.253  -9.775  0.00  0.00     0.174 HD
HETATM   11  H           1     -24.028  -3.353  -9.539  0.00  0.00     0.174 HD
HETATM   12  H           1     -24.854  -3.412  -7.929  0.00  0.00     0.174 HD
HETATM   13  H           1     -23.840  -4.384  -6.208  0.00  0.00     0.177 HD
ENDBRANCH   4   5
ENDBRANCH   3   4
ENDBRANCH   2   3
ENDBRANCH   1   2
BRANCH   1  14
HETATM   14  C           1     -19.698  -8.447  -4.601  0.00  0.00     0.196 C 
HETATM   15  O           1     -19.495  -8.274  -5.823  0.00  0.00    -0.646 OA
HETATM   16  O           1     -18.812  -8.965  -3.888  0.00  0.00    -0.646 OA
ENDBRANCH   1  14
BRANCH   1  17
HETATM   17  N           1     -21.005  -8.342  -2.572  0.00  0.00    -0.345 N 
HETATM   18  C           1     -21.677  -9.443  -2.114  0.00  0.00     0.249 C 
HETATM   19  O           1     -22.274 -10.152  -2.888  0.00  0.00    -0.271 OA
HETATM   20  H           1     -20.506  -7.747  -1.924  0.00  0.00     0.163 HD
BRANCH  18  21
HETATM   21  C           1     -21.672  -9.770  -0.641  0.00  0.00     0.278 C 
BRANCH  21  22
HETATM   22  C           1     -21.718  -8.480   0.167  0.00  0.00     0.017 C 
HETATM   23  C           1     -23.169  -8.096   0.429  0.00  0.00     0.012 C 
HETATM   24  C           1     -21.001  -8.687   1.495  0.00  0.00     0.012 C 
ENDBRANCH  21  22
BRANCH  21  25
HETATM   25  N           1     -20.421 -10.527  -0.302  0.00  0.00    -0.066 N 
HETATM   26  H           1     -20.660 -11.334   0.317  0.00  0.00     0.275 HD
HETATM   27  H           1     -19.976 -10.879  -1.180  0.00  0.00     0.275 HD
HETATM   28  H           1     -19.755  -9.893   0.195  0.00  0.00     0.275 HD
ENDBRANCH  21  25
ENDBRANCH  18  21
ENDBRANCH   1  17
TORSDOF 9
ENDMDL
