MODEL 1
REMARK VINA RESULT:      -6.8      0.000      0.000
REMARK  5 active torsions:
REMARK  status: ('A' for Active; 'I' for Inactive)
REMARK    1  A    between atoms: C_2  and  C_17 
REMARK       I    between atoms: N_3  and  C_4 
REMARK    2  A    between atoms: C_4  and  C_11 
REMARK       I    between atoms: N_8  and  C_9 
REMARK    3  A    between atoms: C_9  and  C_10 
REMARK    4  A    between atoms: C_10  and  C_11 
REMARK    5  A    between atoms: C_11  and  N_12 
ROOT
HETATM    1  C           1     -35.923  -0.396 -13.633  0.00  0.00     0.283 C 
ENDROOT
BRANCH   1   2
HETATM    2  C           1     -35.136  -1.679 -13.736  0.00  0.00     0.251 C 
HETATM    3  N           1     -34.694  -2.304 -12.601  0.00  0.00    -0.336 N 
HETATM    4  C           1     -33.925  -3.542 -12.509  0.00  0.00     0.188 C 
HETATM    5  C           1     -34.889  -1.877 -11.218  0.00  0.00     0.127 C 
HETATM    6  C           1     -32.916  -3.261 -11.409  0.00  0.00     0.038 C 
HETATM    7  C           1     -33.552  -2.169 -10.557  0.00  0.00     0.022 C 
HETATM    8  O           1     -34.895  -2.155 -14.820  0.00  0.00    -0.271 OA
BRANCH   4   9
HETATM    9  C           1     -34.817  -4.701 -12.137  0.00  0.00     0.196 C 
HETATM   10  O           1     -35.297  -5.432 -13.030  0.00  0.00    -0.646 OA
HETATM   11  O           1     -35.077  -4.930 -10.935  0.00  0.00    -0.646 OA
ENDBRANCH   4   9
ENDBRANCH   1   2
BRANCH   1  12
HETATM   12  C           1     -37.122  -0.458 -14.570  0.00  0.00     0.145 C 
BRANCH  12  13
HETATM   13  C           1     -36.761   0.169 -15.893  0.00  0.00     0.217 C 
HETATM   14  O           1     -36.877   1.362 -16.049  0.00  0.00    -0.274 OA
HETATM   15  N           1     -36.301  -0.612 -16.919  0.00  0.00    -0.370 N 
HETATM   16  H           1     -36.059  -0.192 -17.807  0.00  0.00     0.159 HD
HETATM   17  H           1     -36.203  -1.611 -16.789  0.00  0.00     0.159 HD
ENDBRANCH  12  13
ENDBRANCH   1  12
BRANCH   1  18
HETATM   18  N           1     -35.047   0.759 -14.021  0.00  0.00    -0.066 N 
HETATM   19  H           1     -34.928   1.396 -13.201  0.00  0.00     0.275 HD
HETATM   20  H           1     -34.112   0.401 -14.321  0.00  0.00     0.275 HD
HETATM   21  H           1     -35.489   1.283 -14.808  0.00  0.00     0.275 HD
ENDBRANCH   1  18
TORSDOF 5
ENDMDL
MODEL 2
REMARK VINA RESULT:      -6.4     13.057     15.513
REMARK  5 active torsions:
REMARK  status: ('A' for Active; 'I' for Inactive)
REMARK    1  A    between atoms: C_2  and  C_17 
REMARK       I    between atoms: N_3  and  C_4 
REMARK    2  A    between atoms: C_4  and  C_11 
REMARK       I    between atoms: N_8  and  C_9 
REMARK    3  A    between atoms: C_9  and  C_10 
REMARK    4  A    between atoms: C_10  and  C_11 
REMARK    5  A    between atoms: C_11  and  N_12 
ROOT
HETATM    1  C           1     -20.583  -5.259  -7.179  0.00  0.00     0.283 C 
ENDROOT
BRANCH   1   2
HETATM    2  C           1     -21.639  -4.502  -7.945  0.00  0.00     0.251 C 
HETATM    3  N           1     -21.535  -4.367  -9.304  0.00  0.00    -0.336 N 
HETATM    4  C           1     -22.455  -3.674 -10.202  0.00  0.00     0.188 C 
HETATM    5  C           1     -20.480  -4.885 -10.170  0.00  0.00     0.127 C 
HETATM    6  C           1     -21.537  -2.960 -11.179  0.00  0.00     0.038 C 
HETATM    7  C           1     -20.240  -3.759 -11.162  0.00  0.00     0.022 C 
HETATM    8  O           1     -22.577  -4.014  -7.360  0.00  0.00    -0.271 OA
BRANCH   4   9
HETATM    9  C           1     -23.344  -4.658 -10.922  0.00  0.00     0.196 C 
HETATM   10  O           1     -23.410  -4.642 -12.170  0.00  0.00    -0.646 OA
HETATM   11  O           1     -24.017  -5.487 -10.270  0.00  0.00    -0.646 OA
ENDBRANCH   4   9
ENDBRANCH   1   2
BRANCH   1  12
HETATM   12  C           1     -21.147  -6.598  -6.722  0.00  0.00     0.145 C 
BRANCH  12  13
HETATM   13  C           1     -21.611  -6.487  -5.291  0.00  0.00     0.217 C 
HETATM   14  O           1     -20.836  -6.691  -4.387  0.00  0.00    -0.274 OA
HETATM   15  N           1     -22.911  -6.155  -5.017  0.00  0.00    -0.370 N 
HETATM   16  H           1     -23.223  -6.080  -4.057  0.00  0.00     0.159 HD
HETATM   17  H           1     -23.560  -5.983  -5.774  0.00  0.00     0.159 HD
ENDBRANCH  12  13
ENDBRANCH   1  12
BRANCH   1  18
HETATM   18  N           1     -20.166  -4.458  -5.980  0.00  0.00    -0.066 N 
HETATM   19  H           1     -19.439  -3.762  -6.262  0.00  0.00     0.275 HD
HETATM   20  H           1     -20.996  -3.956  -5.592  0.00  0.00     0.275 HD
HETATM   21  H           1     -19.773  -5.098  -5.254  0.00  0.00     0.275 HD
ENDBRANCH   1  18
TORSDOF 5
ENDMDL
MODEL 3
REMARK VINA RESULT:      -6.3      9.234     10.838
REMARK  5 active torsions:
REMARK  status: ('A' for Active; 'I' for Inactive)
REMARK    1  A    between atoms: C_2  and  C_17 
REMARK       I    between atoms: N_3  and  C_4 
REMARK    2  A    between atoms: C_4  and  C_11 
REMARK       I    between atoms: N_8  and  C_9 
REMARK    3  A    between atoms: C_9  and  C_10 
REMARK    4  A    between atoms: C_10  and  C_11 
REMARK    5  A    between atoms: C_11  and  N_12 
ROOT
HETATM    1  C           1     -25.596  -6.398 -16.206  0.00  0.00     0.283 C 
ENDROOT
BRANCH   1   2
HETATM    2  C           1     -27.020  -6.792 -15.900  0.00  0.00     0.251 C 
HETATM    3  N           1     -28.050  -6.249 -16.621  0.00  0.00    -0.336 N 
HETATM    4  C           1     -29.478  -6.511 -16.466  0.00  0.00     0.188 C 
HETATM    5  C           1     -27.959  -5.285 -17.714  0.00  0.00     0.127 C 
HETATM    6  C           1     -30.117  -5.143 -16.634  0.00  0.00     0.038 C 
HETATM    7  C           1     -29.120  -4.338 -17.458  0.00  0.00     0.022 C 
HETATM    8  O           1     -27.252  -7.584 -15.018  0.00  0.00    -0.271 OA
BRANCH   4   9
HETATM    9  C           1     -29.968  -7.465 -17.528  0.00  0.00     0.196 C 
HETATM   10  O           1     -29.405  -8.571 -17.681  0.00  0.00    -0.646 OA
HETATM   11  O           1     -30.935  -7.150 -18.255  0.00  0.00    -0.646 OA
ENDBRANCH   4   9
ENDBRANCH   1   2
BRANCH   1  12
HETATM   12  C           1     -24.880  -7.563 -16.878  0.00  0.00     0.145 C 
BRANCH  12  13
HETATM   13  C           1     -24.245  -7.090 -18.162  0.00  0.00     0.217 C 
HETATM   14  O           1     -24.926  -6.588 -19.024  0.00  0.00    -0.274 OA
HETATM   15  N           1     -22.896  -7.231 -18.351  0.00  0.00    -0.370 N 
HETATM   16  H           1     -22.470  -6.915 -19.212  0.00  0.00     0.159 HD
HETATM   17  H           1     -22.325  -7.652 -17.629  0.00  0.00     0.159 HD
ENDBRANCH  12  13
ENDBRANCH   1  12
BRANCH   1  18
HETATM   18  N           1     -24.890  -6.049 -14.929  0.00  0.00    -0.066 N 
HETATM   19  H           1     -25.424  -6.435 -14.119  0.00  0.00     0.275 HD
HETATM   20  H           1     -23.929  -6.460 -14.940  0.00  0.00     0.275 HD
HETATM   21  H           1     -24.825  -5.010 -14.840  0.00  0.00     0.275 HD
ENDBRANCH   1  18
TORSDOF 5
ENDMDL
MODEL 4
REMARK VINA RESULT:      -6.1      1.828      2.609
REMARK  5 active torsions:
REMARK  status: ('A' for Active; 'I' for Inactive)
REMARK    1  A    between atoms: C_2  and  C_17 
REMARK       I    between atoms: N_3  and  C_4 
REMARK    2  A    between atoms: C_4  and  C_11 
REMARK       I    between atoms: N_8  and  C_9 
REMARK    3  A    between atoms: C_9  and  C_10 
REMARK    4  A    between atoms: C_10  and  C_11 
REMARK    5  A    between atoms: C_11  and  N_12 
ROOT
HETATM    1  C           1     -35.635  -0.024 -12.986  0.00  0.00     0.283 C 
ENDROOT
BRANCH   1   2
HETATM    2  C           1     -35.065  -1.366 -13.375  0.00  0.00     0.251 C 
HETATM    3  N           1     -34.544  -2.192 -12.415  0.00  0.00    -0.336 N 
HETATM    4  C           1     -33.955  -3.514 -12.606  0.00  0.00     0.188 C 
HETATM    5  C           1     -34.458  -1.943 -10.979  0.00  0.00     0.127 C 
HETATM    6  C           1     -32.757  -3.514 -11.672  0.00  0.00     0.038 C 
HETATM    7  C           1     -33.089  -2.483 -10.599  0.00  0.00     0.022 C 
HETATM    8  O           1     -35.067  -1.711 -14.533  0.00  0.00    -0.271 OA
BRANCH   4   9
HETATM    9  C           1     -34.933  -4.598 -12.223  0.00  0.00     0.196 C 
HETATM   10  O           1     -35.276  -5.455 -13.065  0.00  0.00    -0.646 OA
HETATM   11  O           1     -35.401  -4.637 -11.064  0.00  0.00    -0.646 OA
ENDBRANCH   4   9
ENDBRANCH   1   2
BRANCH   1  12
HETATM   12  C           1     -37.119  -0.173 -12.674  0.00  0.00     0.145 C 
BRANCH  12  13
HETATM   13  C           1     -37.324  -0.152 -11.180  0.00  0.00     0.217 C 
HETATM   14  O           1     -38.075  -0.944 -10.662  0.00  0.00    -0.274 OA
HETATM   15  N           1     -36.660   0.765 -10.411  0.00  0.00    -0.370 N 
HETATM   16  H           1     -36.797   0.779  -9.408  0.00  0.00     0.159 HD
HETATM   17  H           1     -36.031   1.429 -10.844  0.00  0.00     0.159 HD
ENDBRANCH  12  13
ENDBRANCH   1  12
BRANCH   1  18
HETATM   18  N           1     -35.459   0.941 -14.122  0.00  0.00    -0.066 N 
HETATM   19  H           1     -36.395   1.192 -14.514  0.00  0.00     0.275 HD
HETATM   20  H           1     -34.985   1.804 -13.774  0.00  0.00     0.275 HD
HETATM   21  H           1     -34.877   0.499 -14.868  0.00  0.00     0.275 HD
ENDBRANCH   1  18
TORSDOF 5
ENDMDL
MODEL 5
REMARK VINA RESULT:      -6.1     10.343     11.505
REMARK  5 active torsions:
REMARK  status: ('A' for Active; 'I' for Inactive)
REMARK    1  A    between atoms: C_2  and  C_17 
REMARK       I    between atoms: N_3  and  C_4 
REMARK    2  A    between atoms: C_4  and  C_11 
REMARK       I    between atoms: N_8  and  C_9 
REMARK    3  A    between atoms: C_9  and  C_10 
REMARK    4  A    between atoms: C_10  and  C_11 
REMARK    5  A    between atoms: C_11  and  N_12 
ROOT
HETATM    1  C           1     -26.129  -6.996 -19.605  0.00  0.00     0.283 C 
ENDROOT
BRANCH   1   2
HETATM    2  C           1     -26.182  -6.405 -18.217  0.00  0.00     0.251 C 
HETATM    3  N           1     -27.358  -5.896 -17.735  0.00  0.00    -0.336 N 
HETATM    4  C           1     -27.594  -5.290 -16.427  0.00  0.00     0.188 C 
HETATM    5  C           1     -28.649  -5.840 -18.416  0.00  0.00     0.127 C 
HETATM    6  C           1     -28.502  -4.111 -16.733  0.00  0.00     0.038 C 
HETATM    7  C           1     -29.199  -4.475 -18.039  0.00  0.00     0.022 C 
HETATM    8  O           1     -25.187  -6.380 -17.532  0.00  0.00    -0.271 OA
BRANCH   4   9
HETATM    9  C           1     -28.277  -6.266 -15.500  0.00  0.00     0.196 C 
HETATM   10  O           1     -29.374  -5.970 -14.980  0.00  0.00    -0.646 OA
HETATM   11  O           1     -27.744  -7.369 -15.250  0.00  0.00    -0.646 OA
ENDBRANCH   4   9
ENDBRANCH   1   2
BRANCH   1  12
HETATM   12  C           1     -24.694  -7.389 -19.935  0.00  0.00     0.145 C 
BRANCH  12  13
HETATM   13  C           1     -24.667  -8.142 -21.242  0.00  0.00     0.217 C 
HETATM   14  O           1     -25.702  -8.477 -21.768  0.00  0.00    -0.274 OA
HETATM   15  N           1     -23.470  -8.448 -21.831  0.00  0.00    -0.370 N 
HETATM   16  H           1     -23.451  -8.954 -22.707  0.00  0.00     0.159 HD
HETATM   17  H           1     -22.603  -8.168 -21.390  0.00  0.00     0.159 HD
ENDBRANCH  12  13
ENDBRANCH   1  12
BRANCH   1  18
HETATM   18  N           1     -26.609  -5.979 -20.598  0.00  0.00    -0.066 N 
HETATM   19  H           1     -25.786  -5.528 -21.060  0.00  0.00     0.275 HD
HETATM   20  H           1     -27.197  -6.450 -21.321  0.00  0.00     0.275 HD
HETATM   21  H           1     -27.174  -5.251 -20.107  0.00  0.00     0.275 HD
ENDBRANCH   1  18
TORSDOF 5
ENDMDL
MODEL 6
REMARK VINA RESULT:      -6.1      2.233      5.072
REMARK  5 active torsions:
REMARK  status: ('A' for Active; 'I' for Inactive)
REMARK    1  A    between atoms: C_2  and  C_17 
REMARK       I    between atoms: N_3  and  C_4 
REMARK    2  A    between atoms: C_4  and  C_11 
REMARK       I    between atoms: N_8  and  C_9 
REMARK    3  A    between atoms: C_9  and  C_10 
REMARK    4  A    between atoms: C_10  and  C_11 
REMARK    5  A    between atoms: C_11  and  N_12 
ROOT
HETATM    1  C           1     -36.255  -0.221 -11.399  0.00  0.00     0.283 C 
ENDROOT
BRANCH   1   2
HETATM    2  C           1     -36.906  -0.230 -12.760  0.00  0.00     0.251 C 
HETATM    3  N           1     -36.220   0.235 -13.850  0.00  0.00    -0.336 N 
HETATM    4  C           1     -36.687   0.302 -15.232  0.00  0.00     0.188 C 
HETATM    5  C           1     -34.862   0.771 -13.884  0.00  0.00     0.127 C 
HETATM    6  C           1     -36.163   1.639 -15.727  0.00  0.00     0.038 C 
HETATM    7  C           1     -34.960   1.946 -14.843  0.00  0.00     0.022 C 
HETATM    8  O           1     -38.033  -0.646 -12.888  0.00  0.00    -0.271 OA
BRANCH   4   9
HETATM    9  C           1     -36.116  -0.833 -16.047  0.00  0.00     0.196 C 
HETATM   10  O           1     -36.388  -0.927 -17.263  0.00  0.00    -0.646 OA
HETATM   11  O           1     -35.371  -1.679 -15.506  0.00  0.00    -0.646 OA
ENDBRANCH   4   9
ENDBRANCH   1   2
BRANCH   1  12
HETATM   12  C           1     -35.910  -1.648 -10.991  0.00  0.00     0.145 C 
BRANCH  12  13
HETATM   13  C           1     -34.521  -1.987 -11.469  0.00  0.00     0.217 C 
HETATM   14  O           1     -33.563  -1.714 -10.785  0.00  0.00    -0.274 OA
HETATM   15  N           1     -34.345  -2.604 -12.678  0.00  0.00    -0.370 N 
HETATM   16  H           1     -33.412  -2.832 -12.999  0.00  0.00     0.159 HD
HETATM   17  H           1     -35.146  -2.833 -13.251  0.00  0.00     0.159 HD
ENDBRANCH  12  13
ENDBRANCH   1  12
BRANCH   1  18
HETATM   18  N           1     -37.202   0.369 -10.397  0.00  0.00    -0.066 N 
HETATM   19  H           1     -36.770   0.334  -9.446  0.00  0.00     0.275 HD
HETATM   20  H           1     -37.402   1.363 -10.650  0.00  0.00     0.275 HD
HETATM   21  H           1     -38.093  -0.177 -10.395  0.00  0.00     0.275 HD
ENDBRANCH   1  18
TORSDOF 5
ENDMDL
MODEL 7
REMARK VINA RESULT:      -6.1     12.927     15.546
REMARK  5 active torsions:
REMARK  status: ('A' for Active; 'I' for Inactive)
REMARK    1  A    between atoms: C_2  and  C_17 
REMARK       I    between atoms: N_3  and  C_4 
REMARK    2  A    between atoms: C_4  and  C_11 
REMARK       I    between atoms: N_8  and  C_9 
REMARK    3  A    between atoms: C_9  and  C_10 
REMARK    4  A    between atoms: C_10  and  C_11 
REMARK    5  A    between atoms: C_11  and  N_12 
ROOT
HETATM    1  C           1     -21.797  -4.479  -6.733  0.00  0.00     0.283 C 
ENDROOT
BRANCH   1   2
HETATM    2  C           1     -21.524  -4.968  -8.134  0.00  0.00     0.251 C 
HETATM    3  N           1     -22.248  -4.471  -9.185  0.00  0.00    -0.336 N 
HETATM    4  C           1     -22.123  -4.825 -10.596  0.00  0.00     0.188 C 
HETATM    5  C           1     -23.313  -3.473  -9.139  0.00  0.00     0.127 C 
HETATM    6  C           1     -23.560  -4.889 -11.083  0.00  0.00     0.038 C 
HETATM    7  C           1     -24.343  -3.996 -10.126  0.00  0.00     0.022 C 
HETATM    8  O           1     -20.668  -5.798  -8.329  0.00  0.00    -0.271 OA
BRANCH   4   9
HETATM    9  C           1     -21.349  -3.770 -11.347  0.00  0.00     0.196 C 
HETATM   10  O           1     -20.279  -3.326 -10.876  0.00  0.00    -0.646 OA
HETATM   11  O           1     -21.777  -3.337 -12.439  0.00  0.00    -0.646 OA
ENDBRANCH   4   9
ENDBRANCH   1   2
BRANCH   1  12
HETATM   12  C           1     -20.588  -4.763  -5.850  0.00  0.00     0.145 C 
BRANCH  12  13
HETATM   13  C           1     -20.867  -5.968  -4.987  0.00  0.00     0.217 C 
HETATM   14  O           1     -21.447  -5.836  -3.935  0.00  0.00    -0.274 OA
HETATM   15  N           1     -20.464  -7.211  -5.395  0.00  0.00    -0.370 N 
HETATM   16  H           1     -20.651  -8.019  -4.815  0.00  0.00     0.159 HD
HETATM   17  H           1     -19.978  -7.322  -6.275  0.00  0.00     0.159 HD
ENDBRANCH  12  13
ENDBRANCH   1  12
BRANCH   1  18
HETATM   18  N           1     -22.996  -5.191  -6.180  0.00  0.00    -0.066 N 
HETATM   19  H           1     -23.827  -4.559  -6.223  0.00  0.00     0.275 HD
HETATM   20  H           1     -23.183  -6.049  -6.747  0.00  0.00     0.275 HD
HETATM   21  H           1     -22.814  -5.461  -5.188  0.00  0.00     0.275 HD
ENDBRANCH   1  18
TORSDOF 5
ENDMDL
MODEL 8
REMARK VINA RESULT:      -5.7     14.047     16.287
REMARK  5 active torsions:
REMARK  status: ('A' for Active; 'I' for Inactive)
REMARK    1  A    between atoms: C_2  and  C_17 
REMARK       I    between atoms: N_3  and  C_4 
REMARK    2  A    between atoms: C_4  and  C_11 
REMARK       I    between atoms: N_8  and  C_9 
REMARK    3  A    between atoms: C_9  and  C_10 
REMARK    4  A    between atoms: C_10  and  C_11 
REMARK    5  A    between atoms: C_11  and  N_12 
ROOT
HETATM    1  C           1     -20.976  -5.028  -6.957  0.00  0.00     0.283 C 
ENDROOT
BRANCH   1   2
HETATM    2  C           1     -21.843  -5.718  -5.932  0.00  0.00     0.251 C 
HETATM    3  N           1     -21.319  -6.712  -5.150  0.00  0.00    -0.336 N 
HETATM    4  C           1     -22.004  -7.483  -4.116  0.00  0.00     0.188 C 
HETATM    5  C           1     -19.955  -7.231  -5.168  0.00  0.00     0.127 C 
HETATM    6  C           1     -21.486  -8.897  -4.316  0.00  0.00     0.038 C 
HETATM    7  C           1     -20.136  -8.731  -5.005  0.00  0.00     0.022 C 
HETATM    8  O           1     -23.000  -5.393  -5.803  0.00  0.00    -0.271 OA
BRANCH   4   9
HETATM    9  C           1     -21.648  -6.971  -2.742  0.00  0.00     0.196 C 
HETATM   10  O           1     -21.037  -7.710  -1.939  0.00  0.00    -0.646 OA
HETATM   11  O           1     -21.966  -5.810  -2.404  0.00  0.00    -0.646 OA
ENDBRANCH   4   9
ENDBRANCH   1   2
BRANCH   1  12
HETATM   12  C           1     -21.558  -3.657  -7.275  0.00  0.00     0.145 C 
BRANCH  12  13
HETATM   13  C           1     -22.458  -3.760  -8.481  0.00  0.00     0.217 C 
HETATM   14  O           1     -21.993  -3.665  -9.593  0.00  0.00    -0.274 OA
HETATM   15  N           1     -23.802  -3.959  -8.317  0.00  0.00    -0.370 N 
HETATM   16  H           1     -24.407  -4.028  -9.126  0.00  0.00     0.159 HD
HETATM   17  H           1     -24.192  -4.038  -7.387  0.00  0.00     0.159 HD
ENDBRANCH  12  13
ENDBRANCH   1  12
BRANCH   1  18
HETATM   18  N           1     -20.931  -5.854  -8.209  0.00  0.00    -0.066 N 
HETATM   19  H           1     -20.377  -5.350  -8.938  0.00  0.00     0.275 HD
HETATM   20  H           1     -20.480  -6.773  -8.003  0.00  0.00     0.275 HD
HETATM   21  H           1     -21.903  -6.012  -8.557  0.00  0.00     0.275 HD
ENDBRANCH   1  18
TORSDOF 5
ENDMDL
MODEL 9
REMARK VINA RESULT:      -5.6     25.115     26.198
REMARK  5 active torsions:
REMARK  status: ('A' for Active; 'I' for Inactive)
REMARK    1  A    between atoms: C_2  and  C_17 
REMARK       I    between atoms: N_3  and  C_4 
REMARK    2  A    between atoms: C_4  and  C_11 
REMARK       I    between atoms: N_8  and  C_9 
REMARK    3  A    between atoms: C_9  and  C_10 
REMARK    4  A    between atoms: C_10  and  C_11 
REMARK    5  A    between atoms: C_11  and  N_12 
ROOT
HETATM    1  C           1     -12.436   5.308 -20.873  0.00  0.00     0.283 C 
ENDROOT
BRANCH   1   2
HETATM    2  C           1     -12.558   6.687 -20.272  0.00  0.00     0.251 C 
HETATM    3  N           1     -11.703   7.682 -20.662  0.00  0.00    -0.336 N 
HETATM    4  C           1     -11.674   9.064 -20.191  0.00  0.00     0.188 C 
HETATM    5  C           1     -10.622   7.593 -21.639  0.00  0.00     0.127 C 
HETATM    6  C           1     -10.192   9.370 -20.058  0.00  0.00     0.038 C 
HETATM    7  C           1      -9.500   8.405 -21.014  0.00  0.00     0.022 C 
HETATM    8  O           1     -13.410   6.912 -19.445  0.00  0.00    -0.271 OA
BRANCH   4   9
HETATM    9  C           1     -12.324   9.986 -21.194  0.00  0.00     0.196 C 
HETATM   10  O           1     -11.655  10.893 -21.733  0.00  0.00    -0.646 OA
HETATM   11  O           1     -13.532   9.843 -21.484  0.00  0.00    -0.646 OA
ENDBRANCH   4   9
ENDBRANCH   1   2
BRANCH   1  12
HETATM   12  C           1     -13.805   4.640 -20.896  0.00  0.00     0.145 C 
BRANCH  12  13
HETATM   13  C           1     -13.718   3.340 -21.655  0.00  0.00     0.217 C 
HETATM   14  O           1     -13.152   2.390 -21.166  0.00  0.00    -0.274 OA
HETATM   15  N           1     -14.279   3.235 -22.899  0.00  0.00    -0.370 N 
HETATM   16  H           1     -14.221   2.363 -23.409  0.00  0.00     0.159 HD
HETATM   17  H           1     -14.753   4.029 -23.309  0.00  0.00     0.159 HD
ENDBRANCH  12  13
ENDBRANCH   1  12
BRANCH   1  18
HETATM   18  N           1     -11.493   4.485 -20.046  0.00  0.00    -0.066 N 
HETATM   19  H           1     -11.734   3.473 -20.146  0.00  0.00     0.275 HD
HETATM   20  H           1     -10.514   4.642 -20.375  0.00  0.00     0.275 HD
HETATM   21  H           1     -11.573   4.765 -19.043  0.00  0.00     0.275 HD
ENDBRANCH   1  18
TORSDOF 5
ENDMDL
