MODEL 1
REMARK VINA RESULT:      -7.0      0.000      0.000
REMARK  8 active torsions:
REMARK  status: ('A' for Active; 'I' for Inactive)
REMARK       I    between atoms: N_2  and  C_5 
REMARK    1  A    between atoms: C_5  and  C_12 
REMARK    2  A    between atoms: C_9  and  C_12 
REMARK    3  A    between atoms: C_9  and  C_10 
REMARK    4  A    between atoms: C_9  and  N_13 
REMARK       I    between atoms: N_13  and  C_14 
REMARK    5  A    between atoms: C_14  and  C_15 
REMARK    6  A    between atoms: C_15  and  C_16 
REMARK    7  A    between atoms: C_15  and  N_19 
REMARK    8  A    between atoms: C_16  and  C_17 
ROOT
HETATM    1  H           1     -27.044  -7.848 -18.681  0.00  0.00     0.163 HD
HETATM    2  N           1     -27.311  -7.038 -19.225  0.00  0.00    -0.344 N 
HETATM    3  C           1     -28.196  -6.130 -18.709  0.00  0.00     0.249 C 
HETATM    4  O           1     -28.516  -5.162 -19.358  0.00  0.00    -0.271 OA
ENDROOT
BRANCH   3   5
HETATM    5  C           1     -28.772  -6.336 -17.329  0.00  0.00     0.280 C 
BRANCH   5   6
HETATM    6  C           1     -28.972  -4.986 -16.654  0.00  0.00     0.101 C 
BRANCH   6   7
HETATM    7  C           1     -30.386  -4.536 -16.848  0.00  0.00     0.028 A 
HETATM    8  C           1     -30.761  -3.426 -17.567  0.00  0.00     0.114 A 
HETATM    9  N           1     -32.126  -3.394 -17.484  0.00  0.00    -0.360 N 
HETATM   10  C           1     -32.516  -4.465 -16.732  0.00  0.00     0.180 A 
HETATM   11  H           1     -32.757  -2.677 -17.919  0.00  0.00     0.166 HD
HETATM   12  N           1     -31.486  -5.174 -16.333  0.00  0.00    -0.355 N 
ATOM     13  HN          1     -31.500  -6.019 -15.763  1.00  0.00     0.166 HD
ENDBRANCH   6   7
ENDBRANCH   5   6
BRANCH   5  14
HETATM   14  N           1     -27.827  -7.168 -16.513  0.00  0.00    -0.066 N 
HETATM   15  H           1     -27.619  -8.058 -17.019  0.00  0.00     0.275 HD
HETATM   16  H           1     -26.939  -6.638 -16.363  0.00  0.00     0.275 HD
HETATM   17  H           1     -28.264  -7.386 -15.588  0.00  0.00     0.275 HD
ENDBRANCH   5  14
ENDBRANCH   3   5
BRANCH   2  18
HETATM   18  C           1     -26.758  -6.839 -20.551  0.00  0.00     0.194 C 
BRANCH  18  19
HETATM   19  C           1     -25.368  -6.229 -20.435  0.00  0.00     0.138 C 
BRANCH  19  20
HETATM   20  C           1     -24.628  -6.875 -19.288  0.00  0.00     0.217 C 
HETATM   21  N           1     -23.647  -7.796 -19.540  0.00  0.00    -0.370 N 
HETATM   22  H           1     -23.419  -8.044 -20.494  0.00  0.00     0.159 HD
HETATM   23  H           1     -23.151  -8.229 -18.772  0.00  0.00     0.159 HD
HETATM   24  O           1     -24.901  -6.580 -18.150  0.00  0.00    -0.274 OA
ENDBRANCH  19  20
ENDBRANCH  18  19
BRANCH  18  25
HETATM   25  C           1     -26.667  -8.167 -21.261  0.00  0.00     0.197 C 
HETATM   26  O           1     -27.673  -8.906 -21.335  0.00  0.00    -0.646 OA
HETATM   27  O           1     -25.587  -8.529 -21.775  0.00  0.00    -0.646 OA
ENDBRANCH  18  25
ENDBRANCH   2  18
TORSDOF 8
ENDMDL
MODEL 2
REMARK VINA RESULT:      -7.0      2.681      7.068
REMARK  8 active torsions:
REMARK  status: ('A' for Active; 'I' for Inactive)
REMARK       I    between atoms: N_2  and  C_5 
REMARK    1  A    between atoms: C_5  and  C_12 
REMARK    2  A    between atoms: C_9  and  C_12 
REMARK    3  A    between atoms: C_9  and  C_10 
REMARK    4  A    between atoms: C_9  and  N_13 
REMARK       I    between atoms: N_13  and  C_14 
REMARK    5  A    between atoms: C_14  and  C_15 
REMARK    6  A    between atoms: C_15  and  C_16 
REMARK    7  A    between atoms: C_15  and  N_19 
REMARK    8  A    between atoms: C_16  and  C_17 
ROOT
HETATM    1  H           1     -26.077  -6.391 -17.328  0.00  0.00     0.163 HD
HETATM    2  N           1     -26.829  -6.256 -17.992  0.00  0.00    -0.344 N 
HETATM    3  C           1     -26.603  -6.447 -19.328  0.00  0.00     0.249 C 
HETATM    4  O           1     -27.498  -6.285 -20.122  0.00  0.00    -0.271 OA
ENDROOT
BRANCH   3   5
HETATM    5  C           1     -25.233  -6.860 -19.811  0.00  0.00     0.280 C 
BRANCH   5   6
HETATM    6  C           1     -25.375  -7.917 -20.899  0.00  0.00     0.101 C 
BRANCH   6   7
HETATM    7  C           1     -24.032  -8.199 -21.498  0.00  0.00     0.028 A 
HETATM    8  C           1     -23.656  -7.847 -22.773  0.00  0.00     0.114 A 
HETATM    9  N           1     -22.369  -8.291 -22.898  0.00  0.00    -0.360 N 
HETATM   10  C           1     -22.023  -8.883 -21.717  0.00  0.00     0.180 A 
HETATM   11  H           1     -21.759  -8.196 -23.747  0.00  0.00     0.166 HD
HETATM   12  N           1     -23.008  -8.842 -20.851  0.00  0.00    -0.355 N 
ATOM     13  HN          1     -23.012  -9.210 -19.900  1.00  0.00     0.166 HD
ENDBRANCH   6   7
ENDBRANCH   5   6
BRANCH   5  14
HETATM   14  N           1     -24.449  -7.426 -18.664  0.00  0.00    -0.066 N 
HETATM   15  H           1     -24.345  -8.458 -18.788  0.00  0.00     0.275 HD
HETATM   16  H           1     -23.504  -6.982 -18.637  0.00  0.00     0.275 HD
HETATM   17  H           1     -24.953  -7.232 -17.769  0.00  0.00     0.275 HD
ENDBRANCH   5  14
ENDBRANCH   3   5
BRANCH   2  18
HETATM   18  C           1     -28.144  -5.858 -17.529  0.00  0.00     0.194 C 
BRANCH  18  19
HETATM   19  C           1     -28.847  -7.057 -16.907  0.00  0.00     0.138 C 
BRANCH  19  20
HETATM   20  C           1     -29.935  -7.541 -17.835  0.00  0.00     0.217 C 
HETATM   21  N           1     -29.630  -8.401 -18.855  0.00  0.00    -0.370 N 
HETATM   22  H           1     -28.676  -8.711 -18.988  0.00  0.00     0.159 HD
HETATM   23  H           1     -30.359  -8.726 -19.478  0.00  0.00     0.159 HD
HETATM   24  O           1     -31.073  -7.169 -17.678  0.00  0.00    -0.274 OA
ENDBRANCH  19  20
ENDBRANCH  18  19
BRANCH  18  25
HETATM   25  C           1     -28.004  -4.766 -16.497  0.00  0.00     0.197 C 
HETATM   26  O           1     -27.957  -5.058 -15.282  0.00  0.00    -0.646 OA
HETATM   27  O           1     -27.934  -3.571 -16.856  0.00  0.00    -0.646 OA
ENDBRANCH  18  25
ENDBRANCH   2  18
TORSDOF 8
ENDMDL
MODEL 3
REMARK VINA RESULT:      -6.7     11.906     13.624
REMARK  8 active torsions:
REMARK  status: ('A' for Active; 'I' for Inactive)
REMARK       I    between atoms: N_2  and  C_5 
REMARK    1  A    between atoms: C_5  and  C_12 
REMARK    2  A    between atoms: C_9  and  C_12 
REMARK    3  A    between atoms: C_9  and  C_10 
REMARK    4  A    between atoms: C_9  and  N_13 
REMARK       I    between atoms: N_13  and  C_14 
REMARK    5  A    between atoms: C_14  and  C_15 
REMARK    6  A    between atoms: C_15  and  C_16 
REMARK    7  A    between atoms: C_15  and  N_19 
REMARK    8  A    between atoms: C_16  and  C_17 
ROOT
HETATM    1  H           1     -22.480  -5.837  -8.711  0.00  0.00     0.163 HD
HETATM    2  N           1     -22.309  -4.846  -8.592  0.00  0.00    -0.344 N 
HETATM    3  C           1     -21.656  -4.394  -7.477  0.00  0.00     0.249 C 
HETATM    4  O           1     -21.452  -3.212  -7.334  0.00  0.00    -0.271 OA
ENDROOT
BRANCH   3   5
HETATM    5  C           1     -21.189  -5.372  -6.427  0.00  0.00     0.280 C 
BRANCH   5   6
HETATM    6  C           1     -22.390  -5.903  -5.656  0.00  0.00     0.101 C 
BRANCH   6   7
HETATM    7  C           1     -21.920  -6.599  -4.417  0.00  0.00     0.028 A 
HETATM    8  C           1     -21.230  -7.789  -4.403  0.00  0.00     0.114 A 
HETATM    9  N           1     -21.005  -8.052  -3.080  0.00  0.00    -0.360 N 
HETATM   10  C           1     -21.557  -7.031  -2.359  0.00  0.00     0.180 A 
HETATM   11  H           1     -20.501  -8.887  -2.690  0.00  0.00     0.166 HD
HETATM   12  N           1     -22.117  -6.138  -3.140  0.00  0.00    -0.355 N 
ATOM     13  HN          1     -22.596  -5.283  -2.858  1.00  0.00     0.166 HD
ENDBRANCH   6   7
ENDBRANCH   5   6
BRANCH   5  14
HETATM   14  N           1     -20.254  -4.679  -5.479  0.00  0.00    -0.066 N 
HETATM   15  H           1     -20.749  -3.880  -5.023  0.00  0.00     0.275 HD
HETATM   16  H           1     -19.937  -5.355  -4.748  0.00  0.00     0.275 HD
HETATM   17  H           1     -19.426  -4.321  -6.007  0.00  0.00     0.275 HD
ENDBRANCH   5  14
ENDBRANCH   3   5
BRANCH   2  18
HETATM   18  C           1     -22.758  -3.905  -9.600  0.00  0.00     0.194 C 
BRANCH  18  19
HETATM   19  C           1     -22.215  -4.322 -10.960  0.00  0.00     0.138 C 
BRANCH  19  20
HETATM   20  C           1     -20.737  -4.025 -11.025  0.00  0.00     0.217 C 
HETATM   21  N           1     -20.301  -2.833 -11.539  0.00  0.00    -0.370 N 
HETATM   22  H           1     -20.970  -2.152 -11.875  0.00  0.00     0.159 HD
HETATM   23  H           1     -19.310  -2.633 -11.583  0.00  0.00     0.159 HD
HETATM   24  O           1     -19.939  -4.838 -10.625  0.00  0.00    -0.274 OA
ENDBRANCH  19  20
ENDBRANCH  18  19
BRANCH  18  25
HETATM   25  C           1     -24.267  -3.897  -9.642  0.00  0.00     0.197 C 
HETATM   26  O           1     -24.889  -2.822  -9.498  0.00  0.00    -0.646 OA
HETATM   27  O           1     -24.894  -4.963  -9.821  0.00  0.00    -0.646 OA
ENDBRANCH  18  25
ENDBRANCH   2  18
TORSDOF 8
ENDMDL
MODEL 4
REMARK VINA RESULT:      -6.1     13.287     15.068
REMARK  8 active torsions:
REMARK  status: ('A' for Active; 'I' for Inactive)
REMARK       I    between atoms: N_2  and  C_5 
REMARK    1  A    between atoms: C_5  and  C_12 
REMARK    2  A    between atoms: C_9  and  C_12 
REMARK    3  A    between atoms: C_9  and  C_10 
REMARK    4  A    between atoms: C_9  and  N_13 
REMARK       I    between atoms: N_13  and  C_14 
REMARK    5  A    between atoms: C_14  and  C_15 
REMARK    6  A    between atoms: C_15  and  C_16 
REMARK    7  A    between atoms: C_15  and  N_19 
REMARK    8  A    between atoms: C_16  and  C_17 
ROOT
HETATM    1  H           1     -20.087  -6.288  -4.583  0.00  0.00     0.163 HD
HETATM    2  N           1     -21.078  -6.496  -4.582  0.00  0.00    -0.344 N 
HETATM    3  C           1     -21.918  -5.829  -5.432  0.00  0.00     0.249 C 
HETATM    4  O           1     -23.100  -6.076  -5.432  0.00  0.00    -0.271 OA
ENDROOT
BRANCH   3   5
HETATM    5  C           1     -21.367  -4.784  -6.372  0.00  0.00     0.280 C 
BRANCH   5   6
HETATM    6  C           1     -21.382  -5.323  -7.797  0.00  0.00     0.101 C 
BRANCH   6   7
HETATM    7  C           1     -22.393  -4.570  -8.604  0.00  0.00     0.028 A 
HETATM    8  C           1     -22.248  -4.245  -9.932  0.00  0.00     0.114 A 
HETATM    9  N           1     -23.392  -3.571 -10.259  0.00  0.00    -0.360 N 
HETATM   10  C           1     -24.170  -3.516  -9.138  0.00  0.00     0.180 A 
HETATM   11  H           1     -23.628  -3.170 -11.200  0.00  0.00     0.166 HD
HETATM   12  N           1     -23.592  -4.112  -8.121  0.00  0.00    -0.355 N 
ATOM     13  HN          1     -23.957  -4.212  -7.174  1.00  0.00     0.166 HD
ENDBRANCH   6   7
ENDBRANCH   5   6
BRANCH   5  14
HETATM   14  N           1     -19.957  -4.452  -5.979  0.00  0.00    -0.066 N 
HETATM   15  H           1     -19.295  -5.079  -6.489  0.00  0.00     0.275 HD
HETATM   16  H           1     -19.753  -3.457  -6.226  0.00  0.00     0.275 HD
HETATM   17  H           1     -19.842  -4.588  -4.949  0.00  0.00     0.275 HD
ENDBRANCH   5  14
ENDBRANCH   3   5
BRANCH   2  18
HETATM   18  C           1     -21.608  -7.499  -3.679  0.00  0.00     0.194 C 
BRANCH  18  19
HETATM   19  C           1     -20.679  -8.704  -3.656  0.00  0.00     0.138 C 
BRANCH  19  20
HETATM   20  C           1     -20.284  -9.063  -5.068  0.00  0.00     0.217 C 
HETATM   21  N           1     -21.038  -9.954  -5.783  0.00  0.00    -0.370 N 
HETATM   22  H           1     -21.858 -10.373  -5.364  0.00  0.00     0.159 HD
HETATM   23  H           1     -20.774 -10.196  -6.730  0.00  0.00     0.159 HD
HETATM   24  O           1     -19.304  -8.564  -5.567  0.00  0.00    -0.274 OA
ENDBRANCH  19  20
ENDBRANCH  18  19
BRANCH  18  25
HETATM   25  C           1     -21.712  -6.918  -2.289  0.00  0.00     0.197 C 
HETATM   26  O           1     -21.375  -7.603  -1.300  0.00  0.00    -0.646 OA
HETATM   27  O           1     -22.135  -5.753  -2.129  0.00  0.00    -0.646 OA
ENDBRANCH  18  25
ENDBRANCH   2  18
TORSDOF 8
ENDMDL
MODEL 5
REMARK VINA RESULT:      -6.1     12.948     14.709
REMARK  8 active torsions:
REMARK  status: ('A' for Active; 'I' for Inactive)
REMARK       I    between atoms: N_2  and  C_5 
REMARK    1  A    between atoms: C_5  and  C_12 
REMARK    2  A    between atoms: C_9  and  C_12 
REMARK    3  A    between atoms: C_9  and  C_10 
REMARK    4  A    between atoms: C_9  and  N_13 
REMARK       I    between atoms: N_13  and  C_14 
REMARK    5  A    between atoms: C_14  and  C_15 
REMARK    6  A    between atoms: C_15  and  C_16 
REMARK    7  A    between atoms: C_15  and  N_19 
REMARK    8  A    between atoms: C_16  and  C_17 
ROOT
HETATM    1  H           1     -21.562  -6.772  -6.722  0.00  0.00     0.163 HD
HETATM    2  N           1     -21.020  -6.320  -5.997  0.00  0.00    -0.344 N 
HETATM    3  C           1     -20.613  -5.023  -6.155  0.00  0.00     0.249 C 
HETATM    4  O           1     -19.965  -4.483  -5.290  0.00  0.00    -0.271 OA
ENDROOT
BRANCH   3   5
HETATM    5  C           1     -20.973  -4.266  -7.410  0.00  0.00     0.280 C 
BRANCH   5   6
HETATM    6  C           1     -21.707  -5.192  -8.370  0.00  0.00     0.101 C 
BRANCH   6   7
HETATM    7  C           1     -22.797  -4.434  -9.061  0.00  0.00     0.028 A 
HETATM    8  C           1     -22.845  -4.193 -10.413  0.00  0.00     0.114 A 
HETATM    9  N           1     -23.995  -3.478 -10.605  0.00  0.00    -0.360 N 
HETATM   10  C           1     -24.586  -3.318  -9.384  0.00  0.00     0.180 A 
HETATM   11  H           1     -24.357  -3.118 -11.523  0.00  0.00     0.166 HD
HETATM   12  N           1     -23.885  -3.885  -8.431  0.00  0.00    -0.355 N 
ATOM     13  HN          1     -24.102  -3.912  -7.435  1.00  0.00     0.166 HD
ENDBRANCH   6   7
ENDBRANCH   5   6
BRANCH   5  14
HETATM   14  N           1     -19.722  -3.758  -8.064  0.00  0.00    -0.066 N 
HETATM   15  H           1     -19.390  -4.453  -8.770  0.00  0.00     0.275 HD
HETATM   16  H           1     -19.921  -2.849  -8.538  0.00  0.00     0.275 HD
HETATM   17  H           1     -18.982  -3.619  -7.338  0.00  0.00     0.275 HD
ENDBRANCH   5  14
ENDBRANCH   3   5
BRANCH   2  18
HETATM   18  C           1     -20.673  -7.047  -4.791  0.00  0.00     0.194 C 
BRANCH  18  19
HETATM   19  C           1     -21.921  -7.248  -3.942  0.00  0.00     0.138 C 
BRANCH  19  20
HETATM   20  C           1     -21.635  -6.837  -2.518  0.00  0.00     0.217 C 
HETATM   21  N           1     -22.264  -5.745  -1.983  0.00  0.00    -0.370 N 
HETATM   22  H           1     -22.919  -5.214  -2.542  0.00  0.00     0.159 HD
HETATM   23  H           1     -22.072  -5.468  -1.028  0.00  0.00     0.159 HD
HETATM   24  O           1     -20.852  -7.470  -1.852  0.00  0.00    -0.274 OA
ENDBRANCH  19  20
ENDBRANCH  18  19
BRANCH  18  25
HETATM   25  C           1     -20.096  -8.391  -5.163  0.00  0.00     0.197 C 
HETATM   26  O           1     -19.123  -8.457  -5.945  0.00  0.00    -0.646 OA
HETATM   27  O           1     -20.590  -9.437  -4.689  0.00  0.00    -0.646 OA
ENDBRANCH  18  25
ENDBRANCH   2  18
TORSDOF 8
ENDMDL
MODEL 6
REMARK VINA RESULT:      -6.1     13.374     15.319
REMARK  8 active torsions:
REMARK  status: ('A' for Active; 'I' for Inactive)
REMARK       I    between atoms: N_2  and  C_5 
REMARK    1  A    between atoms: C_5  and  C_12 
REMARK    2  A    between atoms: C_9  and  C_12 
REMARK    3  A    between atoms: C_9  and  C_10 
REMARK    4  A    between atoms: C_9  and  N_13 
REMARK       I    between atoms: N_13  and  C_14 
REMARK    5  A    between atoms: C_14  and  C_15 
REMARK    6  A    between atoms: C_15  and  C_16 
REMARK    7  A    between atoms: C_15  and  N_19 
REMARK    8  A    between atoms: C_16  and  C_17 
ROOT
HETATM    1  H           1     -22.363  -7.386  -5.537  0.00  0.00     0.163 HD
HETATM    2  N           1     -21.619  -6.797  -5.185  0.00  0.00    -0.344 N 
HETATM    3  C           1     -21.389  -5.573  -5.754  0.00  0.00     0.249 C 
HETATM    4  O           1     -20.500  -4.870  -5.337  0.00  0.00    -0.271 OA
ENDROOT
BRANCH   3   5
HETATM    5  C           1     -22.246  -5.102  -6.904  0.00  0.00     0.280 C 
BRANCH   5   6
HETATM    6  C           1     -21.671  -3.811  -7.471  0.00  0.00     0.101 C 
BRANCH   6   7
HETATM    7  C           1     -21.360  -3.999  -8.924  0.00  0.00     0.028 A 
HETATM    8  C           1     -20.176  -4.501  -9.411  0.00  0.00     0.114 A 
HETATM    9  N           1     -20.324  -4.499 -10.770  0.00  0.00    -0.360 N 
HETATM   10  C           1     -21.567  -4.006 -11.047  0.00  0.00     0.180 A 
HETATM   11  H           1     -19.611  -4.819 -11.472  0.00  0.00     0.166 HD
HETATM   12  N           1     -22.217  -3.695  -9.951  0.00  0.00    -0.355 N 
ATOM     13  HN          1     -23.158  -3.310  -9.878  1.00  0.00     0.166 HD
ENDBRANCH   6   7
ENDBRANCH   5   6
BRANCH   5  14
HETATM   14  N           1     -23.643  -4.854  -6.416  0.00  0.00    -0.066 N 
HETATM   15  H           1     -23.706  -3.892  -6.012  0.00  0.00     0.275 HD
HETATM   16  H           1     -24.310  -4.940  -7.215  0.00  0.00     0.275 HD
HETATM   17  H           1     -23.885  -5.557  -5.681  0.00  0.00     0.275 HD
ENDBRANCH   5  14
ENDBRANCH   3   5
BRANCH   2  18
HETATM   18  C           1     -20.794  -7.249  -4.081  0.00  0.00     0.194 C 
BRANCH  18  19
HETATM   19  C           1     -21.683  -7.819  -2.985  0.00  0.00     0.138 C 
BRANCH  19  20
HETATM   20  C           1     -22.012  -6.734  -1.988  0.00  0.00     0.217 C 
HETATM   21  N           1     -22.383  -7.068  -0.713  0.00  0.00    -0.370 N 
HETATM   22  H           1     -22.437  -8.041  -0.440  0.00  0.00     0.159 HD
HETATM   23  H           1     -22.603  -6.342  -0.044  0.00  0.00     0.159 HD
HETATM   24  O           1     -21.948  -5.574  -2.314  0.00  0.00    -0.274 OA
ENDBRANCH  19  20
ENDBRANCH  18  19
BRANCH  18  25
HETATM   25  C           1     -19.847  -8.319  -4.568  0.00  0.00     0.197 C 
HETATM   26  O           1     -19.447  -9.204  -3.780  0.00  0.00    -0.646 OA
HETATM   27  O           1     -19.463  -8.320  -5.757  0.00  0.00    -0.646 OA
ENDBRANCH  18  25
ENDBRANCH   2  18
TORSDOF 8
ENDMDL
MODEL 7
REMARK VINA RESULT:      -5.9     15.698     17.594
REMARK  8 active torsions:
REMARK  status: ('A' for Active; 'I' for Inactive)
REMARK       I    between atoms: N_2  and  C_5 
REMARK    1  A    between atoms: C_5  and  C_12 
REMARK    2  A    between atoms: C_9  and  C_12 
REMARK    3  A    between atoms: C_9  and  C_10 
REMARK    4  A    between atoms: C_9  and  N_13 
REMARK       I    between atoms: N_13  and  C_14 
REMARK    5  A    between atoms: C_14  and  C_15 
REMARK    6  A    between atoms: C_15  and  C_16 
REMARK    7  A    between atoms: C_15  and  N_19 
REMARK    8  A    between atoms: C_16  and  C_17 
ROOT
HETATM    1  H           1     -22.142  -7.997  -2.685  0.00  0.00     0.163 HD
HETATM    2  N           1     -21.263  -8.473  -2.528  0.00  0.00    -0.344 N 
HETATM    3  C           1     -20.269  -8.400  -3.467  0.00  0.00     0.249 C 
HETATM    4  O           1     -19.219  -8.968  -3.282  0.00  0.00    -0.271 OA
ENDROOT
BRANCH   3   5
HETATM    5  C           1     -20.484  -7.607  -4.734  0.00  0.00     0.280 C 
BRANCH   5   6
HETATM    6  C           1     -21.397  -6.423  -4.445  0.00  0.00     0.101 C 
BRANCH   6   7
HETATM    7  C           1     -21.341  -5.459  -5.588  0.00  0.00     0.028 A 
HETATM    8  C           1     -20.209  -4.794  -5.995  0.00  0.00     0.114 A 
HETATM    9  N           1     -20.608  -4.030  -7.056  0.00  0.00    -0.360 N 
HETATM   10  C           1     -21.941  -4.257  -7.246  0.00  0.00     0.180 A 
HETATM   11  H           1     -20.000  -3.386  -7.620  0.00  0.00     0.166 HD
HETATM   12  N           1     -22.412  -5.117  -6.374  0.00  0.00    -0.355 N 
ATOM     13  HN          1     -23.370  -5.458  -6.296  1.00  0.00     0.166 HD
ENDBRANCH   6   7
ENDBRANCH   5   6
BRANCH   5  14
HETATM   14  N           1     -21.120  -8.486  -5.771  0.00  0.00    -0.066 N 
HETATM   15  H           1     -20.411  -9.159  -6.141  0.00  0.00     0.275 HD
HETATM   16  H           1     -21.910  -9.016  -5.340  0.00  0.00     0.275 HD
HETATM   17  H           1     -21.481  -7.895  -6.554  0.00  0.00     0.275 HD
ENDBRANCH   5  14
ENDBRANCH   3   5
BRANCH   2  18
HETATM   18  C           1     -21.055  -9.235  -1.312  0.00  0.00     0.194 C 
BRANCH  18  19
HETATM   19  C           1     -21.209  -8.318  -0.107  0.00  0.00     0.138 C 
BRANCH  19  20
HETATM   20  C           1     -22.538  -7.607  -0.181  0.00  0.00     0.217 C 
HETATM   21  N           1     -23.583  -8.026   0.599  0.00  0.00    -0.370 N 
HETATM   22  H           1     -23.464  -8.813   1.223  0.00  0.00     0.159 HD
HETATM   23  H           1     -24.474  -7.549   0.549  0.00  0.00     0.159 HD
HETATM   24  O           1     -22.681  -6.668  -0.927  0.00  0.00    -0.274 OA
ENDBRANCH  19  20
ENDBRANCH  18  19
BRANCH  18  25
HETATM   25  C           1     -22.076 -10.344  -1.234  0.00  0.00     0.197 C 
HETATM   26  O           1     -22.285 -10.925  -0.147  0.00  0.00    -0.646 OA
HETATM   27  O           1     -22.713 -10.680  -2.256  0.00  0.00    -0.646 OA
ENDBRANCH  18  25
ENDBRANCH   2  18
TORSDOF 8
ENDMDL
MODEL 8
REMARK VINA RESULT:      -5.9     14.722     16.599
REMARK  8 active torsions:
REMARK  status: ('A' for Active; 'I' for Inactive)
REMARK       I    between atoms: N_2  and  C_5 
REMARK    1  A    between atoms: C_5  and  C_12 
REMARK    2  A    between atoms: C_9  and  C_12 
REMARK    3  A    between atoms: C_9  and  C_10 
REMARK    4  A    between atoms: C_9  and  N_13 
REMARK       I    between atoms: N_13  and  C_14 
REMARK    5  A    between atoms: C_14  and  C_15 
REMARK    6  A    between atoms: C_15  and  C_16 
REMARK    7  A    between atoms: C_15  and  N_19 
REMARK    8  A    between atoms: C_16  and  C_17 
ROOT
HETATM    1  H           1     -22.526  -7.520  -3.190  0.00  0.00     0.163 HD
HETATM    2  N           1     -21.580  -7.816  -3.396  0.00  0.00    -0.344 N 
HETATM    3  C           1     -20.979  -7.422  -4.561  0.00  0.00     0.249 C 
HETATM    4  O           1     -19.851  -7.775  -4.808  0.00  0.00    -0.271 OA
ENDROOT
BRANCH   3   5
HETATM    5  C           1     -21.726  -6.546  -5.537  0.00  0.00     0.280 C 
BRANCH   5   6
HETATM    6  C           1     -20.922  -5.280  -5.803  0.00  0.00     0.101 C 
BRANCH   6   7
HETATM    7  C           1     -21.265  -4.747  -7.159  0.00  0.00     0.028 A 
HETATM    8  C           1     -20.560  -5.018  -8.307  0.00  0.00     0.114 A 
HETATM    9  N           1     -21.214  -4.337  -9.295  0.00  0.00    -0.360 N 
HETATM   10  C           1     -22.270  -3.691  -8.718  0.00  0.00     0.180 A 
HETATM   11  H           1     -20.952  -4.314 -10.312  0.00  0.00     0.166 HD
HETATM   12  N           1     -22.327  -3.921  -7.427  0.00  0.00    -0.355 N 
ATOM     13  HN          1     -23.014  -3.561  -6.764  1.00  0.00     0.166 HD
ENDBRANCH   6   7
ENDBRANCH   5   6
BRANCH   5  14
HETATM   14  N           1     -23.060  -6.178  -4.959  0.00  0.00    -0.066 N 
HETATM   15  H           1     -23.081  -6.426  -3.944  0.00  0.00     0.275 HD
HETATM   16  H           1     -23.216  -5.151  -5.069  0.00  0.00     0.275 HD
HETATM   17  H           1     -23.814  -6.701  -5.461  0.00  0.00     0.275 HD
ENDBRANCH   5  14
ENDBRANCH   3   5
BRANCH   2  18
HETATM   18  C           1     -20.862  -8.657  -2.458  0.00  0.00     0.194 C 
BRANCH  18  19
HETATM   19  C           1     -20.799  -7.968  -1.102  0.00  0.00     0.138 C 
BRANCH  19  20
HETATM   20  C           1     -22.171  -7.458  -0.732  0.00  0.00     0.217 C 
HETATM   21  N           1     -22.961  -8.181   0.121  0.00  0.00    -0.370 N 
HETATM   22  H           1     -22.626  -9.057   0.501  0.00  0.00     0.159 HD
HETATM   23  H           1     -23.881  -7.840   0.370  0.00  0.00     0.159 HD
HETATM   24  O           1     -22.570  -6.414  -1.186  0.00  0.00    -0.274 OA
ENDBRANCH  19  20
ENDBRANCH  18  19
BRANCH  18  25
HETATM   25  C           1     -21.580  -9.978  -2.318  0.00  0.00     0.197 C 
HETATM   26  O           1     -21.419 -10.669  -1.289  0.00  0.00    -0.646 OA
HETATM   27  O           1     -22.334 -10.380  -3.230  0.00  0.00    -0.646 OA
ENDBRANCH  18  25
ENDBRANCH   2  18
TORSDOF 8
ENDMDL
MODEL 9
REMARK VINA RESULT:      -5.8      1.684      2.886
REMARK  8 active torsions:
REMARK  status: ('A' for Active; 'I' for Inactive)
REMARK       I    between atoms: N_2  and  C_5 
REMARK    1  A    between atoms: C_5  and  C_12 
REMARK    2  A    between atoms: C_9  and  C_12 
REMARK    3  A    between atoms: C_9  and  C_10 
REMARK    4  A    between atoms: C_9  and  N_13 
REMARK       I    between atoms: N_13  and  C_14 
REMARK    5  A    between atoms: C_14  and  C_15 
REMARK    6  A    between atoms: C_15  and  C_16 
REMARK    7  A    between atoms: C_15  and  N_19 
REMARK    8  A    between atoms: C_16  and  C_17 
ROOT
HETATM    1  H           1     -25.935  -5.309 -17.457  0.00  0.00     0.163 HD
HETATM    2  N           1     -26.410  -5.978 -18.049  0.00  0.00    -0.344 N 
HETATM    3  C           1     -27.767  -5.903 -18.215  0.00  0.00     0.249 C 
HETATM    4  O           1     -28.335  -6.701 -18.922  0.00  0.00    -0.271 OA
ENDROOT
BRANCH   3   5
HETATM    5  C           1     -28.554  -4.820 -17.517  0.00  0.00     0.280 C 
BRANCH   5   6
HETATM    6  C           1     -29.269  -5.411 -16.309  0.00  0.00     0.101 C 
BRANCH   6   7
HETATM    7  C           1     -30.742  -5.452 -16.572  0.00  0.00     0.028 A 
HETATM    8  C           1     -31.400  -6.502 -17.167  0.00  0.00     0.114 A 
HETATM    9  N           1     -32.713  -6.121 -17.207  0.00  0.00    -0.360 N 
HETATM   10  C           1     -32.796  -4.878 -16.646  0.00  0.00     0.180 A 
HETATM   11  H           1     -33.510  -6.680 -17.599  0.00  0.00     0.166 HD
HETATM   12  N           1     -31.620  -4.448 -16.252  0.00  0.00    -0.355 N 
ATOM     13  HN          1     -31.406  -3.558 -15.804  1.00  0.00     0.166 HD
ENDBRANCH   6   7
ENDBRANCH   5   6
BRANCH   5  14
HETATM   14  N           1     -29.565  -4.247 -18.465  0.00  0.00    -0.066 N 
HETATM   15  H           1     -29.926  -3.343 -18.086  0.00  0.00     0.275 HD
HETATM   16  H           1     -29.116  -4.080 -19.393  0.00  0.00     0.275 HD
HETATM   17  H           1     -30.358  -4.919 -18.576  0.00  0.00     0.275 HD
ENDBRANCH   5  14
ENDBRANCH   3   5
BRANCH   2  18
HETATM   18  C           1     -25.655  -7.019 -18.721  0.00  0.00     0.194 C 
BRANCH  18  19
HETATM   19  C           1     -25.468  -6.645 -20.185  0.00  0.00     0.138 C 
BRANCH  19  20
HETATM   20  C           1     -25.751  -7.848 -21.052  0.00  0.00     0.217 C 
HETATM   21  N           1     -26.975  -8.459 -20.993  0.00  0.00    -0.370 N 
HETATM   22  H           1     -27.688  -8.106 -20.368  0.00  0.00     0.159 HD
HETATM   23  H           1     -27.166  -9.265 -21.574  0.00  0.00     0.159 HD
HETATM   24  O           1     -24.900  -8.270 -21.797  0.00  0.00    -0.274 OA
ENDBRANCH  19  20
ENDBRANCH  18  19
BRANCH  18  25
HETATM   25  C           1     -24.305  -7.163 -18.062  0.00  0.00     0.197 C 
HETATM   26  O           1     -23.269  -6.849 -18.686  0.00  0.00    -0.646 OA
HETATM   27  O           1     -24.223  -7.596 -16.892  0.00  0.00    -0.646 OA
ENDBRANCH  18  25
ENDBRANCH   2  18
TORSDOF 8
ENDMDL
