MODEL 1
REMARK VINA RESULT:      -6.4      0.000      0.000
REMARK  12 active torsions:
REMARK  status: ('A' for Active; 'I' for Inactive)
REMARK    1  A    between atoms: C_1  and  C_20 
REMARK    2  A    between atoms: C_1  and  C_2 
REMARK    3  A    between atoms: C_2  and  C_3 
REMARK    4  A    between atoms: C_3  and  C_4 
REMARK    5  A    between atoms: C_3  and  N_7 
REMARK       I    between atoms: N_7  and  C_8 
REMARK    6  A    between atoms: C_8  and  C_9 
REMARK    7  A    between atoms: C_9  and  C_10 
REMARK    8  A    between atoms: C_9  and  N_23 
REMARK    9  A    between atoms: C_10  and  O_11 
REMARK   10  A    between atoms: O_11  and  P_12 
REMARK   11  A    between atoms: P_12  and  O_13 
REMARK   12  A    between atoms: N_19  and  C_20 
ROOT
HETATM    1  N           1     -35.809  -3.215 -10.936  0.00  0.00    -0.345 N 
HETATM    2  C           1     -35.501  -1.932 -10.574  0.00  0.00     0.251 C 
HETATM    3  H           1     -36.773  -3.481 -11.089  0.00  0.00     0.163 HD
HETATM    4  O           1     -34.349  -1.616 -10.392  0.00  0.00    -0.271 OA
ENDROOT
BRANCH   2   5
HETATM    5  C           1     -36.600  -0.912 -10.404  0.00  0.00     0.298 C 
BRANCH   5   6
HETATM    6  C           1     -36.785  -0.143 -11.705  0.00  0.00     0.224 C 
BRANCH   6   7
HETATM    7  O           1     -36.639  -1.018 -12.791  0.00  0.00    -0.287 OA
BRANCH   7   8
HETATM    8  P           1     -35.769  -0.464 -14.034  0.00  0.00     0.406 P 
HETATM    9  O           1     -34.723   0.456 -13.533  0.00  0.00    -0.624 OA
HETATM   10  O           1     -36.655   0.259 -14.973  0.00  0.00    -0.624 OA
BRANCH   8  11
HETATM   11  O           1     -35.072  -1.704 -14.799  0.00  0.00    -0.300 OA
HETATM   12  H           1     -35.447  -1.699 -15.664  0.00  0.00     0.223 HD
ENDBRANCH   8  11
ENDBRANCH   7   8
ENDBRANCH   6   7
ENDBRANCH   5   6
BRANCH   5  13
HETATM   13  N           1     -36.229   0.043  -9.309  0.00  0.00    -0.064 N 
HETATM   14  H           1     -35.587  -0.430  -8.635  0.00  0.00     0.275 HD
HETATM   15  H           1     -35.748   0.875  -9.721  0.00  0.00     0.275 HD
HETATM   16  H           1     -37.093   0.353  -8.809  0.00  0.00     0.275 HD
ENDBRANCH   5  13
ENDBRANCH   2   5
BRANCH   1  17
HETATM   17  C           1     -34.753  -4.196 -11.100  0.00  0.00     0.185 C 
BRANCH  17  18
HETATM   18  C           1     -35.169  -5.505 -10.443  0.00  0.00     0.038 C 
BRANCH  18  19
HETATM   19  C           1     -34.030  -6.510 -10.545  0.00  0.00     0.030 C 
BRANCH  19  20
HETATM   20  C           1     -34.532  -7.890 -10.138  0.00  0.00     0.230 C 
BRANCH  20  21
HETATM   21  N           1     -33.428  -8.892 -10.297  0.00  0.00    -0.079 N 
HETATM   22  H           1     -33.837  -9.834 -10.490  0.00  0.00     0.274 HD
HETATM   23  H           1     -32.813  -8.610 -11.094  0.00  0.00     0.274 HD
HETATM   24  H           1     -32.864  -8.931  -9.418  0.00  0.00     0.274 HD
ENDBRANCH  20  21
ENDBRANCH  19  20
ENDBRANCH  18  19
ENDBRANCH  17  18
BRANCH  17  25
HETATM   25  C           1     -34.506  -4.426 -12.571  0.00  0.00     0.196 C 
HETATM   26  O           1     -35.169  -5.287 -13.188  0.00  0.00    -0.646 OA
HETATM   27  O           1     -33.638  -3.756 -13.171  0.00  0.00    -0.646 OA
ENDBRANCH  17  25
ENDBRANCH   1  17
TORSDOF 12
ENDMDL
MODEL 2
REMARK VINA RESULT:      -6.1      9.463     11.516
REMARK  12 active torsions:
REMARK  status: ('A' for Active; 'I' for Inactive)
REMARK    1  A    between atoms: C_1  and  C_20 
REMARK    2  A    between atoms: C_1  and  C_2 
REMARK    3  A    between atoms: C_2  and  C_3 
REMARK    4  A    between atoms: C_3  and  C_4 
REMARK    5  A    between atoms: C_3  and  N_7 
REMARK       I    between atoms: N_7  and  C_8 
REMARK    6  A    between atoms: C_8  and  C_9 
REMARK    7  A    between atoms: C_9  and  C_10 
REMARK    8  A    between atoms: C_9  and  N_23 
REMARK    9  A    between atoms: C_10  and  O_11 
REMARK   10  A    between atoms: O_11  and  P_12 
REMARK   11  A    between atoms: P_12  and  O_13 
REMARK   12  A    between atoms: N_19  and  C_20 
ROOT
HETATM    1  N           1     -27.629  -6.400 -17.593  0.00  0.00    -0.345 N 
HETATM    2  C           1     -26.760  -5.949 -16.637  0.00  0.00     0.251 C 
HETATM    3  H           1     -27.290  -6.970 -18.357  0.00  0.00     0.163 HD
HETATM    4  O           1     -27.165  -5.269 -15.724  0.00  0.00    -0.271 OA
ENDROOT
BRANCH   2   5
HETATM    5  C           1     -25.295  -6.301 -16.724  0.00  0.00     0.298 C 
BRANCH   5   6
HETATM    6  C           1     -25.065  -7.232 -17.907  0.00  0.00     0.224 C 
BRANCH   6   7
HETATM    7  O           1     -24.721  -6.478 -19.037  0.00  0.00    -0.287 OA
BRANCH   7   8
HETATM    8  P           1     -25.304  -7.008 -20.447  0.00  0.00     0.406 P 
HETATM    9  O           1     -24.493  -8.154 -20.916  0.00  0.00    -0.624 OA
HETATM   10  O           1     -25.246  -5.918 -21.447  0.00  0.00    -0.624 OA
BRANCH   8  11
HETATM   11  O           1     -26.837  -7.479 -20.254  0.00  0.00    -0.300 OA
HETATM   12  H           1     -27.354  -6.789 -20.635  0.00  0.00     0.223 HD
ENDBRANCH   8  11
ENDBRANCH   7   8
ENDBRANCH   6   7
ENDBRANCH   5   6
BRANCH   5  13
HETATM   13  N           1     -24.870  -6.986 -15.460  0.00  0.00    -0.064 N 
HETATM   14  H           1     -25.288  -7.942 -15.423  0.00  0.00     0.275 HD
HETATM   15  H           1     -23.827  -7.062 -15.439  0.00  0.00     0.275 HD
HETATM   16  H           1     -25.194  -6.431 -14.636  0.00  0.00     0.275 HD
ENDBRANCH   5  13
ENDBRANCH   2   5
BRANCH   1  17
HETATM   17  C           1     -29.037  -6.063 -17.509  0.00  0.00     0.185 C 
BRANCH  17  18
HETATM   18  C           1     -29.322  -4.854 -18.391  0.00  0.00     0.038 C 
BRANCH  18  19
HETATM   19  C           1     -29.864  -3.717 -17.536  0.00  0.00     0.030 C 
BRANCH  19  20
HETATM   20  C           1     -31.387  -3.732 -17.577  0.00  0.00     0.230 C 
BRANCH  20  21
HETATM   21  N           1     -31.913  -4.500 -16.401  0.00  0.00    -0.079 N 
HETATM   22  H           1     -32.554  -5.254 -16.735  0.00  0.00     0.274 HD
HETATM   23  H           1     -31.114  -4.928 -15.880  0.00  0.00     0.274 HD
HETATM   24  H           1     -32.435  -3.853 -15.769  0.00  0.00     0.274 HD
ENDBRANCH  20  21
ENDBRANCH  19  20
ENDBRANCH  18  19
ENDBRANCH  17  18
BRANCH  17  25
HETATM   25  C           1     -29.863  -7.235 -17.978  0.00  0.00     0.196 C 
HETATM   26  O           1     -31.072  -7.309 -17.672  0.00  0.00    -0.646 OA
HETATM   27  O           1     -29.337  -8.132 -18.672  0.00  0.00    -0.646 OA
ENDBRANCH  17  25
ENDBRANCH   1  17
TORSDOF 12
ENDMDL
MODEL 3
REMARK VINA RESULT:      -5.9      9.849     11.943
REMARK  12 active torsions:
REMARK  status: ('A' for Active; 'I' for Inactive)
REMARK    1  A    between atoms: C_1  and  C_20 
REMARK    2  A    between atoms: C_1  and  C_2 
REMARK    3  A    between atoms: C_2  and  C_3 
REMARK    4  A    between atoms: C_3  and  C_4 
REMARK    5  A    between atoms: C_3  and  N_7 
REMARK       I    between atoms: N_7  and  C_8 
REMARK    6  A    between atoms: C_8  and  C_9 
REMARK    7  A    between atoms: C_9  and  C_10 
REMARK    8  A    between atoms: C_9  and  N_23 
REMARK    9  A    between atoms: C_10  and  O_11 
REMARK   10  A    between atoms: O_11  and  P_12 
REMARK   11  A    between atoms: P_12  and  O_13 
REMARK   12  A    between atoms: N_19  and  C_20 
ROOT
HETATM    1  N           1     -26.487  -6.601 -17.087  0.00  0.00    -0.345 N 
HETATM    2  C           1     -25.225  -6.404 -16.596  0.00  0.00     0.251 C 
HETATM    3  H           1     -26.636  -7.239 -17.859  0.00  0.00     0.163 HD
HETATM    4  O           1     -25.047  -5.643 -15.675  0.00  0.00    -0.271 OA
ENDROOT
BRANCH   2   5
HETATM    5  C           1     -24.056  -7.139 -17.204  0.00  0.00     0.298 C 
BRANCH   5   6
HETATM    6  C           1     -24.403  -7.557 -18.627  0.00  0.00     0.224 C 
BRANCH   6   7
HETATM    7  O           1     -24.585  -6.414 -19.419  0.00  0.00    -0.287 OA
BRANCH   7   8
HETATM    8  P           1     -25.517  -6.599 -20.726  0.00  0.00     0.406 P 
HETATM    9  O           1     -26.938  -6.648 -20.315  0.00  0.00    -0.624 OA
HETATM   10  O           1     -25.156  -7.859 -21.414  0.00  0.00    -0.624 OA
BRANCH   8  11
HETATM   11  O           1     -25.290  -5.354 -21.729  0.00  0.00    -0.300 OA
HETATM   12  H           1     -24.383  -5.120 -21.626  0.00  0.00     0.223 HD
ENDBRANCH   8  11
ENDBRANCH   7   8
ENDBRANCH   6   7
ENDBRANCH   5   6
BRANCH   5  13
HETATM   13  N           1     -23.753  -8.360 -16.387  0.00  0.00    -0.064 N 
HETATM   14  H           1     -23.767  -9.204 -17.001  0.00  0.00     0.275 HD
HETATM   15  H           1     -22.806  -8.261 -15.953  0.00  0.00     0.275 HD
HETATM   16  H           1     -24.471  -8.463 -15.635  0.00  0.00     0.275 HD
ENDBRANCH   5  13
ENDBRANCH   2   5
BRANCH   1  17
HETATM   17  C           1     -27.611  -5.895 -16.503  0.00  0.00     0.185 C 
BRANCH  17  18
HETATM   18  C           1     -28.688  -5.692 -17.560  0.00  0.00     0.038 C 
BRANCH  18  19
HETATM   19  C           1     -29.082  -4.222 -17.609  0.00  0.00     0.030 C 
BRANCH  19  20
HETATM   20  C           1     -30.600  -4.101 -17.552  0.00  0.00     0.230 C 
BRANCH  20  21
HETATM   21  N           1     -31.135  -5.014 -16.489  0.00  0.00    -0.079 N 
HETATM   22  H           1     -31.202  -5.987 -16.865  0.00  0.00     0.274 HD
HETATM   23  H           1     -30.492  -5.004 -15.665  0.00  0.00     0.274 HD
HETATM   24  H           1     -32.083  -4.688 -16.195  0.00  0.00     0.274 HD
ENDBRANCH  20  21
ENDBRANCH  19  20
ENDBRANCH  18  19
ENDBRANCH  17  18
BRANCH  17  25
HETATM   25  C           1     -28.172  -6.704 -15.359  0.00  0.00     0.196 C 
HETATM   26  O           1     -27.677  -7.816 -15.078  0.00  0.00    -0.646 OA
HETATM   27  O           1     -29.133  -6.260 -14.693  0.00  0.00    -0.646 OA
ENDBRANCH  17  25
ENDBRANCH   1  17
TORSDOF 12
ENDMDL
MODEL 4
REMARK VINA RESULT:      -5.8     13.591     14.987
REMARK  12 active torsions:
REMARK  status: ('A' for Active; 'I' for Inactive)
REMARK    1  A    between atoms: C_1  and  C_20 
REMARK    2  A    between atoms: C_1  and  C_2 
REMARK    3  A    between atoms: C_2  and  C_3 
REMARK    4  A    between atoms: C_3  and  C_4 
REMARK    5  A    between atoms: C_3  and  N_7 
REMARK       I    between atoms: N_7  and  C_8 
REMARK    6  A    between atoms: C_8  and  C_9 
REMARK    7  A    between atoms: C_9  and  C_10 
REMARK    8  A    between atoms: C_9  and  N_23 
REMARK    9  A    between atoms: C_10  and  O_11 
REMARK   10  A    between atoms: O_11  and  P_12 
REMARK   11  A    between atoms: P_12  and  O_13 
REMARK   12  A    between atoms: N_19  and  C_20 
ROOT
HETATM    1  N           1     -21.653  -5.738  -5.896  0.00  0.00    -0.345 N 
HETATM    2  C           1     -20.923  -4.719  -6.445  0.00  0.00     0.251 C 
HETATM    3  H           1     -22.538  -6.005  -6.308  0.00  0.00     0.163 HD
HETATM    4  O           1     -19.866  -4.400  -5.954  0.00  0.00    -0.271 OA
ENDROOT
BRANCH   2   5
HETATM    5  C           1     -21.437  -3.994  -7.665  0.00  0.00     0.298 C 
BRANCH   5   6
HETATM    6  C           1     -22.834  -4.499  -8.004  0.00  0.00     0.224 C 
BRANCH   6   7
HETATM    7  O           1     -23.524  -3.516  -8.726  0.00  0.00    -0.287 OA
BRANCH   7   8
HETATM    8  P           1     -23.784  -3.836 -10.288  0.00  0.00     0.406 P 
HETATM    9  O           1     -25.033  -3.173 -10.725  0.00  0.00    -0.624 OA
HETATM   10  O           1     -23.907  -5.298 -10.478  0.00  0.00    -0.624 OA
BRANCH   8  11
HETATM   11  O           1     -22.546  -3.281 -11.165  0.00  0.00    -0.300 OA
HETATM   12  H           1     -22.160  -4.049 -11.552  0.00  0.00     0.223 HD
ENDBRANCH   8  11
ENDBRANCH   7   8
ENDBRANCH   6   7
ENDBRANCH   5   6
BRANCH   5  13
HETATM   13  N           1     -20.519  -4.251  -8.822  0.00  0.00    -0.064 N 
HETATM   14  H           1     -20.229  -3.342  -9.247  0.00  0.00     0.275 HD
HETATM   15  H           1     -19.672  -4.764  -8.487  0.00  0.00     0.275 HD
HETATM   16  H           1     -21.014  -4.828  -9.539  0.00  0.00     0.275 HD
ENDBRANCH   5  13
ENDBRANCH   2   5
BRANCH   1  17
HETATM   17  C           1     -21.159  -6.434  -4.724  0.00  0.00     0.185 C 
BRANCH  17  18
HETATM   18  C           1     -22.296  -6.622  -3.729  0.00  0.00     0.038 C 
BRANCH  18  19
HETATM   19  C           1     -21.839  -6.180  -2.345  0.00  0.00     0.030 C 
BRANCH  19  20
HETATM   20  C           1     -21.793  -7.386  -1.416  0.00  0.00     0.230 C 
BRANCH  20  21
HETATM   21  N           1     -20.441  -8.030  -1.496  0.00  0.00    -0.079 N 
HETATM   22  H           1     -20.237  -8.291  -2.487  0.00  0.00     0.274 HD
HETATM   23  H           1     -19.715  -7.359  -1.156  0.00  0.00     0.274 HD
HETATM   24  H           1     -20.428  -8.888  -0.900  0.00  0.00     0.274 HD
ENDBRANCH  20  21
ENDBRANCH  19  20
ENDBRANCH  18  19
ENDBRANCH  17  18
BRANCH  17  25
HETATM   25  C           1     -20.618  -7.783  -5.133  0.00  0.00     0.196 C 
HETATM   26  O           1     -19.648  -8.278  -4.520  0.00  0.00    -0.646 OA
HETATM   27  O           1     -21.141  -8.403  -6.084  0.00  0.00    -0.646 OA
ENDBRANCH  17  25
ENDBRANCH   1  17
TORSDOF 12
ENDMDL
MODEL 5
REMARK VINA RESULT:      -5.7      2.422      5.543
REMARK  12 active torsions:
REMARK  status: ('A' for Active; 'I' for Inactive)
REMARK    1  A    between atoms: C_1  and  C_20 
REMARK    2  A    between atoms: C_1  and  C_2 
REMARK    3  A    between atoms: C_2  and  C_3 
REMARK    4  A    between atoms: C_3  and  C_4 
REMARK    5  A    between atoms: C_3  and  N_7 
REMARK       I    between atoms: N_7  and  C_8 
REMARK    6  A    between atoms: C_8  and  C_9 
REMARK    7  A    between atoms: C_9  and  C_10 
REMARK    8  A    between atoms: C_9  and  N_23 
REMARK    9  A    between atoms: C_10  and  O_11 
REMARK   10  A    between atoms: O_11  and  P_12 
REMARK   11  A    between atoms: P_12  and  O_13 
REMARK   12  A    between atoms: N_19  and  C_20 
ROOT
HETATM    1  N           1     -35.289  -1.541 -12.012  0.00  0.00    -0.345 N 
HETATM    2  C           1     -35.133  -2.806 -11.513  0.00  0.00     0.251 C 
HETATM    3  H           1     -34.503  -1.060 -12.428  0.00  0.00     0.163 HD
HETATM    4  O           1     -36.072  -3.380 -11.015  0.00  0.00    -0.271 OA
ENDROOT
BRANCH   2   5
HETATM    5  C           1     -33.787  -3.484 -11.585  0.00  0.00     0.298 C 
BRANCH   5   6
HETATM    6  C           1     -33.612  -4.121 -12.957  0.00  0.00     0.224 C 
BRANCH   6   7
HETATM    7  O           1     -34.338  -3.391 -13.908  0.00  0.00    -0.287 OA
BRANCH   7   8
HETATM    8  P           1     -34.239  -3.917 -15.433  0.00  0.00     0.406 P 
HETATM    9  O           1     -32.819  -4.141 -15.785  0.00  0.00    -0.624 OA
HETATM   10  O           1     -34.822  -2.906 -16.343  0.00  0.00    -0.624 OA
BRANCH   8  11
HETATM   11  O           1     -35.053  -5.305 -15.578  0.00  0.00    -0.300 OA
HETATM   12  H           1     -35.095  -5.655 -14.704  0.00  0.00     0.223 HD
ENDBRANCH   8  11
ENDBRANCH   7   8
ENDBRANCH   6   7
ENDBRANCH   5   6
BRANCH   5  13
HETATM   13  N           1     -33.704  -4.544 -10.528  0.00  0.00    -0.064 N 
HETATM   14  H           1     -32.746  -4.549 -10.112  0.00  0.00     0.275 HD
HETATM   15  H           1     -34.407  -4.346  -9.780  0.00  0.00     0.275 HD
HETATM   16  H           1     -33.903  -5.477 -10.954  0.00  0.00     0.275 HD
ENDBRANCH   5  13
ENDBRANCH   2   5
BRANCH   1  17
HETATM   17  C           1     -36.583  -0.889 -11.942  0.00  0.00     0.185 C 
BRANCH  17  18
HETATM   18  C           1     -36.535   0.224 -10.905  0.00  0.00     0.038 C 
BRANCH  18  19
HETATM   19  C           1     -37.886   0.329 -10.209  0.00  0.00     0.030 C 
BRANCH  19  20
HETATM   20  C           1     -37.765   1.251  -9.002  0.00  0.00     0.230 C 
BRANCH  20  21
HETATM   21  N           1     -36.318   1.432  -8.653  0.00  0.00    -0.079 N 
HETATM   22  H           1     -36.141   1.064  -7.692  0.00  0.00     0.274 HD
HETATM   23  H           1     -35.726   0.911  -9.340  0.00  0.00     0.274 HD
HETATM   24  H           1     -36.076   2.449  -8.687  0.00  0.00     0.274 HD
ENDBRANCH  20  21
ENDBRANCH  19  20
ENDBRANCH  18  19
ENDBRANCH  17  18
BRANCH  17  25
HETATM   25  C           1     -36.925  -0.306 -13.292  0.00  0.00     0.196 C 
HETATM   26  O           1     -36.157   0.521 -13.827  0.00  0.00    -0.646 OA
HETATM   27  O           1     -37.976  -0.653 -13.873  0.00  0.00    -0.646 OA
ENDBRANCH  17  25
ENDBRANCH   1  17
TORSDOF 12
ENDMDL
MODEL 6
REMARK VINA RESULT:      -5.4     13.961     15.572
REMARK  12 active torsions:
REMARK  status: ('A' for Active; 'I' for Inactive)
REMARK    1  A    between atoms: C_1  and  C_20 
REMARK    2  A    between atoms: C_1  and  C_2 
REMARK    3  A    between atoms: C_2  and  C_3 
REMARK    4  A    between atoms: C_3  and  C_4 
REMARK    5  A    between atoms: C_3  and  N_7 
REMARK       I    between atoms: N_7  and  C_8 
REMARK    6  A    between atoms: C_8  and  C_9 
REMARK    7  A    between atoms: C_9  and  C_10 
REMARK    8  A    between atoms: C_9  and  N_23 
REMARK    9  A    between atoms: C_10  and  O_11 
REMARK   10  A    between atoms: O_11  and  P_12 
REMARK   11  A    between atoms: P_12  and  O_13 
REMARK   12  A    between atoms: N_19  and  C_20 
ROOT
HETATM    1  N           1     -20.966  -6.641  -4.941  0.00  0.00    -0.345 N 
HETATM    2  C           1     -21.704  -5.816  -5.746  0.00  0.00     0.251 C 
HETATM    3  H           1     -19.958  -6.663  -5.027  0.00  0.00     0.163 HD
HETATM    4  O           1     -22.907  -5.791  -5.644  0.00  0.00    -0.271 OA
ENDROOT
BRANCH   2   5
HETATM    5  C           1     -21.013  -4.939  -6.762  0.00  0.00     0.298 C 
BRANCH   5   6
HETATM    6  C           1     -22.056  -4.154  -7.547  0.00  0.00     0.224 C 
BRANCH   6   7
HETATM    7  O           1     -22.065  -4.590  -8.879  0.00  0.00    -0.287 OA
BRANCH   7   8
HETATM    8  P           1     -23.333  -4.129  -9.767  0.00  0.00     0.406 P 
HETATM    9  O           1     -23.921  -5.310 -10.438  0.00  0.00    -0.624 OA
HETATM   10  O           1     -22.892  -3.150 -10.786  0.00  0.00    -0.624 OA
BRANCH   8  11
HETATM   11  O           1     -24.442  -3.448  -8.810  0.00  0.00    -0.300 OA
HETATM   12  H           1     -25.256  -3.541  -9.276  0.00  0.00     0.223 HD
ENDBRANCH   8  11
ENDBRANCH   7   8
ENDBRANCH   6   7
ENDBRANCH   5   6
BRANCH   5  13
HETATM   13  N           1     -20.219  -5.793  -7.704  0.00  0.00    -0.064 N 
HETATM   14  H           1     -20.358  -6.800  -7.464  0.00  0.00     0.275 HD
HETATM   15  H           1     -20.541  -5.622  -8.684  0.00  0.00     0.275 HD
HETATM   16  H           1     -19.206  -5.553  -7.623  0.00  0.00     0.275 HD
ENDBRANCH   5  13
ENDBRANCH   2   5
BRANCH   1  17
HETATM   17  C           1     -21.629  -7.485  -3.966  0.00  0.00     0.185 C 
BRANCH  17  18
HETATM   18  C           1     -20.963  -8.854  -3.943  0.00  0.00     0.038 C 
BRANCH  18  19
HETATM   19  C           1     -19.781  -8.861  -4.903  0.00  0.00     0.030 C 
BRANCH  19  20
HETATM   20  C           1     -18.568  -9.470  -4.211  0.00  0.00     0.230 C 
BRANCH  20  21
HETATM   21  N           1     -18.645  -9.201  -2.737  0.00  0.00    -0.079 N 
HETATM   22  H           1     -19.534  -8.697  -2.520  0.00  0.00     0.274 HD
HETATM   23  H           1     -18.623 -10.106  -2.216  0.00  0.00     0.274 HD
HETATM   24  H           1     -17.831  -8.612  -2.448  0.00  0.00     0.274 HD
ENDBRANCH  20  21
ENDBRANCH  19  20
ENDBRANCH  18  19
ENDBRANCH  17  18
BRANCH  17  25
HETATM   25  C           1     -21.524  -6.850  -2.600  0.00  0.00     0.196 C 
HETATM   26  O           1     -22.239  -5.866  -2.312  0.00  0.00    -0.646 OA
HETATM   27  O           1     -20.723  -7.310  -1.758  0.00  0.00    -0.646 OA
ENDBRANCH  17  25
ENDBRANCH   1  17
TORSDOF 12
ENDMDL
MODEL 7
REMARK VINA RESULT:      -5.3     13.367     15.090
REMARK  12 active torsions:
REMARK  status: ('A' for Active; 'I' for Inactive)
REMARK    1  A    between atoms: C_1  and  C_20 
REMARK    2  A    between atoms: C_1  and  C_2 
REMARK    3  A    between atoms: C_2  and  C_3 
REMARK    4  A    between atoms: C_3  and  C_4 
REMARK    5  A    between atoms: C_3  and  N_7 
REMARK       I    between atoms: N_7  and  C_8 
REMARK    6  A    between atoms: C_8  and  C_9 
REMARK    7  A    between atoms: C_9  and  C_10 
REMARK    8  A    between atoms: C_9  and  N_23 
REMARK    9  A    between atoms: C_10  and  O_11 
REMARK   10  A    between atoms: O_11  and  P_12 
REMARK   11  A    between atoms: P_12  and  O_13 
REMARK   12  A    between atoms: N_19  and  C_20 
ROOT
HETATM    1  N           1     -23.052  -4.467  -8.737  0.00  0.00    -0.345 N 
HETATM    2  C           1     -21.918  -4.266  -7.999  0.00  0.00     0.251 C 
HETATM    3  H           1     -23.776  -5.085  -8.395  0.00  0.00     0.163 HD
HETATM    4  O           1     -21.053  -3.527  -8.408  0.00  0.00    -0.271 OA
ENDROOT
BRANCH   2   5
HETATM    5  C           1     -21.747  -4.966  -6.673  0.00  0.00     0.298 C 
BRANCH   5   6
HETATM    6  C           1     -20.948  -6.248  -6.875  0.00  0.00     0.224 C 
BRANCH   6   7
HETATM    7  O           1     -20.259  -6.560  -5.695  0.00  0.00    -0.287 OA
BRANCH   7   8
HETATM    8  P           1     -20.760  -7.880  -4.910  0.00  0.00     0.406 P 
HETATM    9  O           1     -21.138  -8.923  -5.891  0.00  0.00    -0.624 OA
HETATM   10  O           1     -21.932  -7.541  -4.073  0.00  0.00    -0.624 OA
BRANCH   8  11
HETATM   11  O           1     -19.568  -8.433  -3.970  0.00  0.00    -0.300 OA
HETATM   12  H           1     -19.379  -7.726  -3.377  0.00  0.00     0.223 HD
ENDBRANCH   8  11
ENDBRANCH   7   8
ENDBRANCH   6   7
ENDBRANCH   5   6
BRANCH   5  13
HETATM   13  N           1     -23.095  -5.302  -6.109  0.00  0.00    -0.064 N 
HETATM   14  H           1     -23.647  -4.426  -5.976  0.00  0.00     0.275 HD
HETATM   15  H           1     -23.601  -5.935  -6.770  0.00  0.00     0.275 HD
HETATM   16  H           1     -22.977  -5.783  -5.188  0.00  0.00     0.275 HD
ENDBRANCH   5  13
ENDBRANCH   2   5
BRANCH   1  17
HETATM   17  C           1     -23.217  -3.794 -10.011  0.00  0.00     0.185 C 
BRANCH  17  18
HETATM   18  C           1     -22.966  -4.781 -11.143  0.00  0.00     0.038 C 
BRANCH  18  19
HETATM   19  C           1     -21.716  -4.369 -11.910  0.00  0.00     0.030 C 
BRANCH  19  20
HETATM   20  C           1     -21.467  -2.879 -11.711  0.00  0.00     0.230 C 
BRANCH  20  21
HETATM   21  N           1     -20.063  -2.666 -11.227  0.00  0.00    -0.079 N 
HETATM   22  H           1     -19.592  -3.591 -11.106  0.00  0.00     0.274 HD
HETATM   23  H           1     -19.536  -2.096 -11.926  0.00  0.00     0.274 HD
HETATM   24  H           1     -20.084  -2.163 -10.311  0.00  0.00     0.274 HD
ENDBRANCH  20  21
ENDBRANCH  19  20
ENDBRANCH  18  19
ENDBRANCH  17  18
BRANCH  17  25
HETATM   25  C           1     -24.622  -3.253 -10.116  0.00  0.00     0.196 C 
HETATM   26  O           1     -25.251  -3.352 -11.191  0.00  0.00    -0.646 OA
HETATM   27  O           1     -25.156  -2.706  -9.126  0.00  0.00    -0.646 OA
ENDBRANCH  17  25
ENDBRANCH   1  17
TORSDOF 12
ENDMDL
MODEL 8
REMARK VINA RESULT:      -5.3     15.088     17.050
REMARK  12 active torsions:
REMARK  status: ('A' for Active; 'I' for Inactive)
REMARK    1  A    between atoms: C_1  and  C_20 
REMARK    2  A    between atoms: C_1  and  C_2 
REMARK    3  A    between atoms: C_2  and  C_3 
REMARK    4  A    between atoms: C_3  and  C_4 
REMARK    5  A    between atoms: C_3  and  N_7 
REMARK       I    between atoms: N_7  and  C_8 
REMARK    6  A    between atoms: C_8  and  C_9 
REMARK    7  A    between atoms: C_9  and  C_10 
REMARK    8  A    between atoms: C_9  and  N_23 
REMARK    9  A    between atoms: C_10  and  O_11 
REMARK   10  A    between atoms: O_11  and  P_12 
REMARK   11  A    between atoms: P_12  and  O_13 
REMARK   12  A    between atoms: N_19  and  C_20 
ROOT
HETATM    1  N           1     -21.190  -5.503  -5.134  0.00  0.00    -0.345 N 
HETATM    2  C           1     -21.515  -6.612  -4.402  0.00  0.00     0.251 C 
HETATM    3  H           1     -20.852  -4.670  -4.669  0.00  0.00     0.163 HD
HETATM    4  O           1     -21.918  -7.606  -4.958  0.00  0.00    -0.271 OA
ENDROOT
BRANCH   2   5
HETATM    5  C           1     -21.367  -6.594  -2.900  0.00  0.00     0.298 C 
BRANCH   5   6
HETATM    6  C           1     -21.421  -8.020  -2.368  0.00  0.00     0.224 C 
BRANCH   6   7
HETATM    7  O           1     -20.896  -8.055  -1.069  0.00  0.00    -0.287 OA
BRANCH   7   8
HETATM    8  P           1     -21.927  -8.478   0.101  0.00  0.00     0.406 P 
HETATM    9  O           1     -21.249  -8.381   1.414  0.00  0.00    -0.624 OA
HETATM   10  O           1     -22.380  -9.869  -0.120  0.00  0.00    -0.624 OA
BRANCH   8  11
HETATM   11  O           1     -23.202  -7.487   0.080  0.00  0.00    -0.300 OA
HETATM   12  H           1     -22.871  -6.658   0.384  0.00  0.00     0.223 HD
ENDBRANCH   8  11
ENDBRANCH   7   8
ENDBRANCH   6   7
ENDBRANCH   5   6
BRANCH   5  13
HETATM   13  N           1     -22.484  -5.795  -2.298  0.00  0.00    -0.064 N 
HETATM   14  H           1     -23.255  -5.691  -2.995  0.00  0.00     0.275 HD
HETATM   15  H           1     -22.847  -6.288  -1.450  0.00  0.00     0.275 HD
HETATM   16  H           1     -22.130  -4.850  -2.027  0.00  0.00     0.275 HD
ENDBRANCH   5  13
ENDBRANCH   2   5
BRANCH   1  17
HETATM   17  C           1     -21.331  -5.519  -6.577  0.00  0.00     0.185 C 
BRANCH  17  18
HETATM   18  C           1     -21.934  -4.201  -7.044  0.00  0.00     0.038 C 
BRANCH  18  19
HETATM   19  C           1     -23.347  -4.442  -7.559  0.00  0.00     0.030 C 
BRANCH  19  20
HETATM   20  C           1     -23.422  -4.060  -9.032  0.00  0.00     0.230 C 
BRANCH  20  21
HETATM   21  N           1     -24.838  -4.188  -9.512  0.00  0.00    -0.079 N 
HETATM   22  H           1     -25.229  -5.107  -9.203  0.00  0.00     0.274 HD
HETATM   23  H           1     -25.413  -3.413  -9.110  0.00  0.00     0.274 HD
HETATM   24  H           1     -24.858  -4.134 -10.555  0.00  0.00     0.274 HD
ENDBRANCH  20  21
ENDBRANCH  19  20
ENDBRANCH  18  19
ENDBRANCH  17  18
BRANCH  17  25
HETATM   25  C           1     -19.975  -5.706  -7.213  0.00  0.00     0.196 C 
HETATM   26  O           1     -19.433  -4.758  -7.819  0.00  0.00    -0.646 OA
HETATM   27  O           1     -19.395  -6.811  -7.132  0.00  0.00    -0.646 OA
ENDBRANCH  17  25
ENDBRANCH   1  17
TORSDOF 12
ENDMDL
MODEL 9
REMARK VINA RESULT:      -5.2      2.861      5.973
REMARK  12 active torsions:
REMARK  status: ('A' for Active; 'I' for Inactive)
REMARK    1  A    between atoms: C_1  and  C_20 
REMARK    2  A    between atoms: C_1  and  C_2 
REMARK    3  A    between atoms: C_2  and  C_3 
REMARK    4  A    between atoms: C_3  and  C_4 
REMARK    5  A    between atoms: C_3  and  N_7 
REMARK       I    between atoms: N_7  and  C_8 
REMARK    6  A    between atoms: C_8  and  C_9 
REMARK    7  A    between atoms: C_9  and  C_10 
REMARK    8  A    between atoms: C_9  and  N_23 
REMARK    9  A    between atoms: C_10  and  O_11 
REMARK   10  A    between atoms: O_11  and  P_12 
REMARK   11  A    between atoms: P_12  and  O_13 
REMARK   12  A    between atoms: N_19  and  C_20 
ROOT
HETATM    1  N           1     -35.064  -1.203 -11.898  0.00  0.00    -0.345 N 
HETATM    2  C           1     -34.430  -2.306 -12.402  0.00  0.00     0.251 C 
HETATM    3  H           1     -34.752  -0.793 -11.027  0.00  0.00     0.163 HD
HETATM    4  O           1     -34.802  -2.795 -13.442  0.00  0.00    -0.271 OA
ENDROOT
BRANCH   2   5
HETATM    5  C           1     -33.263  -2.910 -11.659  0.00  0.00     0.298 C 
BRANCH   5   6
HETATM    6  C           1     -32.951  -4.285 -12.235  0.00  0.00     0.224 C 
BRANCH   6   7
HETATM    7  O           1     -33.150  -5.262 -11.249  0.00  0.00    -0.287 OA
BRANCH   7   8
HETATM    8  P           1     -34.590  -5.995 -11.258  0.00  0.00     0.406 P 
HETATM    9  O           1     -35.149  -5.965 -12.628  0.00  0.00    -0.624 OA
HETATM   10  O           1     -35.507  -5.293 -10.334  0.00  0.00    -0.624 OA
BRANCH   8  11
HETATM   11  O           1     -34.416  -7.529 -10.782  0.00  0.00    -0.300 OA
HETATM   12  H           1     -35.206  -7.727 -10.308  0.00  0.00     0.223 HD
ENDBRANCH   8  11
ENDBRANCH   7   8
ENDBRANCH   6   7
ENDBRANCH   5   6
BRANCH   5  13
HETATM   13  N           1     -33.613  -3.046 -10.207  0.00  0.00    -0.064 N 
HETATM   14  H           1     -33.586  -2.106  -9.752  0.00  0.00     0.275 HD
HETATM   15  H           1     -34.573  -3.449 -10.116  0.00  0.00     0.275 HD
HETATM   16  H           1     -32.924  -3.678  -9.740  0.00  0.00     0.275 HD
ENDBRANCH   5  13
ENDBRANCH   2   5
BRANCH   1  17
HETATM   17  C           1     -36.185  -0.622 -12.612  0.00  0.00     0.185 C 
BRANCH  17  18
HETATM   18  C           1     -37.124   0.050 -11.621  0.00  0.00     0.038 C 
BRANCH  18  19
HETATM   19  C           1     -37.343  -0.866 -10.424  0.00  0.00     0.030 C 
BRANCH  19  20
HETATM   20  C           1     -37.084  -0.092  -9.138  0.00  0.00     0.230 C 
BRANCH  20  21
HETATM   21  N           1     -36.533   1.262  -9.471  0.00  0.00    -0.079 N 
HETATM   22  H           1     -37.137   1.718 -10.191  0.00  0.00     0.274 HD
HETATM   23  H           1     -36.515   1.852  -8.608  0.00  0.00     0.274 HD
HETATM   24  H           1     -35.562   1.161  -9.844  0.00  0.00     0.274 HD
ENDBRANCH  20  21
ENDBRANCH  19  20
ENDBRANCH  18  19
ENDBRANCH  17  18
BRANCH  17  25
HETATM   25  C           1     -35.676   0.401 -13.599  0.00  0.00     0.196 C 
HETATM   26  O           1     -34.659   1.075 -13.330  0.00  0.00    -0.646 OA
HETATM   27  O           1     -36.273   0.572 -14.684  0.00  0.00    -0.646 OA
ENDBRANCH  17  25
ENDBRANCH   1  17
TORSDOF 12
ENDMDL
