MODEL 1
REMARK VINA RESULT:      -7.5      0.000      0.000
REMARK  9 active torsions:
REMARK  status: ('A' for Active; 'I' for Inactive)
REMARK       I    between atoms: C_1  and  N_28 
REMARK    1  A    between atoms: C_1  and  C_4 
REMARK    2  A    between atoms: C_4  and  C_13 
REMARK    3  A    between atoms: C_4  and  N_24 
REMARK    4  A    between atoms: C_5  and  O_22 
REMARK    5  A    between atoms: C_6  and  C_11 
REMARK    6  A    between atoms: C_6  and  C_7 
REMARK    7  A    between atoms: C_6  and  N_28 
REMARK    8  A    between atoms: C_11  and  C_25 
REMARK    9  A    between atoms: C_13  and  C_20 
REMARK       I    between atoms: N_16  and  C_25 
ROOT
HETATM    1  C           1     -21.309  -5.737  -5.550  0.00  0.00     0.249 C 
HETATM    2  H           1     -22.309  -7.541  -5.378  0.00  0.00     0.163 HD
HETATM    3  O           1     -20.414  -5.055  -5.109  0.00  0.00    -0.271 OA
HETATM    4  N           1     -21.560  -6.970  -5.009  0.00  0.00    -0.344 N 
ENDROOT
BRANCH   1   5
HETATM    5  C           1     -22.149  -5.231  -6.697  0.00  0.00     0.278 C 
BRANCH   5   6
HETATM    6  C           1     -21.574  -3.916  -7.207  0.00  0.00     0.081 C 
BRANCH   6   7
HETATM    7  C           1     -21.605  -3.904  -8.704  0.00  0.00    -0.056 A 
HETATM    8  C           1     -20.439  -4.151  -9.428  0.00  0.00     0.010 A 
HETATM    9  C           1     -20.470  -4.140 -10.822  0.00  0.00     0.037 A 
HETATM   10  C           1     -21.666  -3.883 -11.493  0.00  0.00     0.065 A 
HETATM   11  C           1     -22.831  -3.638 -10.768  0.00  0.00     0.037 A 
HETATM   12  C           1     -22.802  -3.648  -9.373  0.00  0.00     0.010 A 
BRANCH  10  13
HETATM   13  O           1     -21.694  -3.873 -12.848  0.00  0.00    -0.361 OA
HETATM   14  H           1     -21.582  -2.954 -13.143  0.00  0.00     0.217 HD
ENDBRANCH  10  13
ENDBRANCH   6   7
ENDBRANCH   5   6
BRANCH   5  15
HETATM   15  N           1     -23.555  -5.012  -6.228  0.00  0.00    -0.066 N 
HETATM   16  H           1     -23.597  -4.146  -5.645  0.00  0.00     0.275 HD
HETATM   17  H           1     -24.187  -4.906  -7.054  0.00  0.00     0.275 HD
HETATM   18  H           1     -23.864  -5.832  -5.657  0.00  0.00     0.275 HD
ENDBRANCH   5  15
ENDBRANCH   1   5
BRANCH   4  19
HETATM   19  C           1     -20.753  -7.456  -3.907  0.00  0.00     0.194 C 
BRANCH  19  20
HETATM   20  C           1     -21.661  -8.035  -2.829  0.00  0.00     0.138 C 
BRANCH  20  21
HETATM   21  C           1     -22.072  -6.940  -1.876  0.00  0.00     0.217 C 
HETATM   22  O           1     -22.354  -5.845  -2.300  0.00  0.00    -0.274 OA
HETATM   23  N           1     -22.124  -7.187  -0.530  0.00  0.00    -0.370 N 
HETATM   24  H           1     -22.400  -6.452   0.108  0.00  0.00     0.159 HD
HETATM   25  H           1     -21.887  -8.104  -0.175  0.00  0.00     0.159 HD
ENDBRANCH  20  21
ENDBRANCH  19  20
BRANCH  19  26
HETATM   26  C           1     -19.818  -8.530  -4.405  0.00  0.00     0.197 C 
HETATM   27  O           1     -18.897  -8.947  -3.669  0.00  0.00    -0.646 OA
HETATM   28  O           1     -19.962  -9.002  -5.554  0.00  0.00    -0.646 OA
ENDBRANCH  19  26
ENDBRANCH   4  19
TORSDOF 9
ENDMDL
MODEL 2
REMARK VINA RESULT:      -7.3     13.711     14.876
REMARK  9 active torsions:
REMARK  status: ('A' for Active; 'I' for Inactive)
REMARK       I    between atoms: C_1  and  N_28 
REMARK    1  A    between atoms: C_1  and  C_4 
REMARK    2  A    between atoms: C_4  and  C_13 
REMARK    3  A    between atoms: C_4  and  N_24 
REMARK    4  A    between atoms: C_5  and  O_22 
REMARK    5  A    between atoms: C_6  and  C_11 
REMARK    6  A    between atoms: C_6  and  C_7 
REMARK    7  A    between atoms: C_6  and  N_28 
REMARK    8  A    between atoms: C_11  and  C_25 
REMARK    9  A    between atoms: C_13  and  C_20 
REMARK       I    between atoms: N_16  and  C_25 
ROOT
HETATM    1  C           1     -33.812  -4.446 -15.477  0.00  0.00     0.249 C 
HETATM    2  H           1     -32.358  -3.757 -14.175  0.00  0.00     0.163 HD
HETATM    3  O           1     -34.971  -4.769 -15.585  0.00  0.00    -0.271 OA
HETATM    4  N           1     -33.329  -4.027 -14.266  0.00  0.00    -0.344 N 
ENDROOT
BRANCH   1   5
HETATM    5  C           1     -32.897  -4.505 -16.675  0.00  0.00     0.278 C 
BRANCH   5   6
HETATM    6  C           1     -31.447  -4.496 -16.209  0.00  0.00     0.081 C 
BRANCH   6   7
HETATM    7  C           1     -30.630  -5.376 -17.103  0.00  0.00    -0.056 A 
HETATM    8  C           1     -31.032  -6.689 -17.347  0.00  0.00     0.010 A 
HETATM    9  C           1     -30.270  -7.507 -18.181  0.00  0.00     0.037 A 
HETATM   10  C           1     -29.106  -7.013 -18.771  0.00  0.00     0.065 A 
HETATM   11  C           1     -28.706  -5.700 -18.527  0.00  0.00     0.037 A 
HETATM   12  C           1     -29.467  -4.881 -17.693  0.00  0.00     0.010 A 
BRANCH  10  13
HETATM   13  O           1     -28.367  -7.809 -19.581  0.00  0.00    -0.361 OA
HETATM   14  H           1     -27.710  -8.268 -19.031  0.00  0.00     0.217 HD
ENDBRANCH  10  13
ENDBRANCH   6   7
ENDBRANCH   5   6
BRANCH   5  15
HETATM   15  N           1     -33.147  -3.316 -17.553  0.00  0.00    -0.066 N 
HETATM   16  H           1     -32.708  -2.469 -17.126  0.00  0.00     0.275 HD
HETATM   17  H           1     -32.730  -3.485 -18.497  0.00  0.00     0.275 HD
HETATM   18  H           1     -34.176  -3.164 -17.649  0.00  0.00     0.275 HD
ENDBRANCH   5  15
ENDBRANCH   1   5
BRANCH   4  19
HETATM   19  C           1     -34.208  -3.971 -13.114  0.00  0.00     0.194 C 
BRANCH  19  20
HETATM   20  C           1     -33.487  -4.535 -11.896  0.00  0.00     0.138 C 
BRANCH  20  21
HETATM   21  C           1     -34.256  -5.716 -11.359  0.00  0.00     0.217 C 
HETATM   22  O           1     -34.225  -5.971 -10.178  0.00  0.00    -0.274 OA
HETATM   23  N           1     -34.987  -6.502 -12.210  0.00  0.00    -0.370 N 
HETATM   24  H           1     -35.501  -7.295 -11.848  0.00  0.00     0.159 HD
HETATM   25  H           1     -35.011  -6.289 -13.198  0.00  0.00     0.159 HD
ENDBRANCH  20  21
ENDBRANCH  19  20
BRANCH  19  26
HETATM   26  C           1     -34.596  -2.537 -12.849  0.00  0.00     0.197 C 
HETATM   27  O           1     -34.448  -2.051 -11.707  0.00  0.00    -0.646 OA
HETATM   28  O           1     -35.067  -1.836 -13.771  0.00  0.00    -0.646 OA
ENDBRANCH  19  26
ENDBRANCH   4  19
TORSDOF 9
ENDMDL
MODEL 3
REMARK VINA RESULT:      -7.2      2.589      7.779
REMARK  9 active torsions:
REMARK  status: ('A' for Active; 'I' for Inactive)
REMARK       I    between atoms: C_1  and  N_28 
REMARK    1  A    between atoms: C_1  and  C_4 
REMARK    2  A    between atoms: C_4  and  C_13 
REMARK    3  A    between atoms: C_4  and  N_24 
REMARK    4  A    between atoms: C_5  and  O_22 
REMARK    5  A    between atoms: C_6  and  C_11 
REMARK    6  A    between atoms: C_6  and  C_7 
REMARK    7  A    between atoms: C_6  and  N_28 
REMARK    8  A    between atoms: C_11  and  C_25 
REMARK    9  A    between atoms: C_13  and  C_20 
REMARK       I    between atoms: N_16  and  C_25 
ROOT
HETATM    1  C           1     -21.614  -4.426  -7.513  0.00  0.00     0.249 C 
HETATM    2  H           1     -22.385  -5.855  -8.798  0.00  0.00     0.163 HD
HETATM    3  O           1     -21.456  -3.243  -7.329  0.00  0.00    -0.271 OA
HETATM    4  N           1     -22.252  -4.863  -8.643  0.00  0.00    -0.344 N 
ENDROOT
BRANCH   1   5
HETATM    5  C           1     -21.109  -5.422  -6.498  0.00  0.00     0.278 C 
BRANCH   5   6
HETATM    6  C           1     -22.263  -5.876  -5.613  0.00  0.00     0.081 C 
BRANCH   6   7
HETATM    7  C           1     -21.744  -6.787  -4.544  0.00  0.00    -0.056 A 
HETATM    8  C           1     -21.763  -6.379  -3.211  0.00  0.00     0.010 A 
HETATM    9  C           1     -21.280  -7.229  -2.216  0.00  0.00     0.037 A 
HETATM   10  C           1     -20.779  -8.486  -2.554  0.00  0.00     0.065 A 
HETATM   11  C           1     -20.762  -8.893  -3.887  0.00  0.00     0.037 A 
HETATM   12  C           1     -21.244  -8.044  -4.883  0.00  0.00     0.010 A 
BRANCH  10  13
HETATM   13  O           1     -20.310  -9.311  -1.586  0.00  0.00    -0.361 OA
HETATM   14  H           1     -20.967 -10.014  -1.448  0.00  0.00     0.217 HD
ENDBRANCH  10  13
ENDBRANCH   6   7
ENDBRANCH   5   6
BRANCH   5  15
HETATM   15  N           1     -20.053  -4.780  -5.650  0.00  0.00    -0.066 N 
HETATM   16  H           1     -19.613  -5.501  -5.036  0.00  0.00     0.275 HD
HETATM   17  H           1     -19.322  -4.354  -6.265  0.00  0.00     0.275 HD
HETATM   18  H           1     -20.486  -4.035  -5.058  0.00  0.00     0.275 HD
ENDBRANCH   5  15
ENDBRANCH   1   5
BRANCH   4  19
HETATM   19  C           1     -22.737  -3.906  -9.618  0.00  0.00     0.194 C 
BRANCH  19  20
HETATM   20  C           1     -22.209  -4.274 -10.999  0.00  0.00     0.138 C 
BRANCH  20  21
HETATM   21  C           1     -20.727  -3.999 -11.060  0.00  0.00     0.217 C 
HETATM   22  O           1     -19.941  -4.834 -10.679  0.00  0.00    -0.274 OA
HETATM   23  N           1     -20.272  -2.803 -11.546  0.00  0.00    -0.370 N 
HETATM   24  H           1     -19.278  -2.619 -11.587  0.00  0.00     0.159 HD
HETATM   25  H           1     -20.929  -2.104 -11.864  0.00  0.00     0.159 HD
ENDBRANCH  20  21
ENDBRANCH  19  20
BRANCH  19  26
HETATM   26  C           1     -24.246  -3.928  -9.636  0.00  0.00     0.197 C 
HETATM   27  O           1     -24.853  -5.008  -9.806  0.00  0.00    -0.646 OA
HETATM   28  O           1     -24.889  -2.867  -9.480  0.00  0.00    -0.646 OA
ENDBRANCH  19  26
ENDBRANCH   4  19
TORSDOF 9
ENDMDL
MODEL 4
REMARK VINA RESULT:      -6.8      1.744      2.819
REMARK  9 active torsions:
REMARK  status: ('A' for Active; 'I' for Inactive)
REMARK       I    between atoms: C_1  and  N_28 
REMARK    1  A    between atoms: C_1  and  C_4 
REMARK    2  A    between atoms: C_4  and  C_13 
REMARK    3  A    between atoms: C_4  and  N_24 
REMARK    4  A    between atoms: C_5  and  O_22 
REMARK    5  A    between atoms: C_6  and  C_11 
REMARK    6  A    between atoms: C_6  and  C_7 
REMARK    7  A    between atoms: C_6  and  N_28 
REMARK    8  A    between atoms: C_11  and  C_25 
REMARK    9  A    between atoms: C_13  and  C_20 
REMARK       I    between atoms: N_16  and  C_25 
ROOT
HETATM    1  C           1     -21.779  -6.156  -5.049  0.00  0.00     0.249 C 
HETATM    2  H           1     -19.969  -6.787  -4.269  0.00  0.00     0.163 HD
HETATM    3  O           1     -22.979  -6.296  -5.006  0.00  0.00    -0.271 OA
HETATM    4  N           1     -20.973  -6.905  -4.233  0.00  0.00    -0.344 N 
ENDROOT
BRANCH   1   5
HETATM    5  C           1     -21.170  -5.156  -6.000  0.00  0.00     0.278 C 
BRANCH   5   6
HETATM    6  C           1     -20.710  -5.871  -7.264  0.00  0.00     0.081 C 
BRANCH   6   7
HETATM    7  C           1     -21.028  -5.028  -8.459  0.00  0.00    -0.056 A 
HETATM    8  C           1     -20.073  -4.847  -9.459  0.00  0.00     0.010 A 
HETATM    9  C           1     -20.370  -4.061 -10.573  0.00  0.00     0.037 A 
HETATM   10  C           1     -21.622  -3.458 -10.687  0.00  0.00     0.065 A 
HETATM   11  C           1     -22.578  -3.640  -9.687  0.00  0.00     0.037 A 
HETATM   12  C           1     -22.281  -4.425  -8.573  0.00  0.00     0.010 A 
BRANCH  10  13
HETATM   13  O           1     -21.911  -2.695 -11.769  0.00  0.00    -0.361 OA
HETATM   14  H           1     -22.026  -3.287 -12.531  0.00  0.00     0.217 HD
ENDBRANCH  10  13
ENDBRANCH   6   7
ENDBRANCH   5   6
BRANCH   5  15
HETATM   15  N           1     -19.995  -4.495  -5.345  0.00  0.00    -0.066 N 
HETATM   16  H           1     -20.217  -4.304  -4.342  0.00  0.00     0.275 HD
HETATM   17  H           1     -19.162  -5.125  -5.403  0.00  0.00     0.275 HD
HETATM   18  H           1     -19.784  -3.595  -5.833  0.00  0.00     0.275 HD
ENDBRANCH   5  15
ENDBRANCH   1   5
BRANCH   4  19
HETATM   19  C           1     -21.559  -7.865  -3.319  0.00  0.00     0.194 C 
BRANCH  19  20
HETATM   20  C           1     -20.788  -9.177  -3.396  0.00  0.00     0.138 C 
BRANCH  20  21
HETATM   21  C           1     -21.210  -9.937  -4.628  0.00  0.00     0.217 C 
HETATM   22  O           1     -20.939  -9.509  -5.725  0.00  0.00    -0.274 OA
HETATM   23  N           1     -21.902 -11.112  -4.504  0.00  0.00    -0.370 N 
HETATM   24  H           1     -22.185 -11.621  -5.332  0.00  0.00     0.159 HD
HETATM   25  H           1     -22.129 -11.470  -3.586  0.00  0.00     0.159 HD
ENDBRANCH  20  21
ENDBRANCH  19  20
BRANCH  19  26
HETATM   26  C           1     -21.492  -7.325  -1.912  0.00  0.00     0.197 C 
HETATM   27  O           1     -20.732  -7.858  -1.074  0.00  0.00    -0.646 OA
HETATM   28  O           1     -22.195  -6.345  -1.583  0.00  0.00    -0.646 OA
ENDBRANCH  19  26
ENDBRANCH   4  19
TORSDOF 9
ENDMDL
MODEL 5
REMARK VINA RESULT:      -6.5      2.266      3.697
REMARK  9 active torsions:
REMARK  status: ('A' for Active; 'I' for Inactive)
REMARK       I    between atoms: C_1  and  N_28 
REMARK    1  A    between atoms: C_1  and  C_4 
REMARK    2  A    between atoms: C_4  and  C_13 
REMARK    3  A    between atoms: C_4  and  N_24 
REMARK    4  A    between atoms: C_5  and  O_22 
REMARK    5  A    between atoms: C_6  and  C_11 
REMARK    6  A    between atoms: C_6  and  C_7 
REMARK    7  A    between atoms: C_6  and  N_28 
REMARK    8  A    between atoms: C_11  and  C_25 
REMARK    9  A    between atoms: C_13  and  C_20 
REMARK       I    between atoms: N_16  and  C_25 
ROOT
HETATM    1  C           1     -20.122  -8.509  -3.523  0.00  0.00     0.249 C 
HETATM    2  H           1     -22.046  -8.123  -2.864  0.00  0.00     0.163 HD
HETATM    3  O           1     -19.062  -9.016  -3.241  0.00  0.00    -0.271 OA
HETATM    4  N           1     -21.158  -8.548  -2.628  0.00  0.00    -0.344 N 
ENDROOT
BRANCH   1   5
HETATM    5  C           1     -20.304  -7.834  -4.860  0.00  0.00     0.278 C 
BRANCH   5   6
HETATM    6  C           1     -20.930  -6.460  -4.655  0.00  0.00     0.081 C 
BRANCH   6   7
HETATM    7  C           1     -20.988  -5.737  -5.964  0.00  0.00    -0.056 A 
HETATM    8  C           1     -22.200  -5.222  -6.423  0.00  0.00     0.010 A 
HETATM    9  C           1     -22.253  -4.547  -7.643  0.00  0.00     0.037 A 
HETATM   10  C           1     -21.095  -4.389  -8.404  0.00  0.00     0.065 A 
HETATM   11  C           1     -19.883  -4.904  -7.944  0.00  0.00     0.037 A 
HETATM   12  C           1     -19.830  -5.578  -6.724  0.00  0.00     0.010 A 
BRANCH  10  13
HETATM   13  O           1     -21.147  -3.733  -9.589  0.00  0.00    -0.361 OA
HETATM   14  H           1     -20.282  -3.318  -9.740  0.00  0.00     0.217 HD
ENDBRANCH  10  13
ENDBRANCH   6   7
ENDBRANCH   5   6
BRANCH   5  15
HETATM   15  N           1     -21.202  -8.668  -5.723  0.00  0.00    -0.066 N 
HETATM   16  H           1     -21.223  -8.272  -6.690  0.00  0.00     0.275 HD
HETATM   17  H           1     -20.841  -9.649  -5.757  0.00  0.00     0.275 HD
HETATM   18  H           1     -22.168  -8.666  -5.325  0.00  0.00     0.275 HD
ENDBRANCH   5  15
ENDBRANCH   1   5
BRANCH   4  19
HETATM   19  C           1     -20.982  -9.197  -1.344  0.00  0.00     0.194 C 
BRANCH  19  20
HETATM   20  C           1     -21.136  -8.169  -0.230  0.00  0.00     0.138 C 
BRANCH  20  21
HETATM   21  C           1     -22.490  -7.513  -0.334  0.00  0.00     0.217 C 
HETATM   22  O           1     -22.673  -6.629  -1.138  0.00  0.00    -0.274 OA
HETATM   23  N           1     -23.512  -7.917   0.483  0.00  0.00    -0.370 N 
HETATM   24  H           1     -24.420  -7.475   0.412  0.00  0.00     0.159 HD
HETATM   25  H           1     -23.359  -8.656   1.156  0.00  0.00     0.159 HD
ENDBRANCH  20  21
ENDBRANCH  19  20
BRANCH  19  26
HETATM   26  C           1     -22.025 -10.275  -1.180  0.00  0.00     0.197 C 
HETATM   27  O           1     -22.712 -10.634  -2.161  0.00  0.00    -0.646 OA
HETATM   28  O           1     -22.202 -10.810  -0.063  0.00  0.00    -0.646 OA
ENDBRANCH  19  26
ENDBRANCH   4  19
TORSDOF 9
ENDMDL
MODEL 6
REMARK VINA RESULT:      -6.4      1.994      3.200
REMARK  9 active torsions:
REMARK  status: ('A' for Active; 'I' for Inactive)
REMARK       I    between atoms: C_1  and  N_28 
REMARK    1  A    between atoms: C_1  and  C_4 
REMARK    2  A    between atoms: C_4  and  C_13 
REMARK    3  A    between atoms: C_4  and  N_24 
REMARK    4  A    between atoms: C_5  and  O_22 
REMARK    5  A    between atoms: C_6  and  C_11 
REMARK    6  A    between atoms: C_6  and  C_7 
REMARK    7  A    between atoms: C_6  and  N_28 
REMARK    8  A    between atoms: C_11  and  C_25 
REMARK    9  A    between atoms: C_13  and  C_20 
REMARK       I    between atoms: N_16  and  C_25 
ROOT
HETATM    1  C           1     -20.964  -6.726  -5.680  0.00  0.00     0.249 C 
HETATM    2  H           1     -20.419  -6.207  -3.751  0.00  0.00     0.163 HD
HETATM    3  O           1     -21.245  -7.641  -6.417  0.00  0.00    -0.271 OA
HETATM    4  N           1     -20.655  -6.973  -4.369  0.00  0.00    -0.344 N 
ENDROOT
BRANCH   1   5
HETATM    5  C           1     -20.952  -5.311  -6.204  0.00  0.00     0.278 C 
BRANCH   5   6
HETATM    6  C           1     -20.503  -5.311  -7.659  0.00  0.00     0.081 C 
BRANCH   6   7
HETATM    7  C           1     -21.573  -4.705  -8.513  0.00  0.00    -0.056 A 
HETATM    8  C           1     -21.326  -4.442  -9.859  0.00  0.00     0.010 A 
HETATM    9  C           1     -22.324  -3.878 -10.654  0.00  0.00     0.037 A 
HETATM   10  C           1     -23.569  -3.578 -10.102  0.00  0.00     0.065 A 
HETATM   11  C           1     -23.816  -3.843  -8.755  0.00  0.00     0.037 A 
HETATM   12  C           1     -22.819  -4.407  -7.960  0.00  0.00     0.010 A 
BRANCH  10  13
HETATM   13  O           1     -24.539  -3.030 -10.875  0.00  0.00    -0.361 OA
HETATM   14  H           1     -24.122  -2.375 -11.459  0.00  0.00     0.217 HD
ENDBRANCH  10  13
ENDBRANCH   6   7
ENDBRANCH   5   6
BRANCH   5  15
HETATM   15  N           1     -20.004  -4.484  -5.389  0.00  0.00    -0.066 N 
HETATM   16  H           1     -19.920  -3.532  -5.810  0.00  0.00     0.275 HD
HETATM   17  H           1     -20.364  -4.401  -4.411  0.00  0.00     0.275 HD
HETATM   18  H           1     -19.065  -4.943  -5.375  0.00  0.00     0.275 HD
ENDBRANCH   5  15
ENDBRANCH   1   5
BRANCH   4  19
HETATM   19  C           1     -20.667  -8.333  -3.866  0.00  0.00     0.194 C 
BRANCH  19  20
HETATM   20  C           1     -19.312  -8.981  -4.122  0.00  0.00     0.138 C 
BRANCH  20  21
HETATM   21  C           1     -19.511 -10.313  -4.802  0.00  0.00     0.217 C 
HETATM   22  O           1     -18.933 -11.292  -4.394  0.00  0.00    -0.274 OA
HETATM   23  N           1     -20.347 -10.412  -5.882  0.00  0.00    -0.370 N 
HETATM   24  H           1     -20.479 -11.306  -6.337  0.00  0.00     0.159 HD
HETATM   25  H           1     -20.830  -9.592  -6.224  0.00  0.00     0.159 HD
ENDBRANCH  20  21
ENDBRANCH  19  20
BRANCH  19  26
HETATM   26  C           1     -20.944  -8.317  -2.383  0.00  0.00     0.197 C 
HETATM   27  O           1     -20.329  -9.099  -1.624  0.00  0.00    -0.646 OA
HETATM   28  O           1     -21.787  -7.524  -1.912  0.00  0.00    -0.646 OA
ENDBRANCH  19  26
ENDBRANCH   4  19
TORSDOF 9
ENDMDL
MODEL 7
REMARK VINA RESULT:      -6.2      2.234      3.708
REMARK  9 active torsions:
REMARK  status: ('A' for Active; 'I' for Inactive)
REMARK       I    between atoms: C_1  and  N_28 
REMARK    1  A    between atoms: C_1  and  C_4 
REMARK    2  A    between atoms: C_4  and  C_13 
REMARK    3  A    between atoms: C_4  and  N_24 
REMARK    4  A    between atoms: C_5  and  O_22 
REMARK    5  A    between atoms: C_6  and  C_11 
REMARK    6  A    between atoms: C_6  and  C_7 
REMARK    7  A    between atoms: C_6  and  N_28 
REMARK    8  A    between atoms: C_11  and  C_25 
REMARK    9  A    between atoms: C_13  and  C_20 
REMARK       I    between atoms: N_16  and  C_25 
ROOT
HETATM    1  C           1     -21.013  -7.641  -5.103  0.00  0.00     0.249 C 
HETATM    2  H           1     -20.111  -7.705  -3.241  0.00  0.00     0.163 HD
HETATM    3  O           1     -21.203  -8.245  -6.132  0.00  0.00    -0.271 OA
HETATM    4  N           1     -20.270  -8.210  -4.103  0.00  0.00    -0.344 N 
ENDROOT
BRANCH   1   5
HETATM    5  C           1     -21.593  -6.260  -4.920  0.00  0.00     0.278 C 
BRANCH   5   6
HETATM    6  C           1     -20.584  -5.218  -5.384  0.00  0.00     0.081 C 
BRANCH   6   7
HETATM    7  C           1     -20.910  -4.795  -6.782  0.00  0.00    -0.056 A 
HETATM    8  C           1     -19.894  -4.674  -7.729  0.00  0.00     0.010 A 
HETATM    9  C           1     -20.199  -4.281  -9.032  0.00  0.00     0.037 A 
HETATM   10  C           1     -21.520  -4.008  -9.388  0.00  0.00     0.065 A 
HETATM   11  C           1     -22.536  -4.130  -8.440  0.00  0.00     0.037 A 
HETATM   12  C           1     -22.232  -4.523  -7.138  0.00  0.00     0.010 A 
BRANCH  10  13
HETATM   13  O           1     -21.815  -3.626 -10.654  0.00  0.00    -0.361 OA
HETATM   14  H           1     -20.985  -3.589 -11.158  0.00  0.00     0.217 HD
ENDBRANCH  10  13
ENDBRANCH   6   7
ENDBRANCH   5   6
BRANCH   5  15
HETATM   15  N           1     -21.909  -6.039  -3.471  0.00  0.00    -0.066 N 
HETATM   16  H           1     -21.586  -5.088  -3.185  0.00  0.00     0.275 HD
HETATM   17  H           1     -22.941  -6.115  -3.322  0.00  0.00     0.275 HD
HETATM   18  H           1     -21.420  -6.761  -2.894  0.00  0.00     0.275 HD
ENDBRANCH   5  15
ENDBRANCH   1   5
BRANCH   4  19
HETATM   19  C           1     -19.712  -9.537  -4.280  0.00  0.00     0.194 C 
BRANCH  19  20
HETATM   20  C           1     -18.191  -9.451  -4.295  0.00  0.00     0.138 C 
BRANCH  20  21
HETATM   21  C           1     -17.678  -9.868  -5.650  0.00  0.00     0.217 C 
HETATM   22  O           1     -18.452 -10.228  -6.505  0.00  0.00    -0.274 OA
HETATM   23  N           1     -16.334  -9.842  -5.912  0.00  0.00    -0.370 N 
HETATM   24  H           1     -15.990 -10.122  -6.821  0.00  0.00     0.159 HD
HETATM   25  H           1     -15.686  -9.541  -5.196  0.00  0.00     0.159 HD
ENDBRANCH  20  21
ENDBRANCH  19  20
BRANCH  19  26
HETATM   26  C           1     -20.154 -10.422  -3.140  0.00  0.00     0.197 C 
HETATM   27  O           1     -20.410 -11.628  -3.350  0.00  0.00    -0.646 OA
HETATM   28  O           1     -20.263  -9.951  -1.988  0.00  0.00    -0.646 OA
ENDBRANCH  19  26
ENDBRANCH   4  19
TORSDOF 9
ENDMDL
MODEL 8
REMARK VINA RESULT:      -6.1     12.719     14.866
REMARK  9 active torsions:
REMARK  status: ('A' for Active; 'I' for Inactive)
REMARK       I    between atoms: C_1  and  N_28 
REMARK    1  A    between atoms: C_1  and  C_4 
REMARK    2  A    between atoms: C_4  and  C_13 
REMARK    3  A    between atoms: C_4  and  N_24 
REMARK    4  A    between atoms: C_5  and  O_22 
REMARK    5  A    between atoms: C_6  and  C_11 
REMARK    6  A    between atoms: C_6  and  C_7 
REMARK    7  A    between atoms: C_6  and  N_28 
REMARK    8  A    between atoms: C_11  and  C_25 
REMARK    9  A    between atoms: C_13  and  C_20 
REMARK       I    between atoms: N_16  and  C_25 
ROOT
HETATM    1  C           1     -32.427  -4.787 -16.366  0.00  0.00     0.249 C 
HETATM    2  H           1     -30.746  -4.045 -15.414  0.00  0.00     0.163 HD
HETATM    3  O           1     -32.841  -5.619 -17.138  0.00  0.00    -0.271 OA
HETATM    4  N           1     -31.093  -4.742 -16.060  0.00  0.00    -0.344 N 
ENDROOT
BRANCH   1   5
HETATM    5  C           1     -33.379  -3.797 -15.740  0.00  0.00     0.278 C 
BRANCH   5   6
HETATM    6  C           1     -34.185  -4.488 -14.648  0.00  0.00     0.081 C 
BRANCH   6   7
HETATM    7  C           1     -34.044  -3.727 -13.367  0.00  0.00    -0.056 A 
HETATM    8  C           1     -34.779  -2.559 -13.164  0.00  0.00     0.010 A 
HETATM    9  C           1     -34.647  -1.852 -11.969  0.00  0.00     0.037 A 
HETATM   10  C           1     -33.781  -2.312 -10.977  0.00  0.00     0.065 A 
HETATM   11  C           1     -33.048  -3.481 -11.180  0.00  0.00     0.037 A 
HETATM   12  C           1     -33.179  -4.189 -12.374  0.00  0.00     0.010 A 
BRANCH  10  13
HETATM   13  O           1     -33.654  -1.624  -9.817  0.00  0.00    -0.361 OA
HETATM   14  H           1     -32.759  -1.245  -9.789  0.00  0.00     0.217 HD
ENDBRANCH  10  13
ENDBRANCH   6   7
ENDBRANCH   5   6
BRANCH   5  15
HETATM   15  N           1     -34.310  -3.268 -16.789  0.00  0.00    -0.066 N 
HETATM   16  H           1     -35.002  -2.622 -16.347  0.00  0.00     0.275 HD
HETATM   17  H           1     -33.763  -2.749 -17.513  0.00  0.00     0.275 HD
HETATM   18  H           1     -34.816  -4.064 -17.240  0.00  0.00     0.275 HD
ENDBRANCH   5  15
ENDBRANCH   1   5
BRANCH   4  19
HETATM   19  C           1     -30.179  -5.693 -16.662  0.00  0.00     0.194 C 
BRANCH  19  20
HETATM   20  C           1     -29.389  -5.007 -17.770  0.00  0.00     0.138 C 
BRANCH  20  21
HETATM   21  C           1     -28.921  -3.655 -17.293  0.00  0.00     0.217 C 
HETATM   22  O           1     -27.948  -3.569 -16.582  0.00  0.00    -0.274 OA
HETATM   23  N           1     -29.600  -2.525 -17.663  0.00  0.00    -0.370 N 
HETATM   24  H           1     -29.286  -1.619 -17.342  0.00  0.00     0.159 HD
HETATM   25  H           1     -30.415  -2.598 -18.257  0.00  0.00     0.159 HD
ENDBRANCH  20  21
ENDBRANCH  19  20
BRANCH  19  26
HETATM   26  C           1     -29.226  -6.207 -15.611  0.00  0.00     0.197 C 
HETATM   27  O           1     -28.282  -6.959 -15.937  0.00  0.00    -0.646 OA
HETATM   28  O           1     -29.380  -5.880 -14.414  0.00  0.00    -0.646 OA
ENDBRANCH  19  26
ENDBRANCH   4  19
TORSDOF 9
ENDMDL
MODEL 9
REMARK VINA RESULT:      -6.1      1.924      3.245
REMARK  9 active torsions:
REMARK  status: ('A' for Active; 'I' for Inactive)
REMARK       I    between atoms: C_1  and  N_28 
REMARK    1  A    between atoms: C_1  and  C_4 
REMARK    2  A    between atoms: C_4  and  C_13 
REMARK    3  A    between atoms: C_4  and  N_24 
REMARK    4  A    between atoms: C_5  and  O_22 
REMARK    5  A    between atoms: C_6  and  C_11 
REMARK    6  A    between atoms: C_6  and  C_7 
REMARK    7  A    between atoms: C_6  and  N_28 
REMARK    8  A    between atoms: C_11  and  C_25 
REMARK    9  A    between atoms: C_13  and  C_20 
REMARK       I    between atoms: N_16  and  C_25 
ROOT
HETATM    1  C           1     -20.959  -6.846  -4.826  0.00  0.00     0.249 C 
HETATM    2  H           1     -20.127  -6.130  -3.071  0.00  0.00     0.163 HD
HETATM    3  O           1     -21.786  -7.590  -5.298  0.00  0.00    -0.271 OA
HETATM    4  N           1     -20.820  -6.752  -3.467  0.00  0.00    -0.344 N 
ENDROOT
BRANCH   1   5
HETATM    5  C           1     -20.079  -6.022  -5.734  0.00  0.00     0.278 C 
BRANCH   5   6
HETATM    6  C           1     -20.620  -4.601  -5.814  0.00  0.00     0.081 C 
BRANCH   6   7
HETATM    7  C           1     -21.152  -4.347  -7.191  0.00  0.00    -0.056 A 
HETATM    8  C           1     -22.525  -4.396  -7.428  0.00  0.00     0.010 A 
HETATM    9  C           1     -23.019  -4.158  -8.711  0.00  0.00     0.037 A 
HETATM   10  C           1     -22.140  -3.870  -9.755  0.00  0.00     0.065 A 
HETATM   11  C           1     -20.767  -3.820  -9.516  0.00  0.00     0.037 A 
HETATM   12  C           1     -20.272  -4.058  -8.234  0.00  0.00     0.010 A 
BRANCH  10  13
HETATM   13  O           1     -22.621  -3.639 -11.001  0.00  0.00    -0.361 OA
HETATM   14  H           1     -23.430  -3.108 -10.916  0.00  0.00     0.217 HD
ENDBRANCH  10  13
ENDBRANCH   6   7
ENDBRANCH   5   6
BRANCH   5  15
HETATM   15  N           1     -20.066  -6.630  -7.104  0.00  0.00    -0.066 N 
HETATM   16  H           1     -20.786  -6.163  -7.699  0.00  0.00     0.275 HD
HETATM   17  H           1     -19.122  -6.502  -7.535  0.00  0.00     0.275 HD
HETATM   18  H           1     -20.280  -7.651  -7.034  0.00  0.00     0.275 HD
ENDBRANCH   5  15
ENDBRANCH   1   5
BRANCH   4  19
HETATM   19  C           1     -21.665  -7.544  -2.595  0.00  0.00     0.194 C 
BRANCH  19  20
HETATM   20  C           1     -20.824  -8.607  -1.899  0.00  0.00     0.138 C 
BRANCH  20  21
HETATM   21  C           1     -21.245  -9.974  -2.377  0.00  0.00     0.217 C 
HETATM   22  O           1     -20.904 -10.959  -1.765  0.00  0.00    -0.274 OA
HETATM   23  N           1     -22.012 -10.100  -3.504  0.00  0.00    -0.370 N 
HETATM   24  H           1     -22.293 -11.018  -3.823  0.00  0.00     0.159 HD
HETATM   25  H           1     -22.297  -9.276  -4.016  0.00  0.00     0.159 HD
ENDBRANCH  20  21
ENDBRANCH  19  20
BRANCH  19  26
HETATM   26  C           1     -22.299  -6.648  -1.560  0.00  0.00     0.197 C 
HETATM   27  O           1     -22.846  -7.146  -0.553  0.00  0.00    -0.646 OA
HETATM   28  O           1     -22.277  -5.407  -1.710  0.00  0.00    -0.646 OA
ENDBRANCH  19  26
ENDBRANCH   4  19
TORSDOF 9
ENDMDL
