MODEL 1
REMARK VINA RESULT:      -5.3      0.000      0.000
REMARK  8 active torsions:
REMARK  status: ('A' for Active; 'I' for Inactive)
REMARK    1  A    between atoms: Se_2  and  C_3 
REMARK    2  A    between atoms: C_3  and  C_4 
REMARK    3  A    between atoms: C_4  and  C_5 
REMARK    4  A    between atoms: C_4  and  N_10 
REMARK    5  A    between atoms: C_7  and  C_8 
REMARK    6  A    between atoms: C_7  and  C_16 
REMARK    7  A    between atoms: C_7  and  N_14 
REMARK       I    between atoms: C_8  and  N_10 
REMARK    8  A    between atoms: O_9  and  C_16 
ROOT
HETATM    1  C           1     -26.404  -6.575 -18.892  0.00  0.00     0.251 C 
HETATM    2  N           1     -27.741  -6.681 -19.165  0.00  0.00    -0.345 N 
HETATM    3  O           1     -26.038  -6.183 -17.810  0.00  0.00    -0.271 OA
HETATM    4  H           1     -28.048  -7.011 -20.071  0.00  0.00     0.163 HD
ENDROOT
BRANCH   1   5
HETATM    5  C           1     -25.387  -6.948 -19.943  0.00  0.00     0.297 C 
BRANCH   5   6
HETATM    6  C           1     -26.027  -7.887 -20.958  0.00  0.00     0.206 C 
BRANCH   6   7
HETATM    7  O           1     -25.025  -8.543 -21.686  0.00  0.00    -0.398 OA
HETATM    8  H           1     -25.072  -9.456 -21.456  0.00  0.00     0.209 HD
ENDBRANCH   6   7
ENDBRANCH   5   6
BRANCH   5   9
HETATM    9  N           1     -24.225  -7.636 -19.292  0.00  0.00    -0.064 N 
HETATM   10  H           1     -23.565  -6.920 -18.912  0.00  0.00     0.275 HD
HETATM   11  H           1     -23.729  -8.226 -19.996  0.00  0.00     0.275 HD
HETATM   12  H           1     -24.569  -8.239 -18.511  0.00  0.00     0.275 HD
ENDBRANCH   5   9
ENDBRANCH   1   5
BRANCH   2  13
HETATM   13  C           1     -28.718  -6.323 -18.155  0.00  0.00     0.185 C 
BRANCH  13  14
HETATM   14  C           1     -29.261  -4.929 -18.447  0.00  0.00     0.039 C 
BRANCH  14  15
HETATM   15 Se           1     -28.661  -3.696 -17.063  0.00  0.00     0.000 Se
HETATM   16  H           1     -29.950  -2.990 -16.970  0.00  0.00     0.000 HD
ENDBRANCH  14  15
ENDBRANCH  13  14
BRANCH  13  17
HETATM   17  C           1     -29.851  -7.319 -18.177  0.00  0.00     0.196 C 
HETATM   18  O           1     -30.877  -7.114 -17.493  0.00  0.00    -0.646 OA
HETATM   19  O           1     -29.764  -8.349 -18.879  0.00  0.00    -0.646 OA
ENDBRANCH  13  17
ENDBRANCH   2  13
TORSDOF 8
ENDMDL
MODEL 2
REMARK VINA RESULT:      -5.2      2.129      2.607
REMARK  8 active torsions:
REMARK  status: ('A' for Active; 'I' for Inactive)
REMARK    1  A    between atoms: Se_2  and  C_3 
REMARK    2  A    between atoms: C_3  and  C_4 
REMARK    3  A    between atoms: C_4  and  C_5 
REMARK    4  A    between atoms: C_4  and  N_10 
REMARK    5  A    between atoms: C_7  and  C_8 
REMARK    6  A    between atoms: C_7  and  C_16 
REMARK    7  A    between atoms: C_7  and  N_14 
REMARK       I    between atoms: C_8  and  N_10 
REMARK    8  A    between atoms: O_9  and  C_16 
ROOT
HETATM    1  C           1     -26.350  -6.387 -19.835  0.00  0.00     0.251 C 
HETATM    2  N           1     -26.742  -6.526 -18.531  0.00  0.00    -0.345 N 
HETATM    3  O           1     -27.024  -5.743 -20.602  0.00  0.00    -0.271 OA
HETATM    4  H           1     -26.176  -7.065 -17.887  0.00  0.00     0.163 HD
ENDROOT
BRANCH   1   5
HETATM    5  C           1     -25.076  -7.038 -20.314  0.00  0.00     0.297 C 
BRANCH   5   6
HETATM    6  C           1     -25.413  -8.173 -21.272  0.00  0.00     0.206 C 
BRANCH   6   7
HETATM    7  O           1     -26.759  -8.533 -21.116  0.00  0.00    -0.398 OA
HETATM    8  H           1     -26.883  -9.340 -21.585  0.00  0.00     0.209 HD
ENDBRANCH   6   7
ENDBRANCH   5   6
BRANCH   5   9
HETATM    9  N           1     -24.323  -7.586 -19.138  0.00  0.00    -0.064 N 
HETATM   10  H           1     -24.817  -7.325 -18.255  0.00  0.00     0.275 HD
HETATM   11  H           1     -23.357  -7.189 -19.126  0.00  0.00     0.275 HD
HETATM   12  H           1     -24.271  -8.627 -19.212  0.00  0.00     0.275 HD
ENDBRANCH   5   9
ENDBRANCH   1   5
BRANCH   2  13
HETATM   13  C           1     -27.966  -5.901 -18.070  0.00  0.00     0.185 C 
BRANCH  13  14
HETATM   14  C           1     -29.002  -6.976 -17.769  0.00  0.00     0.039 C 
BRANCH  14  15
HETATM   15 Se           1     -30.667  -6.135 -17.203  0.00  0.00     0.000 Se
HETATM   16  H           1     -31.433  -6.598 -18.371  0.00  0.00     0.000 HD
ENDBRANCH  14  15
ENDBRANCH  13  14
BRANCH  13  17
HETATM   17  C           1     -27.684  -5.108 -16.818  0.00  0.00     0.196 C 
HETATM   18  O           1     -27.233  -5.682 -15.803  0.00  0.00    -0.646 OA
HETATM   19  O           1     -27.901  -3.878 -16.794  0.00  0.00    -0.646 OA
ENDBRANCH  13  17
ENDBRANCH   2  13
TORSDOF 8
ENDMDL
MODEL 3
REMARK VINA RESULT:      -5.1     11.174     12.292
REMARK  8 active torsions:
REMARK  status: ('A' for Active; 'I' for Inactive)
REMARK    1  A    between atoms: Se_2  and  C_3 
REMARK    2  A    between atoms: C_3  and  C_4 
REMARK    3  A    between atoms: C_4  and  C_5 
REMARK    4  A    between atoms: C_4  and  N_10 
REMARK    5  A    between atoms: C_7  and  C_8 
REMARK    6  A    between atoms: C_7  and  C_16 
REMARK    7  A    between atoms: C_7  and  N_14 
REMARK       I    between atoms: C_8  and  N_10 
REMARK    8  A    between atoms: O_9  and  C_16 
ROOT
HETATM    1  C           1     -21.842  -4.733  -7.762  0.00  0.00     0.251 C 
HETATM    2  N           1     -22.319  -4.816  -9.043  0.00  0.00    -0.345 N 
HETATM    3  O           1     -21.877  -3.679  -7.173  0.00  0.00    -0.271 OA
HETATM    4  H           1     -22.290  -5.698  -9.538  0.00  0.00     0.163 HD
ENDROOT
BRANCH   1   5
HETATM    5  C           1     -21.273  -5.957  -7.088  0.00  0.00     0.297 C 
BRANCH   5   6
HETATM    6  C           1     -21.445  -5.832  -5.580  0.00  0.00     0.206 C 
BRANCH   6   7
HETATM    7  O           1     -22.806  -5.922  -5.255  0.00  0.00    -0.398 OA
HETATM    8  H           1     -23.279  -5.459  -5.925  0.00  0.00     0.209 HD
ENDBRANCH   6   7
ENDBRANCH   5   6
BRANCH   5   9
HETATM    9  N           1     -19.815  -6.076  -7.417  0.00  0.00    -0.064 N 
HETATM   10  H           1     -19.266  -5.427  -6.807  0.00  0.00     0.275 HD
HETATM   11  H           1     -19.661  -5.825  -8.419  0.00  0.00     0.275 HD
HETATM   12  H           1     -19.499  -7.058  -7.251  0.00  0.00     0.275 HD
ENDBRANCH   5   9
ENDBRANCH   1   5
BRANCH   2  13
HETATM   13  C           1     -22.865  -3.640  -9.692  0.00  0.00     0.185 C 
BRANCH  13  14
HETATM   14  C           1     -22.022  -3.296 -10.913  0.00  0.00     0.039 C 
BRANCH  14  15
HETATM   15 Se           1     -20.377  -4.342 -10.882  0.00  0.00     0.000 Se
HETATM   16  H           1     -20.907  -5.364  -9.966  0.00  0.00     0.000 HD
ENDBRANCH  14  15
ENDBRANCH  13  14
BRANCH  13  17
HETATM   17  C           1     -24.285  -3.918 -10.122  0.00  0.00     0.196 C 
HETATM   18  O           1     -24.891  -3.097 -10.845  0.00  0.00    -0.646 OA
HETATM   19  O           1     -24.854  -4.968  -9.756  0.00  0.00    -0.646 OA
ENDBRANCH  13  17
ENDBRANCH   2  13
TORSDOF 8
ENDMDL
MODEL 4
REMARK VINA RESULT:      -5.0      2.172      2.395
REMARK  8 active torsions:
REMARK  status: ('A' for Active; 'I' for Inactive)
REMARK    1  A    between atoms: Se_2  and  C_3 
REMARK    2  A    between atoms: C_3  and  C_4 
REMARK    3  A    between atoms: C_4  and  C_5 
REMARK    4  A    between atoms: C_4  and  N_10 
REMARK    5  A    between atoms: C_7  and  C_8 
REMARK    6  A    between atoms: C_7  and  C_16 
REMARK    7  A    between atoms: C_7  and  N_14 
REMARK       I    between atoms: C_8  and  N_10 
REMARK    8  A    between atoms: O_9  and  C_16 
ROOT
HETATM    1  C           1     -25.962  -6.978 -16.355  0.00  0.00     0.251 C 
HETATM    2  N           1     -27.110  -6.558 -16.972  0.00  0.00    -0.345 N 
HETATM    3  O           1     -26.014  -7.469 -15.254  0.00  0.00    -0.271 OA
HETATM    4  H           1     -27.068  -6.147 -17.896  0.00  0.00     0.163 HD
ENDROOT
BRANCH   1   5
HETATM    5  C           1     -24.633  -6.829 -17.054  0.00  0.00     0.297 C 
BRANCH   5   6
HETATM    6  C           1     -24.837  -6.928 -18.560  0.00  0.00     0.206 C 
BRANCH   6   7
HETATM    7  O           1     -23.712  -7.526 -19.146  0.00  0.00    -0.398 OA
HETATM    8  H           1     -22.964  -7.256 -18.642  0.00  0.00     0.209 HD
ENDBRANCH   6   7
ENDBRANCH   5   6
BRANCH   5   9
HETATM    9  N           1     -23.707  -7.919 -16.603  0.00  0.00    -0.064 N 
HETATM   10  H           1     -23.140  -8.253 -17.415  0.00  0.00     0.275 HD
HETATM   11  H           1     -24.264  -8.713 -16.218  0.00  0.00     0.275 HD
HETATM   12  H           1     -23.068  -7.549 -15.863  0.00  0.00     0.275 HD
ENDBRANCH   5   9
ENDBRANCH   1   5
BRANCH   2  13
HETATM   13  C           1     -28.388  -6.701 -16.301  0.00  0.00     0.185 C 
BRANCH  13  14
HETATM   14  C           1     -28.809  -5.357 -15.721  0.00  0.00     0.039 C 
BRANCH  14  15
HETATM   15 Se           1     -28.222  -3.925 -16.906  0.00  0.00     0.000 Se
HETATM   16  H           1     -26.788  -4.189 -16.706  0.00  0.00     0.000 HD
ENDBRANCH  14  15
ENDBRANCH  13  14
BRANCH  13  17
HETATM   17  C           1     -29.425  -7.170 -17.291  0.00  0.00     0.196 C 
HETATM   18  O           1     -29.713  -8.384 -17.366  0.00  0.00    -0.646 OA
HETATM   19  O           1     -29.996  -6.345 -18.036  0.00  0.00    -0.646 OA
ENDBRANCH  13  17
ENDBRANCH   2  13
TORSDOF 8
ENDMDL
MODEL 5
REMARK VINA RESULT:      -4.9      3.284      5.690
REMARK  8 active torsions:
REMARK  status: ('A' for Active; 'I' for Inactive)
REMARK    1  A    between atoms: Se_2  and  C_3 
REMARK    2  A    between atoms: C_3  and  C_4 
REMARK    3  A    between atoms: C_4  and  C_5 
REMARK    4  A    between atoms: C_4  and  N_10 
REMARK    5  A    between atoms: C_7  and  C_8 
REMARK    6  A    between atoms: C_7  and  C_16 
REMARK    7  A    between atoms: C_7  and  N_14 
REMARK       I    between atoms: C_8  and  N_10 
REMARK    8  A    between atoms: O_9  and  C_16 
ROOT
HETATM    1  C           1     -29.917  -5.421 -17.102  0.00  0.00     0.251 C 
HETATM    2  N           1     -28.598  -5.430 -16.736  0.00  0.00    -0.345 N 
HETATM    3  O           1     -30.399  -6.384 -17.648  0.00  0.00    -0.271 OA
HETATM    4  H           1     -28.194  -4.623 -16.278  0.00  0.00     0.163 HD
ENDROOT
BRANCH   1   5
HETATM    5  C           1     -30.769  -4.207 -16.823  0.00  0.00     0.297 C 
BRANCH   5   6
HETATM    6  C           1     -32.241  -4.580 -16.940  0.00  0.00     0.206 C 
BRANCH   6   7
HETATM    7  O           1     -32.875  -4.374 -15.707  0.00  0.00    -0.398 OA
HETATM    8  H           1     -32.368  -4.831 -15.058  0.00  0.00     0.209 HD
ENDBRANCH   6   7
ENDBRANCH   5   6
BRANCH   5   9
HETATM    9  N           1     -30.446  -3.131 -17.817  0.00  0.00    -0.064 N 
HETATM   10  H           1     -31.320  -2.839 -18.311  0.00  0.00     0.275 HD
HETATM   11  H           1     -29.758  -3.495 -18.513  0.00  0.00     0.275 HD
HETATM   12  H           1     -30.038  -2.308 -17.320  0.00  0.00     0.275 HD
ENDBRANCH   5   9
ENDBRANCH   1   5
BRANCH   2  13
HETATM   13  C           1     -27.779  -6.596 -17.004  0.00  0.00     0.185 C 
BRANCH  13  14
HETATM   14  C           1     -26.595  -6.195 -17.874  0.00  0.00     0.039 C 
BRANCH  14  15
HETATM   15 Se           1     -27.039  -6.482 -19.750  0.00  0.00     0.000 Se
HETATM   16  H           1     -27.945  -7.611 -19.483  0.00  0.00     0.000 HD
ENDBRANCH  14  15
ENDBRANCH  13  14
BRANCH  13  17
HETATM   17  C           1     -27.277  -7.167 -15.701  0.00  0.00     0.196 C 
HETATM   18  O           1     -26.047  -7.264 -15.494  0.00  0.00    -0.646 OA
HETATM   19  O           1     -28.089  -7.542 -14.828  0.00  0.00    -0.646 OA
ENDBRANCH  13  17
ENDBRANCH   2  13
TORSDOF 8
ENDMDL
MODEL 6
REMARK VINA RESULT:      -4.4     12.075     13.371
REMARK  8 active torsions:
REMARK  status: ('A' for Active; 'I' for Inactive)
REMARK    1  A    between atoms: Se_2  and  C_3 
REMARK    2  A    between atoms: C_3  and  C_4 
REMARK    3  A    between atoms: C_4  and  C_5 
REMARK    4  A    between atoms: C_4  and  N_10 
REMARK    5  A    between atoms: C_7  and  C_8 
REMARK    6  A    between atoms: C_7  and  C_16 
REMARK    7  A    between atoms: C_7  and  N_14 
REMARK       I    between atoms: C_8  and  N_10 
REMARK    8  A    between atoms: O_9  and  C_16 
ROOT
HETATM    1  C           1     -22.370  -4.166  -8.237  0.00  0.00     0.251 C 
HETATM    2  N           1     -22.059  -4.872  -7.106  0.00  0.00    -0.345 N 
HETATM    3  O           1     -21.608  -3.327  -8.653  0.00  0.00    -0.271 OA
HETATM    4  H           1     -22.697  -5.576  -6.757  0.00  0.00     0.163 HD
ENDROOT
BRANCH   1   5
HETATM    5  C           1     -23.665  -4.437  -8.963  0.00  0.00     0.297 C 
BRANCH   5   6
HETATM    6  C           1     -23.371  -4.763 -10.421  0.00  0.00     0.206 C 
BRANCH   6   7
HETATM    7  O           1     -23.046  -3.585 -11.108  0.00  0.00    -0.398 OA
HETATM    8  H           1     -23.217  -2.869 -10.520  0.00  0.00     0.209 HD
ENDBRANCH   6   7
ENDBRANCH   5   6
BRANCH   5   9
HETATM    9  N           1     -24.542  -3.223  -8.890  0.00  0.00    -0.064 N 
HETATM   10  H           1     -25.352  -3.338  -9.541  0.00  0.00     0.275 HD
HETATM   11  H           1     -23.992  -2.379  -9.164  0.00  0.00     0.275 HD
HETATM   12  H           1     -24.896  -3.107  -7.913  0.00  0.00     0.275 HD
ENDBRANCH   5   9
ENDBRANCH   1   5
BRANCH   2  13
HETATM   13  C           1     -20.815  -4.612  -6.407  0.00  0.00     0.185 C 
BRANCH  13  14
HETATM   14  C           1     -20.863  -5.259  -5.029  0.00  0.00     0.039 C 
BRANCH  14  15
HETATM   15 Se           1     -22.216  -6.661  -5.016  0.00  0.00     0.000 Se
HETATM   16  H           1     -23.011  -6.046  -3.941  0.00  0.00     0.000 HD
ENDBRANCH  14  15
ENDBRANCH  13  14
BRANCH  13  17
HETATM   17  C           1     -19.666  -5.191  -7.196  0.00  0.00     0.196 C 
HETATM   18  O           1     -19.694  -6.389  -7.552  0.00  0.00    -0.646 OA
HETATM   19  O           1     -18.688  -4.473  -7.494  0.00  0.00    -0.646 OA
ENDBRANCH  13  17
ENDBRANCH   2  13
TORSDOF 8
ENDMDL
MODEL 7
REMARK VINA RESULT:      -4.3     10.804     12.177
REMARK  8 active torsions:
REMARK  status: ('A' for Active; 'I' for Inactive)
REMARK    1  A    between atoms: Se_2  and  C_3 
REMARK    2  A    between atoms: C_3  and  C_4 
REMARK    3  A    between atoms: C_4  and  C_5 
REMARK    4  A    between atoms: C_4  and  N_10 
REMARK    5  A    between atoms: C_7  and  C_8 
REMARK    6  A    between atoms: C_7  and  C_16 
REMARK    7  A    between atoms: C_7  and  N_14 
REMARK       I    between atoms: C_8  and  N_10 
REMARK    8  A    between atoms: O_9  and  C_16 
ROOT
HETATM    1  C           1     -20.787  -4.626  -8.680  0.00  0.00     0.251 C 
HETATM    2  N           1     -21.900  -4.205  -9.356  0.00  0.00    -0.345 N 
HETATM    3  O           1     -19.978  -5.334  -9.231  0.00  0.00    -0.271 OA
HETATM    4  H           1     -22.578  -3.611  -8.895  0.00  0.00     0.163 HD
ENDROOT
BRANCH   1   5
HETATM    5  C           1     -20.570  -4.205  -7.247  0.00  0.00     0.297 C 
BRANCH   5   6
HETATM    6  C           1     -20.828  -5.389  -6.325  0.00  0.00     0.206 C 
BRANCH   6   7
HETATM    7  O           1     -20.145  -6.515  -6.806  0.00  0.00    -0.398 OA
HETATM    8  H           1     -19.459  -6.200  -7.370  0.00  0.00     0.209 HD
ENDBRANCH   6   7
ENDBRANCH   5   6
BRANCH   5   9
HETATM    9  N           1     -21.514  -3.091  -6.906  0.00  0.00    -0.064 N 
HETATM   10  H           1     -21.029  -2.400  -6.290  0.00  0.00     0.275 HD
HETATM   11  H           1     -22.345  -3.479  -6.407  0.00  0.00     0.275 HD
HETATM   12  H           1     -21.824  -2.617  -7.784  0.00  0.00     0.275 HD
ENDBRANCH   5   9
ENDBRANCH   1   5
BRANCH   2  13
HETATM   13  C           1     -22.110  -4.609 -10.733  0.00  0.00     0.185 C 
BRANCH  13  14
HETATM   14  C           1     -23.602  -4.763 -10.995  0.00  0.00     0.039 C 
BRANCH  14  15
HETATM   15 Se           1     -24.589  -3.485  -9.902  0.00  0.00     0.000 Se
HETATM   16  H           1     -25.045  -2.682 -11.048  0.00  0.00     0.000 HD
ENDBRANCH  14  15
ENDBRANCH  13  14
BRANCH  13  17
HETATM   17  C           1     -21.542  -3.559 -11.656  0.00  0.00     0.196 C 
HETATM   18  O           1     -21.788  -3.605 -12.881  0.00  0.00    -0.646 OA
HETATM   19  O           1     -20.826  -2.644 -11.196  0.00  0.00    -0.646 OA
ENDBRANCH  13  17
ENDBRANCH   2  13
TORSDOF 8
ENDMDL
MODEL 8
REMARK VINA RESULT:      -4.3     14.649     15.691
REMARK  8 active torsions:
REMARK  status: ('A' for Active; 'I' for Inactive)
REMARK    1  A    between atoms: Se_2  and  C_3 
REMARK    2  A    between atoms: C_3  and  C_4 
REMARK    3  A    between atoms: C_4  and  C_5 
REMARK    4  A    between atoms: C_4  and  N_10 
REMARK    5  A    between atoms: C_7  and  C_8 
REMARK    6  A    between atoms: C_7  and  C_16 
REMARK    7  A    between atoms: C_7  and  N_14 
REMARK       I    between atoms: C_8  and  N_10 
REMARK    8  A    between atoms: O_9  and  C_16 
ROOT
HETATM    1  C           1     -21.626  -5.931  -5.744  0.00  0.00     0.251 C 
HETATM    2  N           1     -21.009  -6.838  -4.924  0.00  0.00    -0.345 N 
HETATM    3  O           1     -22.811  -5.726  -5.633  0.00  0.00    -0.271 OA
HETATM    4  H           1     -20.016  -7.009  -5.016  0.00  0.00     0.163 HD
ENDROOT
BRANCH   1   5
HETATM    5  C           1     -20.825  -5.187  -6.784  0.00  0.00     0.297 C 
BRANCH   5   6
HETATM    6  C           1     -21.758  -4.671  -7.871  0.00  0.00     0.206 C 
BRANCH   6   7
HETATM    7  O           1     -22.226  -3.397  -7.519  0.00  0.00    -0.398 OA
HETATM    8  H           1     -22.865  -3.518  -6.837  0.00  0.00     0.209 HD
ENDBRANCH   6   7
ENDBRANCH   5   6
BRANCH   5   9
HETATM    9  N           1     -19.815  -6.114  -7.393  0.00  0.00    -0.064 N 
HETATM   10  H           1     -19.077  -6.338  -6.687  0.00  0.00     0.275 HD
HETATM   11  H           1     -19.375  -5.656  -8.222  0.00  0.00     0.275 HD
HETATM   12  H           1     -20.288  -6.997  -7.692  0.00  0.00     0.275 HD
ENDBRANCH   5   9
ENDBRANCH   1   5
BRANCH   2  13
HETATM   13  C           1     -21.778  -7.553  -3.925  0.00  0.00     0.185 C 
BRANCH  13  14
HETATM   14  C           1     -21.305  -8.999  -3.859  0.00  0.00     0.039 C 
BRANCH  14  15
HETATM   15 Se           1     -19.588  -9.163  -4.766  0.00  0.00     0.000 Se
HETATM   16  H           1     -18.859  -8.345  -3.784  0.00  0.00     0.000 HD
ENDBRANCH  14  15
ENDBRANCH  13  14
BRANCH  13  17
HETATM   17  C           1     -21.584  -6.898  -2.579  0.00  0.00     0.196 C 
HETATM   18  O           1     -22.272  -5.903  -2.263  0.00  0.00    -0.646 OA
HETATM   19  O           1     -20.736  -7.350  -1.781  0.00  0.00    -0.646 OA
ENDBRANCH  13  17
ENDBRANCH   2  13
TORSDOF 8
ENDMDL
MODEL 9
REMARK VINA RESULT:      -4.2      3.625      5.630
REMARK  8 active torsions:
REMARK  status: ('A' for Active; 'I' for Inactive)
REMARK    1  A    between atoms: Se_2  and  C_3 
REMARK    2  A    between atoms: C_3  and  C_4 
REMARK    3  A    between atoms: C_4  and  C_5 
REMARK    4  A    between atoms: C_4  and  N_10 
REMARK    5  A    between atoms: C_7  and  C_8 
REMARK    6  A    between atoms: C_7  and  C_16 
REMARK    7  A    between atoms: C_7  and  N_14 
REMARK       I    between atoms: C_8  and  N_10 
REMARK    8  A    between atoms: O_9  and  C_16 
ROOT
HETATM    1  C           1     -29.686  -4.735 -16.772  0.00  0.00     0.251 C 
HETATM    2  N           1     -28.520  -5.427 -16.965  0.00  0.00    -0.345 N 
HETATM    3  O           1     -30.444  -5.065 -15.892  0.00  0.00    -0.271 OA
HETATM    4  H           1     -27.884  -5.150 -17.702  0.00  0.00     0.163 HD
ENDROOT
BRANCH   1   5
HETATM    5  C           1     -30.022  -3.561 -17.658  0.00  0.00     0.297 C 
BRANCH   5   6
HETATM    6  C           1     -29.057  -2.418 -17.373  0.00  0.00     0.206 C 
BRANCH   6   7
HETATM    7  O           1     -29.780  -1.231 -17.186  0.00  0.00    -0.398 OA
HETATM    8  H           1     -30.671  -1.410 -17.434  0.00  0.00     0.209 HD
ENDBRANCH   6   7
ENDBRANCH   5   6
BRANCH   5   9
HETATM    9  N           1     -31.425  -3.111 -17.379  0.00  0.00    -0.064 N 
HETATM   10  H           1     -31.663  -2.305 -18.000  0.00  0.00     0.275 HD
HETATM   11  H           1     -31.505  -2.816 -16.380  0.00  0.00     0.275 HD
HETATM   12  H           1     -32.087  -3.898 -17.564  0.00  0.00     0.275 HD
ENDBRANCH   5   9
ENDBRANCH   1   5
BRANCH   2  13
HETATM   13  C           1     -28.197  -6.556 -16.114  0.00  0.00     0.185 C 
BRANCH  13  14
HETATM   14  C           1     -28.875  -7.808 -16.653  0.00  0.00     0.039 C 
BRANCH  14  15
HETATM   15 Se           1     -29.456  -7.494 -18.487  0.00  0.00     0.000 Se
HETATM   16  H           1     -29.919  -8.875 -18.700  0.00  0.00     0.000 HD
ENDBRANCH  14  15
ENDBRANCH  13  14
BRANCH  13  17
HETATM   17  C           1     -26.702  -6.760 -16.099  0.00  0.00     0.196 C 
HETATM   18  O           1     -25.981  -6.162 -16.927  0.00  0.00    -0.646 OA
HETATM   19  O           1     -26.184  -7.525 -15.258  0.00  0.00    -0.646 OA
ENDBRANCH  13  17
ENDBRANCH   2  13
TORSDOF 8
ENDMDL
