MODEL 1
REMARK VINA RESULT:      -5.8      0.000      0.000
REMARK  6 active torsions:
REMARK  status: ('A' for Active; 'I' for Inactive)
REMARK       I    between atoms: C_6  and  N_9 
REMARK    1  A    between atoms: C_6  and  C_10 
REMARK       I    between atoms: C_7  and  N_8 
REMARK    2  A    between atoms: C_7  and  C_15 
REMARK    3  A    between atoms: N_9  and  C_14 
REMARK    4  A    between atoms: C_10  and  N_16 
REMARK    5  A    between atoms: C_14  and  C_15 
REMARK    6  A    between atoms: C_14  and  C_18 
ROOT
HETATM    1  C           1     -29.139  -5.967 -17.416  0.00  0.00     0.194 C 
ENDROOT
BRANCH   1   2
HETATM    2  N           1     -27.804  -6.522 -17.529  0.00  0.00    -0.345 N 
HETATM    3  H           1     -27.586  -7.167 -18.278  0.00  0.00     0.163 HD
HETATM    4  C           1     -26.839  -6.176 -16.622  0.00  0.00     0.243 C 
HETATM    5  O           1     -27.100  -5.406 -15.728  0.00  0.00    -0.272 OA
BRANCH   4   6
HETATM    6  C           1     -25.451  -6.754 -16.740  0.00  0.00     0.332 C 
BRANCH   6   7
HETATM    7  N           1     -25.128  -6.992 -18.186  0.00  0.00    -0.071 N 
HETATM    8  H           1     -25.459  -7.944 -18.464  0.00  0.00     0.274 HD
HETATM    9  H           1     -25.605  -6.271 -18.772  0.00  0.00     0.274 HD
HETATM   10  H           1     -24.095  -6.929 -18.328  0.00  0.00     0.274 HD
ENDBRANCH   6   7
ENDBRANCH   4   6
ENDBRANCH   1   2
BRANCH   1  11
HETATM   11  C           1     -29.313  -4.852 -18.438  0.00  0.00     0.138 C 
BRANCH  11  12
HETATM   12  C           1     -29.645  -3.563 -17.726  0.00  0.00     0.217 C 
HETATM   13  O           1     -28.771  -2.932 -17.182  0.00  0.00    -0.274 OA
HETATM   14  N           1     -30.936  -3.110 -17.697  0.00  0.00    -0.370 N 
HETATM   15  H           1     -31.669  -3.639 -18.152  0.00  0.00     0.159 HD
HETATM   16  H           1     -31.158  -2.246 -17.219  0.00  0.00     0.159 HD
ENDBRANCH  11  12
ENDBRANCH   1  11
BRANCH   1  17
HETATM   17  C           1     -30.157  -7.050 -17.673  0.00  0.00     0.197 C 
HETATM   18  O           1     -31.359  -6.858 -17.387  0.00  0.00    -0.646 OA
HETATM   19  O           1     -29.800  -8.138 -18.174  0.00  0.00    -0.646 OA
ENDBRANCH   1  17
TORSDOF 6
ENDMDL
MODEL 2
REMARK VINA RESULT:      -5.6      9.498     11.275
REMARK  6 active torsions:
REMARK  status: ('A' for Active; 'I' for Inactive)
REMARK       I    between atoms: C_6  and  N_9 
REMARK    1  A    between atoms: C_6  and  C_10 
REMARK       I    between atoms: C_7  and  N_8 
REMARK    2  A    between atoms: C_7  and  C_15 
REMARK    3  A    between atoms: N_9  and  C_14 
REMARK    4  A    between atoms: C_10  and  N_16 
REMARK    5  A    between atoms: C_14  and  C_15 
REMARK    6  A    between atoms: C_14  and  C_18 
ROOT
HETATM    1  C           1     -35.817  -0.506 -12.557  0.00  0.00     0.194 C 
ENDROOT
BRANCH   1   2
HETATM    2  N           1     -36.065   0.247 -11.343  0.00  0.00    -0.345 N 
HETATM    3  H           1     -35.369   0.896 -10.999  0.00  0.00     0.163 HD
HETATM    4  C           1     -37.239   0.077 -10.660  0.00  0.00     0.243 C 
HETATM    5  O           1     -38.070  -0.698 -11.070  0.00  0.00    -0.272 OA
BRANCH   4   6
HETATM    6  C           1     -37.496   0.860  -9.395  0.00  0.00     0.332 C 
BRANCH   6   7
HETATM    7  N           1     -36.190   1.180  -8.731  0.00  0.00    -0.071 N 
HETATM    8  H           1     -36.079   0.588  -7.877  0.00  0.00     0.274 HD
HETATM    9  H           1     -35.405   0.987  -9.393  0.00  0.00     0.274 HD
HETATM   10  H           1     -36.175   2.188  -8.458  0.00  0.00     0.274 HD
ENDBRANCH   6   7
ENDBRANCH   4   6
ENDBRANCH   1   2
BRANCH   1  11
HETATM   11  C           1     -35.367   0.444 -13.659  0.00  0.00     0.138 C 
BRANCH  11  12
HETATM   12  C           1     -36.294   0.319 -14.843  0.00  0.00     0.217 C 
HETATM   13  O           1     -36.975  -0.670 -14.974  0.00  0.00    -0.274 OA
HETATM   14  N           1     -36.363   1.325 -15.769  0.00  0.00    -0.370 N 
HETATM   15  H           1     -35.793   2.154 -15.658  0.00  0.00     0.159 HD
HETATM   16  H           1     -36.985   1.241 -16.562  0.00  0.00     0.159 HD
ENDBRANCH  11  12
ENDBRANCH   1  11
BRANCH   1  17
HETATM   17  C           1     -34.740  -1.530 -12.303  0.00  0.00     0.197 C 
HETATM   18  O           1     -34.025  -1.446 -11.280  0.00  0.00    -0.646 OA
HETATM   19  O           1     -34.561  -2.464 -13.115  0.00  0.00    -0.646 OA
ENDBRANCH   1  17
TORSDOF 6
ENDMDL
MODEL 3
REMARK VINA RESULT:      -5.6      9.043     10.747
REMARK  6 active torsions:
REMARK  status: ('A' for Active; 'I' for Inactive)
REMARK       I    between atoms: C_6  and  N_9 
REMARK    1  A    between atoms: C_6  and  C_10 
REMARK       I    between atoms: C_7  and  N_8 
REMARK    2  A    between atoms: C_7  and  C_15 
REMARK    3  A    between atoms: N_9  and  C_14 
REMARK    4  A    between atoms: C_10  and  N_16 
REMARK    5  A    between atoms: C_14  and  C_15 
REMARK    6  A    between atoms: C_14  and  C_18 
ROOT
HETATM    1  C           1     -22.895  -3.695  -9.896  0.00  0.00     0.194 C 
ENDROOT
BRANCH   1   2
HETATM    2  N           1     -22.816  -4.639  -8.798  0.00  0.00    -0.345 N 
HETATM    3  H           1     -23.309  -5.521  -8.852  0.00  0.00     0.163 HD
HETATM    4  C           1     -22.076  -4.336  -7.687  0.00  0.00     0.243 C 
HETATM    5  O           1     -21.487  -3.283  -7.622  0.00  0.00    -0.272 OA
BRANCH   4   6
HETATM    6  C           1     -21.994  -5.318  -6.544  0.00  0.00     0.332 C 
BRANCH   6   7
HETATM    7  N           1     -21.033  -6.415  -6.894  0.00  0.00    -0.071 N 
HETATM    8  H           1     -20.432  -6.110  -7.692  0.00  0.00     0.274 HD
HETATM    9  H           1     -20.432  -6.628  -6.066  0.00  0.00     0.274 HD
HETATM   10  H           1     -21.565  -7.271  -7.167  0.00  0.00     0.274 HD
ENDBRANCH   6   7
ENDBRANCH   4   6
ENDBRANCH   1   2
BRANCH   1  11
HETATM   11  C           1     -22.217  -4.288 -11.124  0.00  0.00     0.138 C 
BRANCH  11  12
HETATM   12  C           1     -20.732  -4.027 -11.055  0.00  0.00     0.217 C 
HETATM   13  O           1     -19.996  -4.855 -10.574  0.00  0.00    -0.274 OA
HETATM   14  N           1     -20.220  -2.853 -11.538  0.00  0.00    -0.370 N 
HETATM   15  H           1     -20.837  -2.160 -11.940  0.00  0.00     0.159 HD
HETATM   16  H           1     -19.224  -2.679 -11.492  0.00  0.00     0.159 HD
ENDBRANCH  11  12
ENDBRANCH   1  11
BRANCH   1  17
HETATM   17  C           1     -24.342  -3.408 -10.209  0.00  0.00     0.197 C 
HETATM   18  O           1     -24.812  -3.711 -11.327  0.00  0.00    -0.646 OA
HETATM   19  O           1     -25.073  -2.868  -9.349  0.00  0.00    -0.646 OA
ENDBRANCH   1  17
TORSDOF 6
ENDMDL
MODEL 4
REMARK VINA RESULT:      -5.6      8.310     10.230
REMARK  6 active torsions:
REMARK  status: ('A' for Active; 'I' for Inactive)
REMARK       I    between atoms: C_6  and  N_9 
REMARK    1  A    between atoms: C_6  and  C_10 
REMARK       I    between atoms: C_7  and  N_8 
REMARK    2  A    between atoms: C_7  and  C_15 
REMARK    3  A    between atoms: N_9  and  C_14 
REMARK    4  A    between atoms: C_10  and  N_16 
REMARK    5  A    between atoms: C_14  and  C_15 
REMARK    6  A    between atoms: C_14  and  C_18 
ROOT
HETATM    1  C           1     -34.759  -1.837 -11.633  0.00  0.00     0.194 C 
ENDROOT
BRANCH   1   2
HETATM    2  N           1     -34.572  -0.521 -12.212  0.00  0.00    -0.345 N 
HETATM    3  H           1     -34.056   0.186 -11.704  0.00  0.00     0.163 HD
HETATM    4  C           1     -35.095  -0.235 -13.444  0.00  0.00     0.243 C 
HETATM    5  O           1     -35.711  -1.079 -14.049  0.00  0.00    -0.272 OA
BRANCH   4   6
HETATM    6  C           1     -34.901   1.136 -14.045  0.00  0.00     0.332 C 
BRANCH   6   7
HETATM    7  N           1     -35.891   1.340 -15.154  0.00  0.00    -0.071 N 
HETATM    8  H           1     -36.860   1.216 -14.783  0.00  0.00     0.274 HD
HETATM    9  H           1     -35.787   2.306 -15.540  0.00  0.00     0.274 HD
HETATM   10  H           1     -35.717   0.642 -15.911  0.00  0.00     0.274 HD
ENDBRANCH   6   7
ENDBRANCH   4   6
ENDBRANCH   1   2
BRANCH   1  11
HETATM   11  C           1     -33.474  -2.274 -10.942  0.00  0.00     0.138 C 
BRANCH  11  12
HETATM   12  C           1     -33.256  -3.750 -11.170  0.00  0.00     0.217 C 
HETATM   13  O           1     -32.431  -4.121 -11.971  0.00  0.00    -0.274 OA
HETATM   14  N           1     -33.992  -4.668 -10.470  0.00  0.00    -0.370 N 
HETATM   15  H           1     -34.682  -4.357  -9.799  0.00  0.00     0.159 HD
HETATM   16  H           1     -33.845  -5.657 -10.623  0.00  0.00     0.159 HD
ENDBRANCH  11  12
ENDBRANCH   1  11
BRANCH   1  17
HETATM   17  C           1     -35.881  -1.789 -10.626  0.00  0.00     0.197 C 
HETATM   18  O           1     -36.659  -2.762 -10.509  0.00  0.00    -0.646 OA
HETATM   19  O           1     -36.034  -0.778  -9.907  0.00  0.00    -0.646 OA
ENDBRANCH   1  17
TORSDOF 6
ENDMDL
MODEL 5
REMARK VINA RESULT:      -5.5      2.096      3.470
REMARK  6 active torsions:
REMARK  status: ('A' for Active; 'I' for Inactive)
REMARK       I    between atoms: C_6  and  N_9 
REMARK    1  A    between atoms: C_6  and  C_10 
REMARK       I    between atoms: C_7  and  N_8 
REMARK    2  A    between atoms: C_7  and  C_15 
REMARK    3  A    between atoms: N_9  and  C_14 
REMARK    4  A    between atoms: C_10  and  N_16 
REMARK    5  A    between atoms: C_14  and  C_15 
REMARK    6  A    between atoms: C_14  and  C_18 
ROOT
HETATM    1  C           1     -28.262  -6.114 -18.059  0.00  0.00     0.194 C 
ENDROOT
BRANCH   1   2
HETATM    2  N           1     -26.864  -6.484 -18.159  0.00  0.00    -0.345 N 
HETATM    3  H           1     -26.331  -6.680 -17.321  0.00  0.00     0.163 HD
HETATM    4  C           1     -26.262  -6.564 -19.386  0.00  0.00     0.243 C 
HETATM    5  O           1     -26.898  -6.328 -20.386  0.00  0.00    -0.272 OA
BRANCH   4   6
HETATM    6  C           1     -24.807  -6.947 -19.489  0.00  0.00     0.332 C 
BRANCH   6   7
HETATM    7  N           1     -24.303  -7.367 -18.140  0.00  0.00    -0.071 N 
HETATM    8  H           1     -23.275  -7.186 -18.080  0.00  0.00     0.274 HD
HETATM    9  H           1     -24.797  -6.822 -17.398  0.00  0.00     0.274 HD
HETATM   10  H           1     -24.484  -8.387 -18.002  0.00  0.00     0.274 HD
ENDBRANCH   6   7
ENDBRANCH   4   6
ENDBRANCH   1   2
BRANCH   1  11
HETATM   11  C           1     -29.008  -7.167 -17.250  0.00  0.00     0.138 C 
BRANCH  11  12
HETATM   12  C           1     -30.398  -7.343 -17.811  0.00  0.00     0.217 C 
HETATM   13  O           1     -30.580  -8.077 -18.753  0.00  0.00    -0.274 OA
HETATM   14  N           1     -31.452  -6.672 -17.253  0.00  0.00    -0.370 N 
HETATM   15  H           1     -31.300  -6.057 -16.463  0.00  0.00     0.159 HD
HETATM   16  H           1     -32.384  -6.790 -17.629  0.00  0.00     0.159 HD
ENDBRANCH  11  12
ENDBRANCH   1  11
BRANCH   1  17
HETATM   17  C           1     -28.382  -4.776 -17.375  0.00  0.00     0.197 C 
HETATM   18  O           1     -27.473  -4.379 -16.613  0.00  0.00    -0.646 OA
HETATM   19  O           1     -29.389  -4.061 -17.570  0.00  0.00    -0.646 OA
ENDBRANCH   1  17
TORSDOF 6
ENDMDL
MODEL 6
REMARK VINA RESULT:      -5.4      2.232      3.083
REMARK  6 active torsions:
REMARK  status: ('A' for Active; 'I' for Inactive)
REMARK       I    between atoms: C_6  and  N_9 
REMARK    1  A    between atoms: C_6  and  C_10 
REMARK       I    between atoms: C_7  and  N_8 
REMARK    2  A    between atoms: C_7  and  C_15 
REMARK    3  A    between atoms: N_9  and  C_14 
REMARK    4  A    between atoms: C_10  and  N_16 
REMARK    5  A    between atoms: C_14  and  C_15 
REMARK    6  A    between atoms: C_14  and  C_18 
ROOT
HETATM    1  C           1     -27.036  -5.851 -16.683  0.00  0.00     0.194 C 
ENDROOT
BRANCH   1   2
HETATM    2  N           1     -27.366  -6.342 -18.007  0.00  0.00    -0.345 N 
HETATM    3  H           1     -28.331  -6.514 -18.257  0.00  0.00     0.163 HD
HETATM    4  C           1     -26.371  -6.574 -18.918  0.00  0.00     0.243 C 
HETATM    5  O           1     -25.219  -6.368 -18.620  0.00  0.00    -0.272 OA
BRANCH   4   6
HETATM    6  C           1     -26.715  -7.086 -20.296  0.00  0.00     0.332 C 
BRANCH   6   7
HETATM    7  N           1     -25.640  -8.022 -20.765  0.00  0.00    -0.071 N 
HETATM    8  H           1     -26.042  -8.695 -21.456  0.00  0.00     0.274 HD
HETATM    9  H           1     -24.874  -7.474 -21.216  0.00  0.00     0.274 HD
HETATM   10  H           1     -25.257  -8.550 -19.949  0.00  0.00     0.274 HD
ENDBRANCH   6   7
ENDBRANCH   4   6
ENDBRANCH   1   2
BRANCH   1  11
HETATM   11  C           1     -28.152  -4.940 -16.188  0.00  0.00     0.138 C 
BRANCH  11  12
HETATM   12  C           1     -29.267  -4.911 -17.204  0.00  0.00     0.217 C 
HETATM   13  O           1     -30.028  -5.844 -17.292  0.00  0.00    -0.274 OA
HETATM   14  N           1     -29.417  -3.826 -18.026  0.00  0.00    -0.370 N 
HETATM   15  H           1     -28.779  -3.044 -17.952  0.00  0.00     0.159 HD
HETATM   16  H           1     -30.165  -3.807 -18.707  0.00  0.00     0.159 HD
ENDBRANCH  11  12
ENDBRANCH   1  11
BRANCH   1  17
HETATM   17  C           1     -26.881  -7.017 -15.739  0.00  0.00     0.197 C 
HETATM   18  O           1     -27.887  -7.503 -15.176  0.00  0.00    -0.646 OA
HETATM   19  O           1     -25.748  -7.498 -15.520  0.00  0.00    -0.646 OA
ENDBRANCH   1  17
TORSDOF 6
ENDMDL
MODEL 7
REMARK VINA RESULT:      -5.4      8.315      9.727
REMARK  6 active torsions:
REMARK  status: ('A' for Active; 'I' for Inactive)
REMARK       I    between atoms: C_6  and  N_9 
REMARK    1  A    between atoms: C_6  and  C_10 
REMARK       I    between atoms: C_7  and  N_8 
REMARK    2  A    between atoms: C_7  and  C_15 
REMARK    3  A    between atoms: N_9  and  C_14 
REMARK    4  A    between atoms: C_10  and  N_16 
REMARK    5  A    between atoms: C_14  and  C_15 
REMARK    6  A    between atoms: C_14  and  C_18 
ROOT
HETATM    1  C           1     -35.600  -0.871 -11.727  0.00  0.00     0.194 C 
ENDROOT
BRANCH   1   2
HETATM    2  N           1     -35.036  -2.202 -11.837  0.00  0.00    -0.345 N 
HETATM    3  H           1     -35.520  -2.915 -12.368  0.00  0.00     0.163 HD
HETATM    4  C           1     -33.850  -2.496 -11.220  0.00  0.00     0.243 C 
HETATM    5  O           1     -33.272  -1.646 -10.586  0.00  0.00    -0.272 OA
BRANCH   4   6
HETATM    6  C           1     -33.263  -3.882 -11.334  0.00  0.00     0.332 C 
BRANCH   6   7
HETATM    7  N           1     -33.204  -4.284 -12.779  0.00  0.00    -0.071 N 
HETATM    8  H           1     -32.575  -3.630 -13.296  0.00  0.00     0.274 HD
HETATM    9  H           1     -32.834  -5.258 -12.854  0.00  0.00     0.274 HD
HETATM   10  H           1     -34.163  -4.243 -13.192  0.00  0.00     0.274 HD
ENDBRANCH   6   7
ENDBRANCH   4   6
ENDBRANCH   1   2
BRANCH   1  11
HETATM   11  C           1     -36.277  -0.497 -13.039  0.00  0.00     0.138 C 
BRANCH  11  12
HETATM   12  C           1     -35.299  -0.662 -14.176  0.00  0.00     0.217 C 
HETATM   13  O           1     -35.118  -1.753 -14.663  0.00  0.00    -0.274 OA
HETATM   14  N           1     -34.616   0.423 -14.655  0.00  0.00    -0.370 N 
HETATM   15  H           1     -34.767   1.337 -14.247  0.00  0.00     0.159 HD
HETATM   16  H           1     -33.960   0.312 -15.418  0.00  0.00     0.159 HD
ENDBRANCH  11  12
ENDBRANCH   1  11
BRANCH   1  17
HETATM   17  C           1     -36.614  -0.845 -10.611  0.00  0.00     0.197 C 
HETATM   18  O           1     -37.814  -1.107 -10.850  0.00  0.00    -0.646 OA
HETATM   19  O           1     -36.257  -0.564  -9.446  0.00  0.00    -0.646 OA
ENDBRANCH   1  17
TORSDOF 6
ENDMDL
MODEL 8
REMARK VINA RESULT:      -5.4      9.009     10.702
REMARK  6 active torsions:
REMARK  status: ('A' for Active; 'I' for Inactive)
REMARK       I    between atoms: C_6  and  N_9 
REMARK    1  A    between atoms: C_6  and  C_10 
REMARK       I    between atoms: C_7  and  N_8 
REMARK    2  A    between atoms: C_7  and  C_15 
REMARK    3  A    between atoms: N_9  and  C_14 
REMARK    4  A    between atoms: C_10  and  N_16 
REMARK    5  A    between atoms: C_14  and  C_15 
REMARK    6  A    between atoms: C_14  and  C_18 
ROOT
HETATM    1  C           1     -22.166  -4.269  -9.953  0.00  0.00     0.194 C 
ENDROOT
BRANCH   1   2
HETATM    2  N           1     -21.234  -4.185  -8.845  0.00  0.00    -0.345 N 
HETATM    3  H           1     -20.265  -3.948  -9.016  0.00  0.00     0.163 HD
HETATM    4  C           1     -21.665  -4.429  -7.569  0.00  0.00     0.243 C 
HETATM    5  O           1     -22.821  -4.713  -7.366  0.00  0.00    -0.272 OA
BRANCH   4   6
HETATM    6  C           1     -20.695  -4.343  -6.416  0.00  0.00     0.332 C 
BRANCH   6   7
HETATM    7  N           1     -19.322  -4.723  -6.887  0.00  0.00    -0.071 N 
HETATM    8  H           1     -18.610  -4.142  -6.389  0.00  0.00     0.274 HD
HETATM    9  H           1     -19.151  -5.733  -6.685  0.00  0.00     0.274 HD
HETATM   10  H           1     -19.247  -4.556  -7.916  0.00  0.00     0.274 HD
ENDBRANCH   6   7
ENDBRANCH   4   6
ENDBRANCH   1   2
BRANCH   1  11
HETATM   11  C           1     -23.162  -3.120  -9.866  0.00  0.00     0.138 C 
BRANCH  11  12
HETATM   12  C           1     -24.549  -3.632 -10.164  0.00  0.00     0.217 C 
HETATM   13  O           1     -25.221  -3.096 -11.013  0.00  0.00    -0.274 OA
HETATM   14  N           1     -25.047  -4.705  -9.474  0.00  0.00    -0.370 N 
HETATM   15  H           1     -24.484  -5.154  -8.763  0.00  0.00     0.159 HD
HETATM   16  H           1     -25.978  -5.048  -9.674  0.00  0.00     0.159 HD
ENDBRANCH  11  12
ENDBRANCH   1  11
BRANCH   1  17
HETATM   17  C           1     -21.408  -4.181 -11.255  0.00  0.00     0.197 C 
HETATM   18  O           1     -22.031  -4.090 -12.335  0.00  0.00    -0.646 OA
HETATM   19  O           1     -20.158  -4.198 -11.253  0.00  0.00    -0.646 OA
ENDBRANCH   1  17
TORSDOF 6
ENDMDL
MODEL 9
REMARK VINA RESULT:      -5.2      7.797      8.739
REMARK  6 active torsions:
REMARK  status: ('A' for Active; 'I' for Inactive)
REMARK       I    between atoms: C_6  and  N_9 
REMARK    1  A    between atoms: C_6  and  C_10 
REMARK       I    between atoms: C_7  and  N_8 
REMARK    2  A    between atoms: C_7  and  C_15 
REMARK    3  A    between atoms: N_9  and  C_14 
REMARK    4  A    between atoms: C_10  and  N_16 
REMARK    5  A    between atoms: C_14  and  C_15 
REMARK    6  A    between atoms: C_14  and  C_18 
ROOT
HETATM    1  C           1     -34.078  -4.472 -11.716  0.00  0.00     0.194 C 
ENDROOT
BRANCH   1   2
HETATM    2  N           1     -33.488  -5.761 -11.412  0.00  0.00    -0.345 N 
HETATM    3  H           1     -32.623  -6.039 -11.858  0.00  0.00     0.163 HD
HETATM    4  C           1     -34.101  -6.602 -10.524  0.00  0.00     0.243 C 
HETATM    5  O           1     -35.133  -6.270  -9.991  0.00  0.00    -0.272 OA
BRANCH   4   6
HETATM    6  C           1     -33.486  -7.944 -10.209  0.00  0.00     0.332 C 
BRANCH   6   7
HETATM    7  N           1     -34.374  -8.691  -9.258  0.00  0.00    -0.071 N 
HETATM    8  H           1     -34.829  -9.488  -9.758  0.00  0.00     0.274 HD
HETATM    9  H           1     -33.803  -9.058  -8.463  0.00  0.00     0.274 HD
HETATM   10  H           1     -35.110  -8.048  -8.889  0.00  0.00     0.274 HD
ENDBRANCH   6   7
ENDBRANCH   4   6
ENDBRANCH   1   2
BRANCH   1  11
HETATM   11  C           1     -33.052  -3.374 -11.472  0.00  0.00     0.138 C 
BRANCH  11  12
HETATM   12  C           1     -33.740  -2.156 -10.907  0.00  0.00     0.217 C 
HETATM   13  O           1     -33.717  -1.947  -9.718  0.00  0.00    -0.274 OA
HETATM   14  N           1     -34.391  -1.287 -11.742  0.00  0.00    -0.370 N 
HETATM   15  H           1     -34.410  -1.462 -12.738  0.00  0.00     0.159 HD
HETATM   16  H           1     -34.852  -0.471 -11.362  0.00  0.00     0.159 HD
ENDBRANCH  11  12
ENDBRANCH   1  11
BRANCH   1  17
HETATM   17  C           1     -34.512  -4.445 -13.160  0.00  0.00     0.197 C 
HETATM   18  O           1     -35.161  -5.402 -13.636  0.00  0.00    -0.646 OA
HETATM   19  O           1     -34.224  -3.465 -13.881  0.00  0.00    -0.646 OA
ENDBRANCH   1  17
TORSDOF 6
ENDMDL
