MODEL 1
REMARK VINA RESULT:      -7.2      0.000      0.000
REMARK  8 active torsions:
REMARK  status: ('A' for Active; 'I' for Inactive)
REMARK    1  A    between atoms: C_4  and  C_6 
REMARK    2  A    between atoms: C_6  and  C_7 
REMARK    3  A    between atoms: C_6  and  N_26 
REMARK    4  A    between atoms: C_7  and  C_8 
REMARK    5  A    between atoms: Se_11  and  C_23 
REMARK    6  A    between atoms: N_12  and  C_24 
REMARK    7  A    between atoms: C_23  and  C_24 
REMARK    8  A    between atoms: C_24  and  C_25 
REMARK       I    between atoms: C_25  and  N_26 
ROOT
HETATM    1  C           1     -21.926  -6.672  -5.457  0.00  0.00     0.190 C 
ENDROOT
BRANCH   1   2
HETATM    2  C           1     -20.968  -7.817  -5.239  0.00  0.00     0.197 C 
HETATM    3  O           1     -19.735  -7.608  -5.229  0.00  0.00    -0.646 OA
HETATM    4  O           1     -21.406  -8.976  -5.071  0.00  0.00    -0.646 OA
ENDBRANCH   1   2
BRANCH   1   5
HETATM    5  C           1     -21.169  -5.475  -6.019  0.00  0.00     0.077 C 
BRANCH   5   6
HETATM    6  C           1     -21.949  -4.878  -7.149  0.00  0.00    -0.028 A 
HETATM    7  C           1     -21.461  -4.620  -8.460  0.00  0.00    -0.002 A 
HETATM    8  C           1     -22.513  -4.063  -9.188  0.00  0.00     0.042 A 
HETATM    9  C           1     -20.219  -4.808  -9.098  0.00  0.00     0.014 A 
HETATM   10  N           1     -23.596  -3.990  -8.341  0.00  0.00    -0.365 N 
HETATM   11  C           1     -22.385  -3.683 -10.529  0.00  0.00     0.030 A 
HETATM   12  C           1     -23.266  -4.480  -7.106  0.00  0.00     0.096 A 
HETATM   13  H           1     -24.539  -3.613  -8.605  0.00  0.00     0.165 HD
HETATM   14  C           1     -21.144  -3.880 -11.142  0.00  0.00     0.002 A 
HETATM   15  C           1     -20.075  -4.434 -10.439  0.00  0.00     0.001 A 
ENDBRANCH   5   6
ENDBRANCH   1   5
BRANCH   1  16
HETATM   16  N           1     -22.537  -6.306  -4.193  0.00  0.00    -0.344 N 
HETATM   17  H           1     -23.514  -6.045  -4.161  0.00  0.00     0.163 HD
HETATM   18  C           1     -21.791  -6.316  -3.045  0.00  0.00     0.249 C 
HETATM   19  O           1     -21.200  -5.320  -2.701  0.00  0.00    -0.271 OA
BRANCH  18  20
HETATM   20  C           1     -21.708  -7.569  -2.210  0.00  0.00     0.274 C 
BRANCH  20  21
HETATM   21  N           1     -20.271  -7.965  -2.045  0.00  0.00    -0.067 N 
HETATM   22  H           1     -19.671  -7.364  -2.655  0.00  0.00     0.275 HD
HETATM   23  H           1     -19.988  -7.839  -1.046  0.00  0.00     0.275 HD
HETATM   24  H           1     -20.152  -8.966  -2.318  0.00  0.00     0.275 HD
ENDBRANCH  20  21
BRANCH  20  25
HETATM   25  C           1     -22.324  -7.310  -0.841  0.00  0.00     0.045 C 
BRANCH  25  26
HETATM   26 Se           1     -21.575  -8.559   0.455  0.00  0.00     0.000 Se
HETATM   27  H           1     -21.583  -9.704  -0.470  0.00  0.00     0.000 HD
ENDBRANCH  25  26
ENDBRANCH  20  25
ENDBRANCH  18  20
ENDBRANCH   1  16
TORSDOF 8
ENDMDL
MODEL 2
REMARK VINA RESULT:      -6.7      3.305      7.471
REMARK  8 active torsions:
REMARK  status: ('A' for Active; 'I' for Inactive)
REMARK    1  A    between atoms: C_4  and  C_6 
REMARK    2  A    between atoms: C_6  and  C_7 
REMARK    3  A    between atoms: C_6  and  N_26 
REMARK    4  A    between atoms: C_7  and  C_8 
REMARK    5  A    between atoms: Se_11  and  C_23 
REMARK    6  A    between atoms: N_12  and  C_24 
REMARK    7  A    between atoms: C_23  and  C_24 
REMARK    8  A    between atoms: C_24  and  C_25 
REMARK       I    between atoms: C_25  and  N_26 
ROOT
HETATM    1  C           1     -21.176  -7.399  -5.517  0.00  0.00     0.190 C 
ENDROOT
BRANCH   1   2
HETATM    2  C           1     -21.951  -6.325  -4.792  0.00  0.00     0.197 C 
HETATM    3  O           1     -21.412  -5.684  -3.864  0.00  0.00    -0.646 OA
HETATM    4  O           1     -23.132  -6.078  -5.119  0.00  0.00    -0.646 OA
ENDBRANCH   1   2
BRANCH   1   5
HETATM    5  C           1     -20.294  -8.147  -4.525  0.00  0.00     0.077 C 
BRANCH   5   6
HETATM    6  C           1     -21.139  -9.072  -3.706  0.00  0.00    -0.028 A 
HETATM    7  C           1     -21.472  -8.908  -2.333  0.00  0.00    -0.002 A 
HETATM    8  C           1     -22.272  -9.992  -1.972  0.00  0.00     0.042 A 
HETATM    9  C           1     -21.168  -7.936  -1.360  0.00  0.00     0.014 A 
HETATM   10  N           1     -22.413 -10.781  -3.091  0.00  0.00    -0.365 N 
HETATM   11  C           1     -22.785 -10.155  -0.680  0.00  0.00     0.030 A 
HETATM   12  C           1     -21.732 -10.234  -4.146  0.00  0.00     0.096 A 
HETATM   13  H           1     -22.964 -11.674  -3.131  0.00  0.00     0.165 HD
HETATM   14  C           1     -22.471  -9.177   0.269  0.00  0.00     0.002 A 
HETATM   15  C           1     -21.674  -8.083  -0.063  0.00  0.00     0.001 A 
ENDBRANCH   5   6
ENDBRANCH   1   5
BRANCH   1  16
HETATM   16  N           1     -20.346  -6.789  -6.537  0.00  0.00    -0.344 N 
HETATM   17  H           1     -19.634  -7.337  -7.004  0.00  0.00     0.163 HD
HETATM   18  C           1     -20.524  -5.473  -6.869  0.00  0.00     0.249 C 
HETATM   19  O           1     -19.908  -4.614  -6.284  0.00  0.00    -0.271 OA
BRANCH  18  20
HETATM   20  C           1     -21.490  -5.095  -7.965  0.00  0.00     0.274 C 
BRANCH  20  21
HETATM   21  N           1     -22.461  -4.077  -7.446  0.00  0.00    -0.067 N 
HETATM   22  H           1     -23.342  -4.555  -7.148  0.00  0.00     0.275 HD
HETATM   23  H           1     -22.040  -3.581  -6.627  0.00  0.00     0.275 HD
HETATM   24  H           1     -22.676  -3.386  -8.199  0.00  0.00     0.275 HD
ENDBRANCH  20  21
BRANCH  20  25
HETATM   25  C           1     -20.720  -4.509  -9.141  0.00  0.00     0.045 C 
BRANCH  25  26
HETATM   26 Se           1     -21.972  -3.977 -10.536  0.00  0.00     0.000 Se
HETATM   27  H           1     -22.443  -2.781  -9.820  0.00  0.00     0.000 HD
ENDBRANCH  25  26
ENDBRANCH  20  25
ENDBRANCH  18  20
ENDBRANCH   1  16
TORSDOF 8
ENDMDL
MODEL 3
REMARK VINA RESULT:      -6.7      3.355      7.314
REMARK  8 active torsions:
REMARK  status: ('A' for Active; 'I' for Inactive)
REMARK    1  A    between atoms: C_4  and  C_6 
REMARK    2  A    between atoms: C_6  and  C_7 
REMARK    3  A    between atoms: C_6  and  N_26 
REMARK    4  A    between atoms: C_7  and  C_8 
REMARK    5  A    between atoms: Se_11  and  C_23 
REMARK    6  A    between atoms: N_12  and  C_24 
REMARK    7  A    between atoms: C_23  and  C_24 
REMARK    8  A    between atoms: C_24  and  C_25 
REMARK       I    between atoms: C_25  and  N_26 
ROOT
HETATM    1  C           1     -20.560  -7.708  -4.854  0.00  0.00     0.190 C 
ENDROOT
BRANCH   1   2
HETATM    2  C           1     -19.464  -8.741  -4.949  0.00  0.00     0.197 C 
HETATM    3  O           1     -18.654  -8.881  -4.006  0.00  0.00    -0.646 OA
HETATM    4  O           1     -19.365  -9.456  -5.970  0.00  0.00    -0.646 OA
ENDBRANCH   1   2
BRANCH   1   5
HETATM    5  C           1     -21.773  -8.315  -4.160  0.00  0.00     0.077 C 
BRANCH   5   6
HETATM    6  C           1     -21.857  -7.795  -2.759  0.00  0.00    -0.028 A 
HETATM    7  C           1     -21.570  -8.527  -1.574  0.00  0.00    -0.002 A 
HETATM    8  C           1     -21.777  -7.665  -0.497  0.00  0.00     0.042 A 
HETATM    9  C           1     -21.151  -9.847  -1.315  0.00  0.00     0.014 A 
HETATM   10  N           1     -22.176  -6.455  -1.019  0.00  0.00    -0.365 N 
HETATM   11  C           1     -21.586  -8.058   0.832  0.00  0.00     0.030 A 
HETATM   12  C           1     -22.228  -6.523  -2.386  0.00  0.00     0.096 A 
HETATM   13  H           1     -22.407  -5.603  -0.451  0.00  0.00     0.165 HD
HETATM   14  C           1     -21.170  -9.372   1.066  0.00  0.00     0.002 A 
HETATM   15  C           1     -20.955 -10.256   0.010  0.00  0.00     0.001 A 
ENDBRANCH   5   6
ENDBRANCH   1   5
BRANCH   1  16
HETATM   16  N           1     -20.933  -7.276  -6.187  0.00  0.00    -0.344 N 
HETATM   17  H           1     -21.608  -7.810  -6.721  0.00  0.00     0.163 HD
HETATM   18  C           1     -20.373  -6.148  -6.723  0.00  0.00     0.249 C 
HETATM   19  O           1     -19.351  -6.227  -7.364  0.00  0.00    -0.271 OA
BRANCH  18  20
HETATM   20  C           1     -21.031  -4.807  -6.515  0.00  0.00     0.274 C 
BRANCH  20  21
HETATM   21  N           1     -20.366  -3.783  -7.385  0.00  0.00    -0.067 N 
HETATM   22  H           1     -19.523  -3.404  -6.897  0.00  0.00     0.275 HD
HETATM   23  H           1     -20.076  -4.228  -8.286  0.00  0.00     0.275 HD
HETATM   24  H           1     -21.035  -3.004  -7.580  0.00  0.00     0.275 HD
ENDBRANCH  20  21
BRANCH  20  25
HETATM   25  C           1     -22.507  -4.902  -6.880  0.00  0.00     0.045 C 
BRANCH  25  26
HETATM   26 Se           1     -22.789  -4.136  -8.649  0.00  0.00     0.000 Se
HETATM   27  H           1     -22.332  -5.335  -9.369  0.00  0.00     0.000 HD
ENDBRANCH  25  26
ENDBRANCH  20  25
ENDBRANCH  18  20
ENDBRANCH   1  16
TORSDOF 8
ENDMDL
MODEL 4
REMARK VINA RESULT:      -6.6     12.133     14.526
REMARK  8 active torsions:
REMARK  status: ('A' for Active; 'I' for Inactive)
REMARK    1  A    between atoms: C_4  and  C_6 
REMARK    2  A    between atoms: C_6  and  C_7 
REMARK    3  A    between atoms: C_6  and  N_26 
REMARK    4  A    between atoms: C_7  and  C_8 
REMARK    5  A    between atoms: Se_11  and  C_23 
REMARK    6  A    between atoms: N_12  and  C_24 
REMARK    7  A    between atoms: C_23  and  C_24 
REMARK    8  A    between atoms: C_24  and  C_25 
REMARK       I    between atoms: C_25  and  N_26 
ROOT
HETATM    1  C           1     -25.864  -6.441 -17.199  0.00  0.00     0.190 C 
ENDROOT
BRANCH   1   2
HETATM    2  C           1     -26.063  -6.718 -15.729  0.00  0.00     0.197 C 
HETATM    3  O           1     -25.328  -6.162 -14.883  0.00  0.00    -0.646 OA
HETATM    4  O           1     -26.961  -7.504 -15.356  0.00  0.00    -0.646 OA
ENDBRANCH   1   2
BRANCH   1   5
HETATM    5  C           1     -27.173  -6.678 -17.942  0.00  0.00     0.077 C 
BRANCH   5   6
HETATM    6  C           1     -28.154  -5.608 -17.579  0.00  0.00    -0.028 A 
HETATM    7  C           1     -29.563  -5.767 -17.460  0.00  0.00    -0.002 A 
HETATM    8  C           1     -30.089  -4.524 -17.106  0.00  0.00     0.042 A 
HETATM    9  C           1     -30.443  -6.855 -17.620  0.00  0.00     0.014 A 
HETATM   10  N           1     -29.031  -3.648 -17.016  0.00  0.00    -0.365 N 
HETATM   11  C           1     -31.457  -4.313 -16.904  0.00  0.00     0.030 A 
HETATM   12  C           1     -27.856  -4.293 -17.300  0.00  0.00     0.096 A 
HETATM   13  H           1     -29.112  -2.632 -16.766  0.00  0.00     0.165 HD
HETATM   14  C           1     -32.312  -5.408 -17.068  0.00  0.00     0.002 A 
HETATM   15  C           1     -31.815  -6.661 -17.421  0.00  0.00     0.001 A 
ENDBRANCH   5   6
ENDBRANCH   1   5
BRANCH   1  16
HETATM   16  N           1     -24.843  -7.326 -17.724  0.00  0.00    -0.344 N 
HETATM   17  H           1     -24.604  -8.174 -17.225  0.00  0.00     0.163 HD
HETATM   18  C           1     -24.203  -7.016 -18.893  0.00  0.00     0.249 C 
HETATM   19  O           1     -23.191  -6.357 -18.871  0.00  0.00    -0.271 OA
BRANCH  18  20
HETATM   20  C           1     -24.762  -7.496 -20.210  0.00  0.00     0.274 C 
BRANCH  20  21
HETATM   21  N           1     -25.216  -6.319 -21.019  0.00  0.00    -0.067 N 
HETATM   22  H           1     -24.628  -5.486 -20.786  0.00  0.00     0.275 HD
HETATM   23  H           1     -25.120  -6.538 -22.037  0.00  0.00     0.275 HD
HETATM   24  H           1     -26.217  -6.110 -20.800  0.00  0.00     0.275 HD
ENDBRANCH  20  21
BRANCH  20  25
HETATM   25  C           1     -23.684  -8.252 -20.974  0.00  0.00     0.045 C 
BRANCH  25  26
HETATM   26 Se           1     -23.752  -7.755 -22.857  0.00  0.00     0.000 Se
HETATM   27  H           1     -25.202  -7.501 -22.858  0.00  0.00     0.000 HD
ENDBRANCH  25  26
ENDBRANCH  20  25
ENDBRANCH  18  20
ENDBRANCH   1  16
TORSDOF 8
ENDMDL
MODEL 5
REMARK VINA RESULT:      -6.6     14.758     16.994
REMARK  8 active torsions:
REMARK  status: ('A' for Active; 'I' for Inactive)
REMARK    1  A    between atoms: C_4  and  C_6 
REMARK    2  A    between atoms: C_6  and  C_7 
REMARK    3  A    between atoms: C_6  and  N_26 
REMARK    4  A    between atoms: C_7  and  C_8 
REMARK    5  A    between atoms: Se_11  and  C_23 
REMARK    6  A    between atoms: N_12  and  C_24 
REMARK    7  A    between atoms: C_23  and  C_24 
REMARK    8  A    between atoms: C_24  and  C_25 
REMARK       I    between atoms: C_25  and  N_26 
ROOT
HETATM    1  C           1     -36.899  -0.468 -10.958  0.00  0.00     0.190 C 
ENDROOT
BRANCH   1   2
HETATM    2  C           1     -37.067   0.409  -9.742  0.00  0.00     0.197 C 
HETATM    3  O           1     -37.982   1.262  -9.707  0.00  0.00    -0.646 OA
HETATM    4  O           1     -36.292   0.285  -8.769  0.00  0.00    -0.646 OA
ENDBRANCH   1   2
BRANCH   1   5
HETATM    5  C           1     -35.472  -1.000 -11.007  0.00  0.00     0.077 C 
BRANCH   5   6
HETATM    6  C           1     -35.490  -2.490 -10.865  0.00  0.00    -0.028 A 
HETATM    7  C           1     -34.411  -3.372 -11.150  0.00  0.00    -0.002 A 
HETATM    8  C           1     -34.857  -4.666 -10.881  0.00  0.00     0.042 A 
HETATM    9  C           1     -33.093  -3.191 -11.614  0.00  0.00     0.014 A 
HETATM   10  N           1     -36.159  -4.564 -10.448  0.00  0.00    -0.365 N 
HETATM   11  C           1     -34.047  -5.795 -11.053  0.00  0.00     0.030 A 
HETATM   12  C           1     -36.552  -3.252 -10.435  0.00  0.00     0.096 A 
HETATM   13  H           1     -36.765  -5.374 -10.169  0.00  0.00     0.165 HD
HETATM   14  C           1     -32.743  -5.591 -11.514  0.00  0.00     0.002 A 
HETATM   15  C           1     -32.270  -4.309 -11.791  0.00  0.00     0.001 A 
ENDBRANCH   5   6
ENDBRANCH   1   5
BRANCH   1  16
HETATM   16  N           1     -37.166   0.308 -12.154  0.00  0.00    -0.344 N 
HETATM   17  H           1     -37.476   1.268 -12.075  0.00  0.00     0.163 HD
HETATM   18  C           1     -36.998  -0.259 -13.389  0.00  0.00     0.249 C 
HETATM   19  O           1     -37.919  -0.831 -13.921  0.00  0.00    -0.271 OA
BRANCH  18  20
HETATM   20  C           1     -35.663  -0.168 -14.085  0.00  0.00     0.274 C 
BRANCH  20  21
HETATM   21  N           1     -35.048  -1.533 -14.166  0.00  0.00    -0.067 N 
HETATM   22  H           1     -34.187  -1.494 -14.759  0.00  0.00     0.275 HD
HETATM   23  H           1     -34.795  -1.859 -13.206  0.00  0.00     0.275 HD
HETATM   24  H           1     -35.733  -2.199 -14.591  0.00  0.00     0.275 HD
ENDBRANCH  20  21
BRANCH  20  25
HETATM   25  C           1     -35.859   0.384 -15.491  0.00  0.00     0.045 C 
BRANCH  25  26
HETATM   26 Se           1     -35.852  -1.083 -16.773  0.00  0.00     0.000 Se
HETATM   27  H           1     -34.898  -0.435 -17.686  0.00  0.00     0.000 HD
ENDBRANCH  25  26
ENDBRANCH  20  25
ENDBRANCH  18  20
ENDBRANCH   1  16
TORSDOF 8
ENDMDL
MODEL 6
REMARK VINA RESULT:      -6.6      2.629      3.785
REMARK  8 active torsions:
REMARK  status: ('A' for Active; 'I' for Inactive)
REMARK    1  A    between atoms: C_4  and  C_6 
REMARK    2  A    between atoms: C_6  and  C_7 
REMARK    3  A    between atoms: C_6  and  N_26 
REMARK    4  A    between atoms: C_7  and  C_8 
REMARK    5  A    between atoms: Se_11  and  C_23 
REMARK    6  A    between atoms: N_12  and  C_24 
REMARK    7  A    between atoms: C_23  and  C_24 
REMARK    8  A    between atoms: C_24  and  C_25 
REMARK       I    between atoms: C_25  and  N_26 
ROOT
HETATM    1  C           1     -21.431  -7.349  -3.972  0.00  0.00     0.190 C 
ENDROOT
BRANCH   1   2
HETATM    2  C           1     -21.580  -6.840  -2.558  0.00  0.00     0.197 C 
HETATM    3  O           1     -22.421  -5.953  -2.297  0.00  0.00    -0.646 OA
HETATM    4  O           1     -20.860  -7.306  -1.648  0.00  0.00    -0.646 OA
ENDBRANCH   1   2
BRANCH   1   5
HETATM    5  C           1     -22.198  -6.437  -4.922  0.00  0.00     0.077 C 
BRANCH   5   6
HETATM    6  C           1     -21.332  -6.098  -6.095  0.00  0.00    -0.028 A 
HETATM    7  C           1     -21.699  -5.280  -7.199  0.00  0.00    -0.002 A 
HETATM    8  C           1     -20.599  -5.228  -8.056  0.00  0.00     0.042 A 
HETATM    9  C           1     -22.868  -4.578  -7.553  0.00  0.00     0.014 A 
HETATM   10  N           1     -19.605  -5.989  -7.484  0.00  0.00    -0.365 N 
HETATM   11  C           1     -20.609  -4.506  -9.254  0.00  0.00     0.030 A 
HETATM   12  C           1     -20.037  -6.520  -6.297  0.00  0.00     0.096 A 
HETATM   13  H           1     -18.652  -6.141  -7.897  0.00  0.00     0.165 HD
HETATM   14  C           1     -21.779  -3.816  -9.585  0.00  0.00     0.002 A 
HETATM   15  C           1     -22.894  -3.850  -8.748  0.00  0.00     0.001 A 
ENDBRANCH   5   6
ENDBRANCH   1   5
BRANCH   1  16
HETATM   16  N           1     -21.963  -8.695  -4.059  0.00  0.00    -0.344 N 
HETATM   17  H           1     -22.964  -8.841  -4.098  0.00  0.00     0.163 HD
HETATM   18  C           1     -21.112  -9.766  -4.089  0.00  0.00     0.249 C 
HETATM   19  O           1     -20.769 -10.294  -3.058  0.00  0.00    -0.271 OA
BRANCH  18  20
HETATM   20  C           1     -20.602 -10.287  -5.410  0.00  0.00     0.274 C 
BRANCH  20  21
HETATM   21  N           1     -19.216  -9.768  -5.650  0.00  0.00    -0.067 N 
HETATM   22  H           1     -19.086  -8.868  -5.135  0.00  0.00     0.275 HD
HETATM   23  H           1     -18.518 -10.468  -5.309  0.00  0.00     0.275 HD
HETATM   24  H           1     -19.077  -9.607  -6.674  0.00  0.00     0.275 HD
ENDBRANCH  20  21
BRANCH  20  25
HETATM   25  C           1     -20.576 -11.810  -5.380  0.00  0.00     0.045 C 
BRANCH  25  26
HETATM   26 Se           1     -22.394 -12.494  -5.539  0.00  0.00     0.000 Se
HETATM   27  H           1     -22.364 -13.202  -4.249  0.00  0.00     0.000 HD
ENDBRANCH  25  26
ENDBRANCH  20  25
ENDBRANCH  18  20
ENDBRANCH   1  16
TORSDOF 8
ENDMDL
MODEL 7
REMARK VINA RESULT:      -6.6     14.189     16.521
REMARK  8 active torsions:
REMARK  status: ('A' for Active; 'I' for Inactive)
REMARK    1  A    between atoms: C_4  and  C_6 
REMARK    2  A    between atoms: C_6  and  C_7 
REMARK    3  A    between atoms: C_6  and  N_26 
REMARK    4  A    between atoms: C_7  and  C_8 
REMARK    5  A    between atoms: Se_11  and  C_23 
REMARK    6  A    between atoms: N_12  and  C_24 
REMARK    7  A    between atoms: C_23  and  C_24 
REMARK    8  A    between atoms: C_24  and  C_25 
REMARK       I    between atoms: C_25  and  N_26 
ROOT
HETATM    1  C           1     -35.397  -2.050 -11.568  0.00  0.00     0.190 C 
ENDROOT
BRANCH   1   2
HETATM    2  C           1     -36.410  -1.164 -10.884  0.00  0.00     0.197 C 
HETATM    3  O           1     -36.040  -0.353 -10.007  0.00  0.00    -0.646 OA
HETATM    4  O           1     -37.619  -1.242 -11.193  0.00  0.00    -0.646 OA
ENDBRANCH   1   2
BRANCH   1   5
HETATM    5  C           1     -34.276  -2.388 -10.593  0.00  0.00     0.077 C 
BRANCH   5   6
HETATM    6  C           1     -33.652  -3.691 -10.984  0.00  0.00    -0.028 A 
HETATM    7  C           1     -34.078  -4.983 -10.569  0.00  0.00    -0.002 A 
HETATM    8  C           1     -33.220  -5.909 -11.163  0.00  0.00     0.042 A 
HETATM    9  C           1     -35.115  -5.453  -9.740  0.00  0.00     0.014 A 
HETATM   10  N           1     -32.310  -5.196 -11.910  0.00  0.00    -0.365 N 
HETATM   11  C           1     -33.349  -7.289 -10.970  0.00  0.00     0.030 A 
HETATM   12  C           1     -32.562  -3.854 -11.809  0.00  0.00     0.096 A 
HETATM   13  H           1     -31.535  -5.620 -12.477  0.00  0.00     0.165 HD
HETATM   14  C           1     -34.386  -7.733 -10.144  0.00  0.00     0.002 A 
HETATM   15  C           1     -35.258  -6.831  -9.537  0.00  0.00     0.001 A 
ENDBRANCH   5   6
ENDBRANCH   1   5
BRANCH   1  16
HETATM   16  N           1     -34.846  -1.356 -12.716  0.00  0.00    -0.344 N 
HETATM   17  H           1     -33.985  -1.681 -13.137  0.00  0.00     0.163 HD
HETATM   18  C           1     -35.489  -0.262 -13.228  0.00  0.00     0.249 C 
HETATM   19  O           1     -35.225   0.842 -12.815  0.00  0.00    -0.271 OA
BRANCH  18  20
HETATM   20  C           1     -36.528  -0.435 -14.308  0.00  0.00     0.274 C 
BRANCH  20  21
HETATM   21  N           1     -37.770   0.315 -13.931  0.00  0.00    -0.067 N 
HETATM   22  H           1     -37.741   1.273 -14.350  0.00  0.00     0.275 HD
HETATM   23  H           1     -38.608  -0.196 -14.290  0.00  0.00     0.275 HD
HETATM   24  H           1     -37.828   0.392 -12.890  0.00  0.00     0.275 HD
ENDBRANCH  20  21
BRANCH  20  25
HETATM   25  C           1     -35.988   0.107 -15.625  0.00  0.00     0.045 C 
BRANCH  25  26
HETATM   26 Se           1     -35.536  -1.378 -16.803  0.00  0.00     0.000 Se
HETATM   27  H           1     -34.466  -0.650 -17.503  0.00  0.00     0.000 HD
ENDBRANCH  25  26
ENDBRANCH  20  25
ENDBRANCH  18  20
ENDBRANCH   1  16
TORSDOF 8
ENDMDL
MODEL 8
REMARK VINA RESULT:      -6.5      2.326      3.187
REMARK  8 active torsions:
REMARK  status: ('A' for Active; 'I' for Inactive)
REMARK    1  A    between atoms: C_4  and  C_6 
REMARK    2  A    between atoms: C_6  and  C_7 
REMARK    3  A    between atoms: C_6  and  N_26 
REMARK    4  A    between atoms: C_7  and  C_8 
REMARK    5  A    between atoms: Se_11  and  C_23 
REMARK    6  A    between atoms: N_12  and  C_24 
REMARK    7  A    between atoms: C_23  and  C_24 
REMARK    8  A    between atoms: C_24  and  C_25 
REMARK       I    between atoms: C_25  and  N_26 
ROOT
HETATM    1  C           1     -21.156  -6.497  -5.238  0.00  0.00     0.190 C 
ENDROOT
BRANCH   1   2
HETATM    2  C           1     -21.660  -6.393  -3.819  0.00  0.00     0.197 C 
HETATM    3  O           1     -20.860  -6.482  -2.863  0.00  0.00    -0.646 OA
HETATM    4  O           1     -22.879  -6.219  -3.600  0.00  0.00    -0.646 OA
ENDBRANCH   1   2
BRANCH   1   5
HETATM    5  C           1     -21.945  -5.545  -6.129  0.00  0.00     0.077 C 
BRANCH   5   6
HETATM    6  C           1     -21.055  -5.023  -7.213  0.00  0.00    -0.028 A 
HETATM    7  C           1     -21.452  -4.696  -8.539  0.00  0.00    -0.002 A 
HETATM    8  C           1     -20.314  -4.249  -9.210  0.00  0.00     0.042 A 
HETATM    9  C           1     -22.677  -4.738  -9.233  0.00  0.00     0.014 A 
HETATM   10  N           1     -19.268  -4.306  -8.317  0.00  0.00    -0.365 N 
HETATM   11  C           1     -20.339  -3.840 -10.549  0.00  0.00     0.030 A 
HETATM   12  C           1     -19.705  -4.773  -7.105  0.00  0.00     0.096 A 
HETATM   13  H           1     -18.279  -4.032  -8.532  0.00  0.00     0.165 HD
HETATM   14  C           1     -21.565  -3.890 -11.218  0.00  0.00     0.002 A 
HETATM   15  C           1     -22.719  -4.332 -10.572  0.00  0.00     0.001 A 
ENDBRANCH   5   6
ENDBRANCH   1   5
BRANCH   1  16
HETATM   16  N           1     -21.327  -7.856  -5.713  0.00  0.00    -0.344 N 
HETATM   17  H           1     -21.691  -8.025  -6.642  0.00  0.00     0.163 HD
HETATM   18  C           1     -20.996  -8.910  -4.905  0.00  0.00     0.249 C 
HETATM   19  O           1     -21.823  -9.387  -4.165  0.00  0.00    -0.271 OA
BRANCH  18  20
HETATM   20  C           1     -19.597  -9.476  -4.938  0.00  0.00     0.274 C 
BRANCH  20  21
HETATM   21  N           1     -18.821  -8.826  -6.045  0.00  0.00    -0.067 N 
HETATM   22  H           1     -19.040  -7.804  -6.072  0.00  0.00     0.275 HD
HETATM   23  H           1     -17.798  -8.958  -5.876  0.00  0.00     0.275 HD
HETATM   24  H           1     -19.084  -9.262  -6.957  0.00  0.00     0.275 HD
ENDBRANCH  20  21
BRANCH  20  25
HETATM   25  C           1     -18.908  -9.205  -3.608  0.00  0.00     0.045 C 
BRANCH  25  26
HETATM   26 Se           1     -17.055  -9.802  -3.702  0.00  0.00     0.000 Se
HETATM   27  H           1     -16.524  -8.654  -2.949  0.00  0.00     0.000 HD
ENDBRANCH  25  26
ENDBRANCH  20  25
ENDBRANCH  18  20
ENDBRANCH   1  16
TORSDOF 8
ENDMDL
MODEL 9
REMARK VINA RESULT:      -6.5      3.841      6.531
REMARK  8 active torsions:
REMARK  status: ('A' for Active; 'I' for Inactive)
REMARK    1  A    between atoms: C_4  and  C_6 
REMARK    2  A    between atoms: C_6  and  C_7 
REMARK    3  A    between atoms: C_6  and  N_26 
REMARK    4  A    between atoms: C_7  and  C_8 
REMARK    5  A    between atoms: Se_11  and  C_23 
REMARK    6  A    between atoms: N_12  and  C_24 
REMARK    7  A    between atoms: C_23  and  C_24 
REMARK    8  A    between atoms: C_24  and  C_25 
REMARK       I    between atoms: C_25  and  N_26 
ROOT
HETATM    1  C           1     -21.356  -8.912  -2.033  0.00  0.00     0.190 C 
ENDROOT
BRANCH   1   2
HETATM    2  C           1     -21.874  -8.756  -0.624  0.00  0.00     0.197 C 
HETATM    3  O           1     -22.998  -9.210  -0.317  0.00  0.00    -0.646 OA
HETATM    4  O           1     -21.179  -8.173   0.237  0.00  0.00    -0.646 OA
ENDBRANCH   1   2
BRANCH   1   5
HETATM    5  C           1     -20.218  -9.925  -2.047  0.00  0.00     0.077 C 
BRANCH   5   6
HETATM    6  C           1     -19.656 -10.026  -3.431  0.00  0.00    -0.028 A 
HETATM    7  C           1     -18.286  -9.895  -3.791  0.00  0.00    -0.002 A 
HETATM    8  C           1     -18.208 -10.057  -5.174  0.00  0.00     0.042 A 
HETATM    9  C           1     -17.102  -9.653  -3.068  0.00  0.00     0.014 A 
HETATM   10  N           1     -19.488 -10.278  -5.629  0.00  0.00    -0.365 N 
HETATM   11  C           1     -16.998  -9.989  -5.875  0.00  0.00     0.030 A 
HETATM   12  C           1     -20.372 -10.261  -4.583  0.00  0.00     0.096 A 
HETATM   13  H           1     -19.750 -10.437  -6.633  0.00  0.00     0.165 HD
HETATM   14  C           1     -15.835  -9.749  -5.137  0.00  0.00     0.002 A 
HETATM   15  C           1     -15.883  -9.582  -3.754  0.00  0.00     0.001 A 
ENDBRANCH   5   6
ENDBRANCH   1   5
BRANCH   1  16
HETATM   16  N           1     -20.870  -7.634  -2.513  0.00  0.00    -0.344 N 
HETATM   17  H           1     -19.917  -7.351  -2.323  0.00  0.00     0.163 HD
HETATM   18  C           1     -21.700  -6.809  -3.224  0.00  0.00     0.249 C 
HETATM   19  O           1     -22.379  -5.992  -2.647  0.00  0.00    -0.271 OA
BRANCH  18  20
HETATM   20  C           1     -21.768  -6.921  -4.727  0.00  0.00     0.274 C 
BRANCH  20  21
HETATM   21  N           1     -22.757  -5.926  -5.258  0.00  0.00    -0.067 N 
HETATM   22  H           1     -23.719  -6.337  -5.222  0.00  0.00     0.275 HD
HETATM   23  H           1     -22.727  -5.060  -4.673  0.00  0.00     0.275 HD
HETATM   24  H           1     -22.516  -5.689  -6.246  0.00  0.00     0.275 HD
ENDBRANCH  20  21
BRANCH  20  25
HETATM   25  C           1     -20.395  -6.637  -5.321  0.00  0.00     0.045 C 
BRANCH  25  26
HETATM   26 Se           1     -20.321  -4.789  -5.934  0.00  0.00     0.000 Se
HETATM   27  H           1     -20.373  -5.139  -7.363  0.00  0.00     0.000 HD
ENDBRANCH  25  26
ENDBRANCH  20  25
ENDBRANCH  18  20
ENDBRANCH   1  16
TORSDOF 8
ENDMDL
