MODEL 1
REMARK VINA RESULT:      -6.4      0.000      0.000
REMARK  9 active torsions:
REMARK  status: ('A' for Active; 'I' for Inactive)
REMARK    1  A    between atoms: C_2  and  O_4 
REMARK    2  A    between atoms: C_2  and  C_3 
REMARK    3  A    between atoms: C_3  and  C_21 
REMARK    4  A    between atoms: C_3  and  N_20 
REMARK    5  A    between atoms: C_5  and  C_6 
REMARK    6  A    between atoms: C_5  and  C_11 
REMARK    7  A    between atoms: C_6  and  C_7 
REMARK    8  A    between atoms: C_6  and  N_15 
REMARK       I    between atoms: C_7  and  N_20 
REMARK    9  A    between atoms: C_11  and  C_18 
ROOT
HETATM    1  C           1     -28.373  -6.312 -18.669  0.00  0.00     0.249 C 
HETATM    2  H           1     -27.376  -8.124 -18.724  0.00  0.00     0.163 HD
HETATM    3  O           1     -28.490  -5.229 -19.194  0.00  0.00    -0.271 OA
HETATM    4  N           1     -27.472  -7.218 -19.163  0.00  0.00    -0.343 N 
ENDROOT
BRANCH   1   5
HETATM    5  C           1     -29.220  -6.664 -17.471  0.00  0.00     0.275 C 
BRANCH   5   6
HETATM    6  C           1     -28.587  -6.085 -16.213  0.00  0.00     0.053 C 
BRANCH   6   7
HETATM    7  C           1     -27.688  -7.130 -15.568  0.00  0.00     0.115 C 
BRANCH   7   8
HETATM    8  C           1     -26.243  -6.740 -15.761  0.00  0.00     0.172 C 
HETATM    9  O           1     -25.334  -7.553 -15.486  0.00  0.00    -0.648 OA
HETATM   10  O           1     -25.954  -5.604 -16.197  0.00  0.00    -0.648 OA
ENDBRANCH   7   8
ENDBRANCH   6   7
ENDBRANCH   5   6
BRANCH   5  11
HETATM   11  N           1     -29.308  -8.156 -17.345  0.00  0.00    -0.066 N 
HETATM   12  H           1     -29.496  -8.411 -16.349  0.00  0.00     0.275 HD
HETATM   13  H           1     -28.405  -8.585 -17.650  0.00  0.00     0.275 HD
HETATM   14  H           1     -30.083  -8.512 -17.948  0.00  0.00     0.275 HD
ENDBRANCH   5  11
ENDBRANCH   1   5
BRANCH   4  15
HETATM   15  C           1     -26.659  -6.878 -20.314  0.00  0.00     0.209 C 
BRANCH  15  16
HETATM   16  C           1     -25.277  -6.441 -19.845  0.00  0.00     0.200 C 
BRANCH  16  17
HETATM   17  O           1     -25.008  -7.005 -18.591  0.00  0.00    -0.398 OA
HETATM   18  H           1     -25.629  -7.703 -18.465  0.00  0.00     0.209 HD
ENDBRANCH  16  17
ENDBRANCH  15  16
BRANCH  15  19
HETATM   19  C           1     -26.529  -8.084 -21.210  0.00  0.00     0.198 C 
HETATM   20  O           1     -25.417  -8.386 -21.696  0.00  0.00    -0.646 OA
HETATM   21  O           1     -27.533  -8.783 -21.469  0.00  0.00    -0.646 OA
ENDBRANCH  15  19
ENDBRANCH   4  15
TORSDOF 9
ENDMDL
MODEL 2
REMARK VINA RESULT:      -6.3     10.130     11.292
REMARK  9 active torsions:
REMARK  status: ('A' for Active; 'I' for Inactive)
REMARK    1  A    between atoms: C_2  and  O_4 
REMARK    2  A    between atoms: C_2  and  C_3 
REMARK    3  A    between atoms: C_3  and  C_21 
REMARK    4  A    between atoms: C_3  and  N_20 
REMARK    5  A    between atoms: C_5  and  C_6 
REMARK    6  A    between atoms: C_5  and  C_11 
REMARK    7  A    between atoms: C_6  and  C_7 
REMARK    8  A    between atoms: C_6  and  N_15 
REMARK       I    between atoms: C_7  and  N_20 
REMARK    9  A    between atoms: C_11  and  C_18 
ROOT
HETATM    1  C           1     -35.397  -1.147 -12.952  0.00  0.00     0.249 C 
HETATM    2  H           1     -33.989  -0.438 -14.293  0.00  0.00     0.163 HD
HETATM    3  O           1     -36.578  -1.248 -12.717  0.00  0.00    -0.271 OA
HETATM    4  N           1     -34.978  -0.522 -14.096  0.00  0.00    -0.343 N 
ENDROOT
BRANCH   1   5
HETATM    5  C           1     -34.385  -1.710 -11.985  0.00  0.00     0.275 C 
BRANCH   5   6
HETATM    6  C           1     -34.013  -3.125 -12.405  0.00  0.00     0.053 C 
BRANCH   6   7
HETATM    7  C           1     -33.204  -3.788 -11.299  0.00  0.00     0.115 C 
BRANCH   7   8
HETATM    8  C           1     -33.883  -5.068 -10.876  0.00  0.00     0.172 C 
HETATM    9  O           1     -33.282  -6.159 -10.983  0.00  0.00    -0.648 OA
HETATM   10  O           1     -35.046  -5.037 -10.416  0.00  0.00    -0.648 OA
ENDBRANCH   7   8
ENDBRANCH   6   7
ENDBRANCH   5   6
BRANCH   5  11
HETATM   11  N           1     -34.974  -1.736 -10.606  0.00  0.00    -0.066 N 
HETATM   12  H           1     -35.861  -2.287 -10.617  0.00  0.00     0.275 HD
HETATM   13  H           1     -35.173  -0.759 -10.295  0.00  0.00     0.275 HD
HETATM   14  H           1     -34.296  -2.179  -9.946  0.00  0.00     0.275 HD
ENDBRANCH   5  11
ENDBRANCH   1   5
BRANCH   4  15
HETATM   15  C           1     -35.951   0.019 -15.025  0.00  0.00     0.209 C 
BRANCH  15  16
HETATM   16  C           1     -35.597   1.466 -15.343  0.00  0.00     0.200 C 
BRANCH  16  17
HETATM   17  O           1     -36.584   2.017 -16.173  0.00  0.00    -0.398 OA
HETATM   18  H           1     -36.330   1.833 -17.061  0.00  0.00     0.209 HD
ENDBRANCH  16  17
ENDBRANCH  15  16
BRANCH  15  19
HETATM   19  C           1     -35.938  -0.794 -16.296  0.00  0.00     0.198 C 
HETATM   20  O           1     -36.919  -0.761 -17.069  0.00  0.00    -0.646 OA
HETATM   21  O           1     -34.945  -1.501 -16.576  0.00  0.00    -0.646 OA
ENDBRANCH  15  19
ENDBRANCH   4  15
TORSDOF 9
ENDMDL
MODEL 3
REMARK VINA RESULT:      -6.1     10.172     12.373
REMARK  9 active torsions:
REMARK  status: ('A' for Active; 'I' for Inactive)
REMARK    1  A    between atoms: C_2  and  O_4 
REMARK    2  A    between atoms: C_2  and  C_3 
REMARK    3  A    between atoms: C_3  and  C_21 
REMARK    4  A    between atoms: C_3  and  N_20 
REMARK    5  A    between atoms: C_5  and  C_6 
REMARK    6  A    between atoms: C_5  and  C_11 
REMARK    7  A    between atoms: C_6  and  C_7 
REMARK    8  A    between atoms: C_6  and  N_15 
REMARK       I    between atoms: C_7  and  N_20 
REMARK    9  A    between atoms: C_11  and  C_18 
ROOT
HETATM    1  C           1     -21.642  -4.689  -7.866  0.00  0.00     0.249 C 
HETATM    2  H           1     -22.206  -5.828  -9.498  0.00  0.00     0.163 HD
HETATM    3  O           1     -21.556  -3.568  -7.423  0.00  0.00    -0.271 OA
HETATM    4  N           1     -22.133  -4.890  -9.128  0.00  0.00    -0.343 N 
ENDROOT
BRANCH   1   5
HETATM    5  C           1     -21.211  -5.866  -7.027  0.00  0.00     0.275 C 
BRANCH   5   6
HETATM    6  C           1     -21.270  -5.489  -5.553  0.00  0.00     0.053 C 
BRANCH   6   7
HETATM    7  C           1     -22.230  -6.421  -4.827  0.00  0.00     0.115 C 
BRANCH   7   8
HETATM    8  C           1     -21.804  -6.561  -3.386  0.00  0.00     0.172 C 
HETATM    9  O           1     -20.828  -7.284  -3.090  0.00  0.00    -0.648 OA
HETATM   10  O           1     -22.427  -5.952  -2.488  0.00  0.00    -0.648 OA
ENDBRANCH   7   8
ENDBRANCH   6   7
ENDBRANCH   5   6
BRANCH   5  11
HETATM   11  N           1     -19.806  -6.248  -7.388  0.00  0.00    -0.066 N 
HETATM   12  H           1     -19.711  -7.288  -7.367  0.00  0.00     0.275 HD
HETATM   13  H           1     -19.143  -5.822  -6.702  0.00  0.00     0.275 HD
HETATM   14  H           1     -19.586  -5.897  -8.348  0.00  0.00     0.275 HD
ENDBRANCH   5  11
ENDBRANCH   1   5
BRANCH   4  15
HETATM   15  C           1     -22.548  -3.758  -9.933  0.00  0.00     0.209 C 
BRANCH  15  16
HETATM   16  C           1     -21.751  -3.742 -11.232  0.00  0.00     0.200 C 
BRANCH  16  17
HETATM   17  O           1     -22.496  -4.360 -12.245  0.00  0.00    -0.398 OA
HETATM   18  H           1     -22.741  -3.686 -12.855  0.00  0.00     0.209 HD
ENDBRANCH  16  17
ENDBRANCH  15  16
BRANCH  15  19
HETATM   19  C           1     -24.019  -3.877 -10.247  0.00  0.00     0.198 C 
HETATM   20  O           1     -24.633  -4.931  -9.975  0.00  0.00    -0.646 OA
HETATM   21  O           1     -24.625  -2.920 -10.778  0.00  0.00    -0.646 OA
ENDBRANCH  15  19
ENDBRANCH   4  15
TORSDOF 9
ENDMDL
MODEL 4
REMARK VINA RESULT:      -6.0      2.748      4.585
REMARK  9 active torsions:
REMARK  status: ('A' for Active; 'I' for Inactive)
REMARK    1  A    between atoms: C_2  and  O_4 
REMARK    2  A    between atoms: C_2  and  C_3 
REMARK    3  A    between atoms: C_3  and  C_21 
REMARK    4  A    between atoms: C_3  and  N_20 
REMARK    5  A    between atoms: C_5  and  C_6 
REMARK    6  A    between atoms: C_5  and  C_11 
REMARK    7  A    between atoms: C_6  and  C_7 
REMARK    8  A    between atoms: C_6  and  N_15 
REMARK       I    between atoms: C_7  and  N_20 
REMARK    9  A    between atoms: C_11  and  C_18 
ROOT
HETATM    1  C           1     -27.944  -5.200 -17.534  0.00  0.00     0.249 C 
HETATM    2  H           1     -27.326  -7.027 -18.283  0.00  0.00     0.163 HD
HETATM    3  O           1     -27.663  -4.286 -16.796  0.00  0.00    -0.271 OA
HETATM    4  N           1     -27.090  -6.262 -17.664  0.00  0.00    -0.343 N 
ENDROOT
BRANCH   1   5
HETATM    5  C           1     -29.236  -5.169 -18.313  0.00  0.00     0.275 C 
BRANCH   5   6
HETATM    6  C           1     -30.154  -4.101 -17.734  0.00  0.00     0.053 C 
BRANCH   6   7
HETATM    7  C           1     -31.182  -4.754 -16.821  0.00  0.00     0.115 C 
BRANCH   7   8
HETATM    8  C           1     -32.468  -3.965 -16.864  0.00  0.00     0.172 C 
HETATM    9  O           1     -32.610  -3.047 -17.701  0.00  0.00    -0.648 OA
HETATM   10  O           1     -33.391  -4.230 -16.063  0.00  0.00    -0.648 OA
ENDBRANCH   7   8
ENDBRANCH   6   7
ENDBRANCH   5   6
BRANCH   5  11
HETATM   11  N           1     -29.906  -6.508 -18.220  0.00  0.00    -0.066 N 
HETATM   12  H           1     -29.296  -7.235 -18.657  0.00  0.00     0.275 HD
HETATM   13  H           1     -30.822  -6.474 -18.722  0.00  0.00     0.275 HD
HETATM   14  H           1     -30.070  -6.747 -17.216  0.00  0.00     0.275 HD
ENDBRANCH   5  11
ENDBRANCH   1   5
BRANCH   4  15
HETATM   15  C           1     -25.849  -6.290 -16.915  0.00  0.00     0.209 C 
BRANCH  15  16
HETATM   16  C           1     -26.027  -7.157 -15.675  0.00  0.00     0.200 C 
BRANCH  16  17
HETATM   17  O           1     -24.917  -7.000 -14.832  0.00  0.00    -0.398 OA
HETATM   18  H           1     -24.767  -6.074 -14.747  0.00  0.00     0.209 HD
ENDBRANCH  16  17
ENDBRANCH  15  16
BRANCH  15  19
HETATM   19  C           1     -24.754  -6.865 -17.779  0.00  0.00     0.198 C 
HETATM   20  O           1     -24.762  -6.667 -19.012  0.00  0.00    -0.646 OA
HETATM   21  O           1     -23.838  -7.541 -17.261  0.00  0.00    -0.646 OA
ENDBRANCH  15  19
ENDBRANCH   4  15
TORSDOF 9
ENDMDL
MODEL 5
REMARK VINA RESULT:      -5.5     10.704     12.102
REMARK  9 active torsions:
REMARK  status: ('A' for Active; 'I' for Inactive)
REMARK    1  A    between atoms: C_2  and  O_4 
REMARK    2  A    between atoms: C_2  and  C_3 
REMARK    3  A    between atoms: C_3  and  C_21 
REMARK    4  A    between atoms: C_3  and  N_20 
REMARK    5  A    between atoms: C_5  and  C_6 
REMARK    6  A    between atoms: C_5  and  C_11 
REMARK    7  A    between atoms: C_6  and  C_7 
REMARK    8  A    between atoms: C_6  and  N_15 
REMARK       I    between atoms: C_7  and  N_20 
REMARK    9  A    between atoms: C_11  and  C_18 
ROOT
HETATM    1  C           1     -36.676  -0.134 -12.974  0.00  0.00     0.249 C 
HETATM    2  H           1     -34.931   0.675 -13.736  0.00  0.00     0.163 HD
HETATM    3  O           1     -37.815  -0.449 -13.228  0.00  0.00    -0.271 OA
HETATM    4  N           1     -35.884   0.412 -13.949  0.00  0.00    -0.343 N 
ENDROOT
BRANCH   1   5
HETATM    5  C           1     -36.128  -0.342 -11.584  0.00  0.00     0.275 C 
BRANCH   5   6
HETATM    6  C           1     -35.906  -1.829 -11.343  0.00  0.00     0.053 C 
BRANCH   6   7
HETATM    7  C           1     -34.711  -2.304 -12.156  0.00  0.00     0.115 C 
BRANCH   7   8
HETATM    8  C           1     -33.533  -2.524 -11.238  0.00  0.00     0.172 C 
HETATM    9  O           1     -33.309  -1.723 -10.306  0.00  0.00    -0.648 OA
HETATM   10  O           1     -32.781  -3.509 -11.411  0.00  0.00    -0.648 OA
ENDBRANCH   7   8
ENDBRANCH   6   7
ENDBRANCH   5   6
BRANCH   5  11
HETATM   11  N           1     -37.106   0.187 -10.577  0.00  0.00    -0.066 N 
HETATM   12  H           1     -37.329   1.184 -10.799  0.00  0.00     0.275 HD
HETATM   13  H           1     -36.688   0.127  -9.622  0.00  0.00     0.275 HD
HETATM   14  H           1     -37.982  -0.382 -10.610  0.00  0.00     0.275 HD
ENDBRANCH   5  11
ENDBRANCH   1   5
BRANCH   4  15
HETATM   15  C           1     -36.412   0.612 -15.284  0.00  0.00     0.209 C 
BRANCH  15  16
HETATM   16  C           1     -35.843   1.900 -15.866  0.00  0.00     0.200 C 
BRANCH  16  17
HETATM   17  O           1     -36.883   2.667 -16.409  0.00  0.00    -0.398 OA
HETATM   18  H           1     -37.691   2.273 -16.127  0.00  0.00     0.209 HD
ENDBRANCH  16  17
ENDBRANCH  15  16
BRANCH  15  19
HETATM   19  C           1     -36.019  -0.553 -16.159  0.00  0.00     0.198 C 
HETATM   20  O           1     -36.737  -0.876 -17.130  0.00  0.00    -0.646 OA
HETATM   21  O           1     -34.974  -1.195 -15.914  0.00  0.00    -0.646 OA
ENDBRANCH  15  19
ENDBRANCH   4  15
TORSDOF 9
ENDMDL
MODEL 6
REMARK VINA RESULT:      -5.5      9.672     11.937
REMARK  9 active torsions:
REMARK  status: ('A' for Active; 'I' for Inactive)
REMARK    1  A    between atoms: C_2  and  O_4 
REMARK    2  A    between atoms: C_2  and  C_3 
REMARK    3  A    between atoms: C_3  and  C_21 
REMARK    4  A    between atoms: C_3  and  N_20 
REMARK    5  A    between atoms: C_5  and  C_6 
REMARK    6  A    between atoms: C_5  and  C_11 
REMARK    7  A    between atoms: C_6  and  C_7 
REMARK    8  A    between atoms: C_6  and  N_15 
REMARK       I    between atoms: C_7  and  N_20 
REMARK    9  A    between atoms: C_11  and  C_18 
ROOT
HETATM    1  C           1     -21.464  -4.725  -8.231  0.00  0.00     0.249 C 
HETATM    2  H           1     -23.148  -3.688  -8.839  0.00  0.00     0.163 HD
HETATM    3  O           1     -20.541  -5.416  -8.594  0.00  0.00    -0.271 OA
HETATM    4  N           1     -22.376  -4.267  -9.143  0.00  0.00    -0.343 N 
ENDROOT
BRANCH   1   5
HETATM    5  C           1     -21.609  -4.366  -6.772  0.00  0.00     0.275 C 
BRANCH   5   6
HETATM    6  C           1     -20.418  -4.910  -5.994  0.00  0.00     0.053 C 
BRANCH   6   7
HETATM    7  C           1     -20.908  -5.874  -4.923  0.00  0.00     0.115 C 
BRANCH   7   8
HETATM    8  C           1     -20.612  -7.292  -5.347  0.00  0.00     0.172 C 
HETATM    9  O           1     -19.739  -7.955  -4.747  0.00  0.00    -0.648 OA
HETATM   10  O           1     -21.242  -7.804  -6.299  0.00  0.00    -0.648 OA
ENDBRANCH   7   8
ENDBRANCH   6   7
ENDBRANCH   5   6
BRANCH   5  11
HETATM   11  N           1     -22.873  -4.967  -6.234  0.00  0.00    -0.066 N 
HETATM   12  H           1     -23.544  -4.205  -5.987  0.00  0.00     0.275 HD
HETATM   13  H           1     -22.655  -5.531  -5.382  0.00  0.00     0.275 HD
HETATM   14  H           1     -23.301  -5.587  -6.959  0.00  0.00     0.275 HD
ENDBRANCH   5  11
ENDBRANCH   1   5
BRANCH   4  15
HETATM   15  C           1     -22.236  -4.612 -10.544  0.00  0.00     0.209 C 
BRANCH  15  16
HETATM   16  C           1     -23.615  -4.701 -11.184  0.00  0.00     0.200 C 
BRANCH  16  17
HETATM   17  O           1     -23.480  -4.795 -12.577  0.00  0.00    -0.398 OA
HETATM   18  H           1     -22.721  -4.290 -12.813  0.00  0.00     0.209 HD
ENDBRANCH  16  17
ENDBRANCH  15  16
BRANCH  15  19
HETATM   19  C           1     -21.423  -3.551 -11.244  0.00  0.00     0.198 C 
HETATM   20  O           1     -20.203  -3.729 -11.445  0.00  0.00    -0.646 OA
HETATM   21  O           1     -21.970  -2.492 -11.623  0.00  0.00    -0.646 OA
ENDBRANCH  15  19
ENDBRANCH   4  15
TORSDOF 9
ENDMDL
MODEL 7
REMARK VINA RESULT:      -5.3     10.626     13.569
REMARK  9 active torsions:
REMARK  status: ('A' for Active; 'I' for Inactive)
REMARK    1  A    between atoms: C_2  and  O_4 
REMARK    2  A    between atoms: C_2  and  C_3 
REMARK    3  A    between atoms: C_3  and  C_21 
REMARK    4  A    between atoms: C_3  and  N_20 
REMARK    5  A    between atoms: C_5  and  C_6 
REMARK    6  A    between atoms: C_5  and  C_11 
REMARK    7  A    between atoms: C_6  and  C_7 
REMARK    8  A    between atoms: C_6  and  N_15 
REMARK       I    between atoms: C_7  and  N_20 
REMARK    9  A    between atoms: C_11  and  C_18 
ROOT
HETATM    1  C           1     -20.715  -5.155  -7.139  0.00  0.00     0.249 C 
HETATM    2  H           1     -22.272  -6.370  -6.524  0.00  0.00     0.163 HD
HETATM    3  O           1     -19.601  -4.764  -6.879  0.00  0.00    -0.271 OA
HETATM    4  N           1     -21.341  -6.042  -6.305  0.00  0.00    -0.343 N 
ENDROOT
BRANCH   1   5
HETATM    5  C           1     -21.414  -4.664  -8.383  0.00  0.00     0.275 C 
BRANCH   5   6
HETATM    6  C           1     -20.411  -3.956  -9.284  0.00  0.00     0.053 C 
BRANCH   6   7
HETATM    7  C           1     -20.511  -4.517 -10.695  0.00  0.00     0.115 C 
BRANCH   7   8
HETATM    8  C           1     -21.632  -3.827 -11.434  0.00  0.00     0.172 C 
HETATM    9  O           1     -22.592  -4.493 -11.878  0.00  0.00    -0.648 OA
HETATM   10  O           1     -21.601  -2.587 -11.600  0.00  0.00    -0.648 OA
ENDBRANCH   7   8
ENDBRANCH   6   7
ENDBRANCH   5   6
BRANCH   5  11
HETATM   11  N           1     -22.502  -3.706  -7.998  0.00  0.00    -0.066 N 
HETATM   12  H           1     -22.793  -3.888  -7.011  0.00  0.00     0.275 HD
HETATM   13  H           1     -23.322  -3.838  -8.633  0.00  0.00     0.275 HD
HETATM   14  H           1     -22.151  -2.726  -8.083  0.00  0.00     0.275 HD
ENDBRANCH   5  11
ENDBRANCH   1   5
BRANCH   4  15
HETATM   15  C           1     -20.668  -6.513  -5.110  0.00  0.00     0.209 C 
BRANCH  15  16
HETATM   16  C           1     -21.569  -6.292  -3.902  0.00  0.00     0.200 C 
BRANCH  16  17
HETATM   17  O           1     -21.581  -7.449  -3.110  0.00  0.00    -0.398 OA
HETATM   18  H           1     -20.832  -7.398  -2.540  0.00  0.00     0.209 HD
ENDBRANCH  16  17
ENDBRANCH  15  16
BRANCH  15  19
HETATM   19  C           1     -20.366  -7.985  -5.251  0.00  0.00     0.198 C 
HETATM   20  O           1     -19.319  -8.458  -4.759  0.00  0.00    -0.646 OA
HETATM   21  O           1     -21.163  -8.732  -5.860  0.00  0.00    -0.646 OA
ENDBRANCH  15  19
ENDBRANCH   4  15
TORSDOF 9
ENDMDL
MODEL 8
REMARK VINA RESULT:      -5.2     12.601     15.064
REMARK  9 active torsions:
REMARK  status: ('A' for Active; 'I' for Inactive)
REMARK    1  A    between atoms: C_2  and  O_4 
REMARK    2  A    between atoms: C_2  and  C_3 
REMARK    3  A    between atoms: C_3  and  C_21 
REMARK    4  A    between atoms: C_3  and  N_20 
REMARK    5  A    between atoms: C_5  and  C_6 
REMARK    6  A    between atoms: C_5  and  C_11 
REMARK    7  A    between atoms: C_6  and  C_7 
REMARK    8  A    between atoms: C_6  and  N_15 
REMARK       I    between atoms: C_7  and  N_20 
REMARK    9  A    between atoms: C_11  and  C_18 
ROOT
HETATM    1  C           1     -21.606  -6.974  -5.475  0.00  0.00     0.249 C 
HETATM    2  H           1     -22.333  -5.063  -5.162  0.00  0.00     0.163 HD
HETATM    3  O           1     -21.097  -7.722  -6.277  0.00  0.00    -0.271 OA
HETATM    4  N           1     -21.909  -5.688  -5.833  0.00  0.00    -0.343 N 
ENDROOT
BRANCH   1   5
HETATM    5  C           1     -21.905  -7.459  -4.077  0.00  0.00     0.275 C 
BRANCH   5   6
HETATM    6  C           1     -21.236  -6.538  -3.066  0.00  0.00     0.053 C 
BRANCH   6   7
HETATM    7  C           1     -22.234  -6.169  -1.977  0.00  0.00     0.115 C 
BRANCH   7   8
HETATM    8  C           1     -22.187  -7.203  -0.879  0.00  0.00     0.172 C 
HETATM    9  O           1     -23.161  -7.340  -0.107  0.00  0.00    -0.648 OA
HETATM   10  O           1     -21.174  -7.924  -0.741  0.00  0.00    -0.648 OA
ENDBRANCH   7   8
ENDBRANCH   6   7
ENDBRANCH   5   6
BRANCH   5  11
HETATM   11  N           1     -21.378  -8.853  -3.909  0.00  0.00    -0.066 N 
HETATM   12  H           1     -21.201  -9.039  -2.896  0.00  0.00     0.275 HD
HETATM   13  H           1     -20.485  -8.953  -4.443  0.00  0.00     0.275 HD
HETATM   14  H           1     -22.079  -9.537  -4.272  0.00  0.00     0.275 HD
ENDBRANCH   5  11
ENDBRANCH   1   5
BRANCH   4  15
HETATM   15  C           1     -21.621  -5.224  -7.176  0.00  0.00     0.209 C 
BRANCH  15  16
HETATM   16  C           1     -22.727  -4.282  -7.634  0.00  0.00     0.200 C 
BRANCH  16  17
HETATM   17  O           1     -23.827  -4.400  -6.774  0.00  0.00    -0.398 OA
HETATM   18  H           1     -23.609  -5.060  -6.139  0.00  0.00     0.209 HD
ENDBRANCH  16  17
ENDBRANCH  15  16
BRANCH  15  19
HETATM   19  C           1     -20.301  -4.492  -7.182  0.00  0.00     0.198 C 
HETATM   20  O           1     -19.540  -4.567  -6.194  0.00  0.00    -0.646 OA
HETATM   21  O           1     -19.968  -3.810  -8.176  0.00  0.00    -0.646 OA
ENDBRANCH  15  19
ENDBRANCH   4  15
TORSDOF 9
ENDMDL
MODEL 9
REMARK VINA RESULT:      -5.1     10.883     13.875
REMARK  9 active torsions:
REMARK  status: ('A' for Active; 'I' for Inactive)
REMARK    1  A    between atoms: C_2  and  O_4 
REMARK    2  A    between atoms: C_2  and  C_3 
REMARK    3  A    between atoms: C_3  and  C_21 
REMARK    4  A    between atoms: C_3  and  N_20 
REMARK    5  A    between atoms: C_5  and  C_6 
REMARK    6  A    between atoms: C_5  and  C_11 
REMARK    7  A    between atoms: C_6  and  C_7 
REMARK    8  A    between atoms: C_6  and  N_15 
REMARK       I    between atoms: C_7  and  N_20 
REMARK    9  A    between atoms: C_11  and  C_18 
ROOT
HETATM    1  C           1     -22.358  -5.198  -6.330  0.00  0.00     0.249 C 
HETATM    2  H           1     -20.497  -6.053  -6.037  0.00  0.00     0.163 HD
HETATM    3  O           1     -23.531  -5.258  -6.047  0.00  0.00    -0.271 OA
HETATM    4  N           1     -21.478  -6.104  -5.800  0.00  0.00    -0.343 N 
ENDROOT
BRANCH   1   5
HETATM    5  C           1     -21.863  -4.125  -7.268  0.00  0.00     0.275 C 
BRANCH   5   6
HETATM    6  C           1     -22.305  -4.448  -8.689  0.00  0.00     0.053 C 
BRANCH   6   7
HETATM    7  C           1     -23.722  -3.937  -8.909  0.00  0.00     0.115 C 
BRANCH   7   8
HETATM    8  C           1     -23.867  -3.454 -10.332  0.00  0.00     0.172 C 
HETATM    9  O           1     -22.853  -3.298 -11.046  0.00  0.00    -0.648 OA
HETATM   10  O           1     -25.003  -3.209 -10.796  0.00  0.00    -0.648 OA
ENDBRANCH   7   8
ENDBRANCH   6   7
ENDBRANCH   5   6
BRANCH   5  11
HETATM   11  N           1     -20.365  -4.066  -7.212  0.00  0.00    -0.066 N 
HETATM   12  H           1     -20.058  -3.071  -7.128  0.00  0.00     0.275 HD
HETATM   13  H           1     -19.968  -4.481  -8.085  0.00  0.00     0.275 HD
HETATM   14  H           1     -20.025  -4.607  -6.385  0.00  0.00     0.275 HD
ENDBRANCH   5  11
ENDBRANCH   1   5
BRANCH   4  15
HETATM   15  C           1     -21.955  -7.135  -4.899  0.00  0.00     0.209 C 
BRANCH  15  16
HETATM   16  C           1     -21.234  -8.443  -5.199  0.00  0.00     0.200 C 
BRANCH  16  17
HETATM   17  O           1     -21.695  -9.442  -4.330  0.00  0.00    -0.398 OA
HETATM   18  H           1     -21.594 -10.263  -4.779  0.00  0.00     0.209 HD
ENDBRANCH  16  17
ENDBRANCH  15  16
BRANCH  15  19
HETATM   19  C           1     -21.679  -6.724  -3.474  0.00  0.00     0.198 C 
HETATM   20  O           1     -22.450  -5.932  -2.891  0.00  0.00    -0.646 OA
HETATM   21  O           1     -20.678  -7.175  -2.875  0.00  0.00    -0.646 OA
ENDBRANCH  15  19
ENDBRANCH   4  15
TORSDOF 9
ENDMDL
