MODEL 1
REMARK VINA RESULT:      -7.2      0.000      0.000
REMARK  10 active torsions:
REMARK  status: ('A' for Active; 'I' for Inactive)
REMARK    1  A    between atoms: C_1  and  C_6 
REMARK    2  A    between atoms: C_1  and  C_2 
REMARK    3  A    between atoms: C_1  and  N_19 
REMARK    4  A    between atoms: C_2  and  C_17 
REMARK       I    between atoms: C_6  and  N_8 
REMARK    5  A    between atoms: N_8  and  C_25 
REMARK    6  A    between atoms: C_11  and  C_25 
REMARK    7  A    between atoms: P_20  and  O_27 
REMARK    8  A    between atoms: P_20  and  O_22 
REMARK    9  A    between atoms: C_25  and  C_26 
REMARK   10  A    between atoms: C_26  and  O_27 
ROOT
HETATM    1  C           1     -21.522  -5.612  -5.541  0.00  0.00     0.249 C 
HETATM    2  O           1     -20.344  -5.359  -5.455  0.00  0.00    -0.271 OA
HETATM    3  N           1     -22.143  -6.321  -4.546  0.00  0.00    -0.343 N 
HETATM    4  H           1     -23.130  -6.532  -4.617  0.00  0.00     0.163 HD
ENDROOT
BRANCH   1   5
HETATM    5  C           1     -22.309  -5.149  -6.741  0.00  0.00     0.278 C 
BRANCH   5   6
HETATM    6  C           1     -21.670  -3.891  -7.314  0.00  0.00     0.081 C 
BRANCH   6   7
HETATM    7  C           1     -21.584  -4.008  -8.804  0.00  0.00    -0.056 A 
HETATM    8  C           1     -22.739  -3.903  -9.579  0.00  0.00     0.007 A 
HETATM    9  C           1     -22.659  -4.013 -10.967  0.00  0.00     0.001 A 
HETATM   10  C           1     -21.425  -4.228 -11.581  0.00  0.00     0.000 A 
HETATM   11  C           1     -20.271  -4.334 -10.805  0.00  0.00     0.001 A 
HETATM   12  C           1     -20.350  -4.224  -9.417  0.00  0.00     0.007 A 
ENDBRANCH   6   7
ENDBRANCH   5   6
BRANCH   5  13
HETATM   13  N           1     -23.719  -4.848  -6.329  0.00  0.00    -0.066 N 
HETATM   14  H           1     -24.347  -5.621  -6.645  0.00  0.00     0.275 HD
HETATM   15  H           1     -23.769  -4.764  -5.288  0.00  0.00     0.275 HD
HETATM   16  H           1     -24.026  -3.949  -6.765  0.00  0.00     0.275 HD
ENDBRANCH   5  13
ENDBRANCH   1   5
BRANCH   3  17
HETATM   17  C           1     -21.387  -6.766  -3.393  0.00  0.00     0.210 C 
BRANCH  17  18
HETATM   18  C           1     -20.942  -8.193  -3.603  0.00  0.00     0.198 C 
HETATM   19  O           1     -19.744  -8.506  -3.436  0.00  0.00    -0.646 OA
HETATM   20  O           1     -21.773  -9.063  -3.944  0.00  0.00    -0.646 OA
ENDBRANCH  17  18
BRANCH  17  21
HETATM   21  C           1     -22.263  -6.687  -2.150  0.00  0.00     0.217 C 
BRANCH  21  22
HETATM   22  O           1     -21.533  -7.117  -1.034  0.00  0.00    -0.287 OA
BRANCH  22  23
HETATM   23  P           1     -22.297  -8.133  -0.037  0.00  0.00     0.406 P 
HETATM   24  O           1     -21.468  -8.360   1.168  0.00  0.00    -0.624 OA
HETATM   25  O           1     -22.527  -9.421  -0.727  0.00  0.00    -0.624 OA
BRANCH  23  26
HETATM   26  O           1     -23.715  -7.493   0.398  0.00  0.00    -0.300 OA
HETATM   27  H           1     -24.243  -8.227   0.663  0.00  0.00     0.223 HD
ENDBRANCH  23  26
ENDBRANCH  22  23
ENDBRANCH  21  22
ENDBRANCH  17  21
ENDBRANCH   3  17
TORSDOF 10
ENDMDL
MODEL 2
REMARK VINA RESULT:      -7.2      4.309      8.331
REMARK  10 active torsions:
REMARK  status: ('A' for Active; 'I' for Inactive)
REMARK    1  A    between atoms: C_1  and  C_6 
REMARK    2  A    between atoms: C_1  and  C_2 
REMARK    3  A    between atoms: C_1  and  N_19 
REMARK    4  A    between atoms: C_2  and  C_17 
REMARK       I    between atoms: C_6  and  N_8 
REMARK    5  A    between atoms: N_8  and  C_25 
REMARK    6  A    between atoms: C_11  and  C_25 
REMARK    7  A    between atoms: P_20  and  O_27 
REMARK    8  A    between atoms: P_20  and  O_22 
REMARK    9  A    between atoms: C_25  and  C_26 
REMARK   10  A    between atoms: C_26  and  O_27 
ROOT
HETATM    1  C           1     -21.052  -6.067  -6.134  0.00  0.00     0.249 C 
HETATM    2  O           1     -21.100  -7.070  -6.807  0.00  0.00    -0.271 OA
HETATM    3  N           1     -21.260  -4.844  -6.714  0.00  0.00    -0.343 N 
HETATM    4  H           1     -21.220  -4.004  -6.151  0.00  0.00     0.163 HD
ENDROOT
BRANCH   1   5
HETATM    5  C           1     -20.762  -6.163  -4.657  0.00  0.00     0.278 C 
BRANCH   5   6
HETATM    6  C           1     -22.059  -6.413  -3.899  0.00  0.00     0.081 C 
BRANCH   6   7
HETATM    7  C           1     -21.756  -7.098  -2.603  0.00  0.00    -0.056 A 
HETATM    8  C           1     -22.396  -6.689  -1.433  0.00  0.00     0.007 A 
HETATM    9  C           1     -22.113  -7.326  -0.225  0.00  0.00     0.001 A 
HETATM   10  C           1     -21.191  -8.372  -0.186  0.00  0.00     0.000 A 
HETATM   11  C           1     -20.550  -8.779  -1.356  0.00  0.00     0.001 A 
HETATM   12  C           1     -20.833  -8.142  -2.565  0.00  0.00     0.007 A 
ENDBRANCH   6   7
ENDBRANCH   5   6
BRANCH   5  13
HETATM   13  N           1     -20.148  -4.879  -4.185  0.00  0.00    -0.066 N 
HETATM   14  H           1     -20.210  -4.163  -4.943  0.00  0.00     0.275 HD
HETATM   15  H           1     -20.660  -4.536  -3.340  0.00  0.00     0.275 HD
HETATM   16  H           1     -19.145  -5.042  -3.941  0.00  0.00     0.275 HD
ENDBRANCH   5  13
ENDBRANCH   1   5
BRANCH   3  17
HETATM   17  C           1     -21.537  -4.752  -8.134  0.00  0.00     0.210 C 
BRANCH  17  18
HETATM   18  C           1     -20.260  -4.447  -8.878  0.00  0.00     0.198 C 
HETATM   19  O           1     -20.196  -4.633 -10.113  0.00  0.00    -0.646 OA
HETATM   20  O           1     -19.266  -4.008  -8.260  0.00  0.00    -0.646 OA
ENDBRANCH  17  18
BRANCH  17  21
HETATM   21  C           1     -22.547  -3.640  -8.383  0.00  0.00     0.217 C 
BRANCH  21  22
HETATM   22  O           1     -23.695  -4.175  -8.983  0.00  0.00    -0.287 OA
BRANCH  22  23
HETATM   23  P           1     -23.833  -3.947 -10.576  0.00  0.00     0.406 P 
HETATM   24  O           1     -25.107  -3.253 -10.868  0.00  0.00    -0.624 OA
HETATM   25  O           1     -23.816  -5.257 -11.264  0.00  0.00    -0.624 OA
BRANCH  23  26
HETATM   26  O           1     -22.598  -3.046 -11.098  0.00  0.00    -0.300 OA
HETATM   27  H           1     -22.453  -3.323 -11.987  0.00  0.00     0.223 HD
ENDBRANCH  23  26
ENDBRANCH  22  23
ENDBRANCH  21  22
ENDBRANCH  17  21
ENDBRANCH   3  17
TORSDOF 10
ENDMDL
MODEL 3
REMARK VINA RESULT:      -6.9      4.167      8.206
REMARK  10 active torsions:
REMARK  status: ('A' for Active; 'I' for Inactive)
REMARK    1  A    between atoms: C_1  and  C_6 
REMARK    2  A    between atoms: C_1  and  C_2 
REMARK    3  A    between atoms: C_1  and  N_19 
REMARK    4  A    between atoms: C_2  and  C_17 
REMARK       I    between atoms: C_6  and  N_8 
REMARK    5  A    between atoms: N_8  and  C_25 
REMARK    6  A    between atoms: C_11  and  C_25 
REMARK    7  A    between atoms: P_20  and  O_27 
REMARK    8  A    between atoms: P_20  and  O_22 
REMARK    9  A    between atoms: C_25  and  C_26 
REMARK   10  A    between atoms: C_26  and  O_27 
ROOT
HETATM    1  C           1     -20.837  -7.561  -5.438  0.00  0.00     0.249 C 
HETATM    2  O           1     -19.857  -7.952  -6.028  0.00  0.00    -0.271 OA
HETATM    3  N           1     -21.484  -6.431  -5.861  0.00  0.00    -0.343 N 
HETATM    4  H           1     -22.305  -6.104  -5.368  0.00  0.00     0.163 HD
ENDROOT
BRANCH   1   5
HETATM    5  C           1     -21.346  -8.318  -4.237  0.00  0.00     0.278 C 
BRANCH   5   6
HETATM    6  C           1     -20.328  -8.227  -3.108  0.00  0.00     0.081 C 
BRANCH   6   7
HETATM    7  C           1     -21.042  -8.194  -1.793  0.00  0.00    -0.056 A 
HETATM    8  C           1     -21.913  -7.145  -1.499  0.00  0.00     0.007 A 
HETATM    9  C           1     -22.578  -7.114  -0.274  0.00  0.00     0.001 A 
HETATM   10  C           1     -22.372  -8.131   0.658  0.00  0.00     0.000 A 
HETATM   11  C           1     -21.501  -9.180   0.364  0.00  0.00     0.001 A 
HETATM   12  C           1     -20.835  -9.212  -0.862  0.00  0.00     0.007 A 
ENDBRANCH   6   7
ENDBRANCH   5   6
BRANCH   5  13
HETATM   13  N           1     -21.554  -9.757  -4.606  0.00  0.00    -0.066 N 
HETATM   14  H           1     -22.041 -10.250  -3.823  0.00  0.00     0.275 HD
HETATM   15  H           1     -22.139  -9.816  -5.470  0.00  0.00     0.275 HD
HETATM   16  H           1     -20.629 -10.210  -4.780  0.00  0.00     0.275 HD
ENDBRANCH   5  13
ENDBRANCH   1   5
BRANCH   3  17
HETATM   17  C           1     -20.993  -5.703  -7.015  0.00  0.00     0.210 C 
BRANCH  17  18
HETATM   18  C           1     -19.843  -4.819  -6.601  0.00  0.00     0.198 C 
HETATM   19  O           1     -18.975  -4.488  -7.438  0.00  0.00    -0.646 OA
HETATM   20  O           1     -19.756  -4.417  -5.421  0.00  0.00    -0.646 OA
ENDBRANCH  17  18
BRANCH  17  21
HETATM   21  C           1     -22.113  -4.844  -7.587  0.00  0.00     0.217 C 
BRANCH  21  22
HETATM   22  O           1     -22.024  -4.828  -8.985  0.00  0.00    -0.287 OA
BRANCH  22  23
HETATM   23  P           1     -23.298  -4.217  -9.768  0.00  0.00     0.406 P 
HETATM   24  O           1     -23.978  -5.294 -10.522  0.00  0.00    -0.624 OA
HETATM   25  O           1     -22.843  -3.169 -10.708  0.00  0.00    -0.624 OA
BRANCH  23  26
HETATM   26  O           1     -24.327  -3.575  -8.701  0.00  0.00    -0.300 OA
HETATM   27  H           1     -24.430  -2.678  -8.971  0.00  0.00     0.223 HD
ENDBRANCH  23  26
ENDBRANCH  22  23
ENDBRANCH  21  22
ENDBRANCH  17  21
ENDBRANCH   3  17
TORSDOF 10
ENDMDL
MODEL 4
REMARK VINA RESULT:      -6.9     15.306     17.634
REMARK  10 active torsions:
REMARK  status: ('A' for Active; 'I' for Inactive)
REMARK    1  A    between atoms: C_1  and  C_6 
REMARK    2  A    between atoms: C_1  and  C_2 
REMARK    3  A    between atoms: C_1  and  N_19 
REMARK    4  A    between atoms: C_2  and  C_17 
REMARK       I    between atoms: C_6  and  N_8 
REMARK    5  A    between atoms: N_8  and  C_25 
REMARK    6  A    between atoms: C_11  and  C_25 
REMARK    7  A    between atoms: P_20  and  O_27 
REMARK    8  A    between atoms: P_20  and  O_22 
REMARK    9  A    between atoms: C_25  and  C_26 
REMARK   10  A    between atoms: C_26  and  O_27 
ROOT
HETATM    1  C           1     -35.083  -0.118 -13.409  0.00  0.00     0.249 C 
HETATM    2  O           1     -34.708   0.985 -13.732  0.00  0.00    -0.271 OA
HETATM    3  N           1     -35.434  -1.030 -14.369  0.00  0.00    -0.343 N 
HETATM    4  H           1     -35.747  -1.953 -14.098  0.00  0.00     0.163 HD
ENDROOT
BRANCH   1   5
HETATM    5  C           1     -35.164  -0.489 -11.949  0.00  0.00     0.278 C 
BRANCH   5   6
HETATM    6  C           1     -35.979  -1.766 -11.792  0.00  0.00     0.081 C 
BRANCH   6   7
HETATM    7  C           1     -35.062  -2.909 -11.488  0.00  0.00    -0.056 A 
HETATM    8  C           1     -33.684  -2.759 -11.647  0.00  0.00     0.007 A 
HETATM    9  C           1     -32.830  -3.825 -11.364  0.00  0.00     0.001 A 
HETATM   10  C           1     -33.353  -5.040 -10.921  0.00  0.00     0.000 A 
HETATM   11  C           1     -34.730  -5.190 -10.764  0.00  0.00     0.001 A 
HETATM   12  C           1     -35.585  -4.124 -11.047  0.00  0.00     0.007 A 
ENDBRANCH   6   7
ENDBRANCH   5   6
BRANCH   5  13
HETATM   13  N           1     -35.825   0.622 -11.188  0.00  0.00    -0.066 N 
HETATM   14  H           1     -36.596   0.230 -10.601  0.00  0.00     0.275 HD
HETATM   15  H           1     -35.123   1.090 -10.572  0.00  0.00     0.275 HD
HETATM   16  H           1     -36.219   1.319 -11.860  0.00  0.00     0.275 HD
ENDBRANCH   5  13
ENDBRANCH   1   5
BRANCH   3  17
HETATM   17  C           1     -35.356  -0.672 -15.771  0.00  0.00     0.210 C 
BRANCH  17  18
HETATM   18  C           1     -36.713  -0.218 -16.251  0.00  0.00     0.198 C 
HETATM   19  O           1     -37.035   0.987 -16.168  0.00  0.00    -0.646 OA
HETATM   20  O           1     -37.516  -1.047 -16.731  0.00  0.00    -0.646 OA
ENDBRANCH  17  18
BRANCH  17  21
HETATM   21  C           1     -34.913  -1.884 -16.580  0.00  0.00     0.217 C 
BRANCH  21  22
HETATM   22  O           1     -35.019  -3.038 -15.791  0.00  0.00    -0.287 OA
BRANCH  22  23
HETATM   23  P           1     -33.815  -4.105 -15.932  0.00  0.00     0.406 P 
HETATM   24  O           1     -33.018  -4.120 -14.685  0.00  0.00    -0.624 OA
HETATM   25  O           1     -32.946  -3.721 -17.067  0.00  0.00    -0.624 OA
BRANCH  23  26
HETATM   26  O           1     -34.429  -5.576 -16.196  0.00  0.00    -0.300 OA
HETATM   27  H           1     -33.797  -6.009 -16.745  0.00  0.00     0.223 HD
ENDBRANCH  23  26
ENDBRANCH  22  23
ENDBRANCH  21  22
ENDBRANCH  17  21
ENDBRANCH   3  17
TORSDOF 10
ENDMDL
MODEL 5
REMARK VINA RESULT:      -6.8      1.014      1.715
REMARK  10 active torsions:
REMARK  status: ('A' for Active; 'I' for Inactive)
REMARK    1  A    between atoms: C_1  and  C_6 
REMARK    2  A    between atoms: C_1  and  C_2 
REMARK    3  A    between atoms: C_1  and  N_19 
REMARK    4  A    between atoms: C_2  and  C_17 
REMARK       I    between atoms: C_6  and  N_8 
REMARK    5  A    between atoms: N_8  and  C_25 
REMARK    6  A    between atoms: C_11  and  C_25 
REMARK    7  A    between atoms: P_20  and  O_27 
REMARK    8  A    between atoms: P_20  and  O_22 
REMARK    9  A    between atoms: C_25  and  C_26 
REMARK   10  A    between atoms: C_26  and  O_27 
ROOT
HETATM    1  C           1     -21.337  -5.864  -5.561  0.00  0.00     0.249 C 
HETATM    2  O           1     -20.612  -5.137  -4.926  0.00  0.00    -0.271 OA
HETATM    3  N           1     -21.412  -7.196  -5.252  0.00  0.00    -0.343 N 
HETATM    4  H           1     -22.020  -7.806  -5.784  0.00  0.00     0.163 HD
ENDROOT
BRANCH   1   5
HETATM    5  C           1     -22.161  -5.305  -6.695  0.00  0.00     0.278 C 
BRANCH   5   6
HETATM    6  C           1     -21.518  -4.024  -7.208  0.00  0.00     0.081 C 
BRANCH   6   7
HETATM    7  C           1     -21.462  -4.057  -8.704  0.00  0.00    -0.056 A 
HETATM    8  C           1     -20.283  -4.428  -9.349  0.00  0.00     0.007 A 
HETATM    9  C           1     -20.230  -4.458 -10.742  0.00  0.00     0.001 A 
HETATM   10  C           1     -21.357  -4.118 -11.491  0.00  0.00     0.000 A 
HETATM   11  C           1     -22.536  -3.745 -10.845  0.00  0.00     0.001 A 
HETATM   12  C           1     -22.589  -3.715  -9.451  0.00  0.00     0.007 A 
ENDBRANCH   6   7
ENDBRANCH   5   6
BRANCH   5  13
HETATM   13  N           1     -23.547  -5.006  -6.205  0.00  0.00    -0.066 N 
HETATM   14  H           1     -23.643  -5.326  -5.215  0.00  0.00     0.275 HD
HETATM   15  H           1     -23.721  -3.977  -6.256  0.00  0.00     0.275 HD
HETATM   16  H           1     -24.243  -5.507  -6.802  0.00  0.00     0.275 HD
ENDBRANCH   5  13
ENDBRANCH   1   5
BRANCH   3  17
HETATM   17  C           1     -20.620  -7.733  -4.162  0.00  0.00     0.210 C 
BRANCH  17  18
HETATM   18  C           1     -19.671  -8.778  -4.697  0.00  0.00     0.198 C 
HETATM   19  O           1     -18.572  -8.971  -4.134  0.00  0.00    -0.646 OA
HETATM   20  O           1     -19.983  -9.450  -5.703  0.00  0.00    -0.646 OA
ENDBRANCH  17  18
BRANCH  17  21
HETATM   21  C           1     -21.542  -8.367  -3.129  0.00  0.00     0.217 C 
BRANCH  21  22
HETATM   22  O           1     -20.948  -8.289  -1.862  0.00  0.00    -0.287 OA
BRANCH  22  23
HETATM   23  P           1     -21.964  -8.179  -0.611  0.00  0.00     0.406 P 
HETATM   24  O           1     -22.754  -6.932  -0.724  0.00  0.00    -0.624 OA
HETATM   25  O           1     -21.192  -8.160   0.651  0.00  0.00    -0.624 OA
BRANCH  23  26
HETATM   26  O           1     -22.961  -9.449  -0.616  0.00  0.00    -0.300 OA
HETATM   27  H           1     -23.708  -9.175  -0.110  0.00  0.00     0.223 HD
ENDBRANCH  23  26
ENDBRANCH  22  23
ENDBRANCH  21  22
ENDBRANCH  17  21
ENDBRANCH   3  17
TORSDOF 10
ENDMDL
MODEL 6
REMARK VINA RESULT:      -6.6      2.286      3.784
REMARK  10 active torsions:
REMARK  status: ('A' for Active; 'I' for Inactive)
REMARK    1  A    between atoms: C_1  and  C_6 
REMARK    2  A    between atoms: C_1  and  C_2 
REMARK    3  A    between atoms: C_1  and  N_19 
REMARK    4  A    between atoms: C_2  and  C_17 
REMARK       I    between atoms: C_6  and  N_8 
REMARK    5  A    between atoms: N_8  and  C_25 
REMARK    6  A    between atoms: C_11  and  C_25 
REMARK    7  A    between atoms: P_20  and  O_27 
REMARK    8  A    between atoms: P_20  and  O_22 
REMARK    9  A    between atoms: C_25  and  C_26 
REMARK   10  A    between atoms: C_26  and  O_27 
ROOT
HETATM    1  C           1     -21.677  -6.018  -5.434  0.00  0.00     0.249 C 
HETATM    2  O           1     -22.875  -5.983  -5.280  0.00  0.00    -0.271 OA
HETATM    3  N           1     -20.936  -6.983  -4.804  0.00  0.00    -0.343 N 
HETATM    4  H           1     -19.932  -7.013  -4.933  0.00  0.00     0.163 HD
ENDROOT
BRANCH   1   5
HETATM    5  C           1     -20.999  -5.001  -6.317  0.00  0.00     0.278 C 
BRANCH   5   6
HETATM    6  C           1     -20.547  -5.670  -7.609  0.00  0.00     0.081 C 
BRANCH   6   7
HETATM    7  C           1     -21.010  -4.858  -8.779  0.00  0.00    -0.056 A 
HETATM    8  C           1     -20.138  -4.603  -9.838  0.00  0.00     0.007 A 
HETATM    9  C           1     -20.568  -3.847 -10.928  0.00  0.00     0.001 A 
HETATM   10  C           1     -21.869  -3.346 -10.960  0.00  0.00     0.000 A 
HETATM   11  C           1     -22.740  -3.600  -9.901  0.00  0.00     0.001 A 
HETATM   12  C           1     -22.310  -4.357  -8.810  0.00  0.00     0.007 A 
ENDBRANCH   6   7
ENDBRANCH   5   6
BRANCH   5  13
HETATM   13  N           1     -19.807  -4.437  -5.604  0.00  0.00    -0.066 N 
HETATM   14  H           1     -19.971  -4.466  -4.573  0.00  0.00     0.275 HD
HETATM   15  H           1     -18.959  -5.003  -5.838  0.00  0.00     0.275 HD
HETATM   16  H           1     -19.657  -3.447  -5.905  0.00  0.00     0.275 HD
ENDBRANCH   5  13
ENDBRANCH   1   5
BRANCH   3  17
HETATM   17  C           1     -21.588  -7.960  -3.955  0.00  0.00     0.210 C 
BRANCH  17  18
HETATM   18  C           1     -21.178  -7.732  -2.520  0.00  0.00     0.198 C 
HETATM   19  O           1     -21.709  -6.817  -1.855  0.00  0.00    -0.646 OA
HETATM   20  O           1     -20.307  -8.459  -1.996  0.00  0.00    -0.646 OA
ENDBRANCH  17  18
BRANCH  17  21
HETATM   21  C           1     -21.175  -9.361  -4.383  0.00  0.00     0.217 C 
BRANCH  21  22
HETATM   22  O           1     -20.275  -9.277  -5.454  0.00  0.00    -0.287 OA
BRANCH  22  23
HETATM   23  P           1     -18.807  -9.899  -5.196  0.00  0.00     0.406 P 
HETATM   24  O           1     -17.946  -9.640  -6.371  0.00  0.00    -0.624 OA
HETATM   25  O           1     -18.921 -11.358  -4.980  0.00  0.00    -0.624 OA
BRANCH  23  26
HETATM   26  O           1     -18.154  -9.209  -3.889  0.00  0.00    -0.300 OA
HETATM   27  H           1     -18.198  -8.282  -4.055  0.00  0.00     0.223 HD
ENDBRANCH  23  26
ENDBRANCH  22  23
ENDBRANCH  21  22
ENDBRANCH  17  21
ENDBRANCH   3  17
TORSDOF 10
ENDMDL
MODEL 7
REMARK VINA RESULT:      -6.6      1.804      2.525
REMARK  10 active torsions:
REMARK  status: ('A' for Active; 'I' for Inactive)
REMARK    1  A    between atoms: C_1  and  C_6 
REMARK    2  A    between atoms: C_1  and  C_2 
REMARK    3  A    between atoms: C_1  and  N_19 
REMARK    4  A    between atoms: C_2  and  C_17 
REMARK       I    between atoms: C_6  and  N_8 
REMARK    5  A    between atoms: N_8  and  C_25 
REMARK    6  A    between atoms: C_11  and  C_25 
REMARK    7  A    between atoms: P_20  and  O_27 
REMARK    8  A    between atoms: P_20  and  O_22 
REMARK    9  A    between atoms: C_25  and  C_26 
REMARK   10  A    between atoms: C_26  and  O_27 
ROOT
HETATM    1  C           1     -21.706  -5.893  -5.402  0.00  0.00     0.249 C 
HETATM    2  O           1     -22.913  -5.945  -5.407  0.00  0.00    -0.271 OA
HETATM    3  N           1     -20.992  -6.674  -4.531  0.00  0.00    -0.343 N 
HETATM    4  H           1     -19.981  -6.631  -4.527  0.00  0.00     0.163 HD
ENDROOT
BRANCH   1   5
HETATM    5  C           1     -20.986  -4.971  -6.353  0.00  0.00     0.278 C 
BRANCH   5   6
HETATM    6  C           1     -20.656  -5.720  -7.638  0.00  0.00     0.081 C 
BRANCH   6   7
HETATM    7  C           1     -21.057  -4.890  -8.817  0.00  0.00    -0.056 A 
HETATM    8  C           1     -22.354  -4.385  -8.905  0.00  0.00     0.007 A 
HETATM    9  C           1     -22.729  -3.612 -10.004  0.00  0.00     0.001 A 
HETATM   10  C           1     -21.807  -3.344 -11.015  0.00  0.00     0.000 A 
HETATM   11  C           1     -20.510  -3.851 -10.928  0.00  0.00     0.001 A 
HETATM   12  C           1     -20.135  -4.624  -9.829  0.00  0.00     0.007 A 
ENDBRANCH   6   7
ENDBRANCH   5   6
BRANCH   5  13
HETATM   13  N           1     -19.716  -4.489  -5.717  0.00  0.00    -0.066 N 
HETATM   14  H           1     -18.983  -4.364  -6.452  0.00  0.00     0.275 HD
HETATM   15  H           1     -19.888  -3.576  -5.239  0.00  0.00     0.275 HD
HETATM   16  H           1     -19.389  -5.192  -5.016  0.00  0.00     0.275 HD
ENDBRANCH   5  13
ENDBRANCH   1   5
BRANCH   3  17
HETATM   17  C           1     -21.685  -7.560  -3.617  0.00  0.00     0.210 C 
BRANCH  17  18
HETATM   18  C           1     -21.680  -6.958  -2.233  0.00  0.00     0.198 C 
HETATM   19  O           1     -21.098  -7.548  -1.296  0.00  0.00    -0.646 OA
HETATM   20  O           1     -22.258  -5.870  -2.022  0.00  0.00    -0.646 OA
ENDBRANCH  17  18
BRANCH  17  21
HETATM   21  C           1     -20.979  -8.909  -3.585  0.00  0.00     0.217 C 
BRANCH  21  22
HETATM   22  O           1     -21.927  -9.936  -3.678  0.00  0.00    -0.287 OA
BRANCH  22  23
HETATM   23  P           1     -22.051 -10.904  -2.391  0.00  0.00     0.406 P 
HETATM   24  O           1     -20.699 -11.307  -1.944  0.00  0.00    -0.624 OA
HETATM   25  O           1     -22.831 -12.108  -2.753  0.00  0.00    -0.624 OA
BRANCH  23  26
HETATM   26  O           1     -22.799 -10.115  -1.196  0.00  0.00    -0.300 OA
HETATM   27  H           1     -22.245 -10.232  -0.443  0.00  0.00     0.223 HD
ENDBRANCH  23  26
ENDBRANCH  22  23
ENDBRANCH  21  22
ENDBRANCH  17  21
ENDBRANCH   3  17
TORSDOF 10
ENDMDL
MODEL 8
REMARK VINA RESULT:      -6.6      1.533      2.419
REMARK  10 active torsions:
REMARK  status: ('A' for Active; 'I' for Inactive)
REMARK    1  A    between atoms: C_1  and  C_6 
REMARK    2  A    between atoms: C_1  and  C_2 
REMARK    3  A    between atoms: C_1  and  N_19 
REMARK    4  A    between atoms: C_2  and  C_17 
REMARK       I    between atoms: C_6  and  N_8 
REMARK    5  A    between atoms: N_8  and  C_25 
REMARK    6  A    between atoms: C_11  and  C_25 
REMARK    7  A    between atoms: P_20  and  O_27 
REMARK    8  A    between atoms: P_20  and  O_22 
REMARK    9  A    between atoms: C_25  and  C_26 
REMARK   10  A    between atoms: C_26  and  O_27 
ROOT
HETATM    1  C           1     -20.683  -7.588  -5.264  0.00  0.00     0.249 C 
HETATM    2  O           1     -19.667  -7.903  -5.837  0.00  0.00    -0.271 OA
HETATM    3  N           1     -21.033  -8.213  -4.097  0.00  0.00    -0.343 N 
HETATM    4  H           1     -21.883  -7.948  -3.617  0.00  0.00     0.163 HD
ENDROOT
BRANCH   1   5
HETATM    5  C           1     -21.566  -6.506  -5.835  0.00  0.00     0.278 C 
BRANCH   5   6
HETATM    6  C           1     -20.730  -5.268  -6.129  0.00  0.00     0.081 C 
BRANCH   6   7
HETATM    7  C           1     -21.024  -4.783  -7.514  0.00  0.00    -0.056 A 
HETATM    8  C           1     -20.075  -4.940  -8.524  0.00  0.00     0.007 A 
HETATM    9  C           1     -20.348  -4.488  -9.814  0.00  0.00     0.001 A 
HETATM   10  C           1     -21.571  -3.879 -10.096  0.00  0.00     0.000 A 
HETATM   11  C           1     -22.520  -3.722  -9.086  0.00  0.00     0.001 A 
HETATM   12  C           1     -22.247  -4.174  -7.795  0.00  0.00     0.007 A 
ENDBRANCH   6   7
ENDBRANCH   5   6
BRANCH   5  13
HETATM   13  N           1     -22.637  -6.161  -4.843  0.00  0.00    -0.066 N 
HETATM   14  H           1     -23.545  -6.028  -5.343  0.00  0.00     0.275 HD
HETATM   15  H           1     -22.733  -6.936  -4.148  0.00  0.00     0.275 HD
HETATM   16  H           1     -22.380  -5.278  -4.347  0.00  0.00     0.275 HD
ENDBRANCH   5  13
ENDBRANCH   1   5
BRANCH   3  17
HETATM   17  C           1     -20.184  -9.252  -3.549  0.00  0.00     0.210 C 
BRANCH  17  18
HETATM   18  C           1     -20.828 -10.599  -3.774  0.00  0.00     0.198 C 
HETATM   19  O           1     -22.047 -10.754  -3.548  0.00  0.00    -0.646 OA
HETATM   20  O           1     -20.142 -11.559  -4.186  0.00  0.00    -0.646 OA
ENDBRANCH  17  18
BRANCH  17  21
HETATM   21  C           1     -20.000  -9.022  -2.055  0.00  0.00     0.217 C 
BRANCH  21  22
HETATM   22  O           1     -20.755  -7.911  -1.656  0.00  0.00    -0.287 OA
BRANCH  22  23
HETATM   23  P           1     -21.885  -8.189  -0.536  0.00  0.00     0.406 P 
HETATM   24  O           1     -22.822  -7.044  -0.485  0.00  0.00    -0.624 OA
HETATM   25  O           1     -21.240  -8.357   0.785  0.00  0.00    -0.624 OA
BRANCH  23  26
HETATM   26  O           1     -22.698  -9.532  -0.915  0.00  0.00    -0.300 OA
HETATM   27  H           1     -23.262  -9.693  -0.177  0.00  0.00     0.223 HD
ENDBRANCH  23  26
ENDBRANCH  22  23
ENDBRANCH  21  22
ENDBRANCH  17  21
ENDBRANCH   3  17
TORSDOF 10
ENDMDL
MODEL 9
REMARK VINA RESULT:      -6.5     14.967     16.771
REMARK  10 active torsions:
REMARK  status: ('A' for Active; 'I' for Inactive)
REMARK    1  A    between atoms: C_1  and  C_6 
REMARK    2  A    between atoms: C_1  and  C_2 
REMARK    3  A    between atoms: C_1  and  N_19 
REMARK    4  A    between atoms: C_2  and  C_17 
REMARK       I    between atoms: C_6  and  N_8 
REMARK    5  A    between atoms: N_8  and  C_25 
REMARK    6  A    between atoms: C_11  and  C_25 
REMARK    7  A    between atoms: P_20  and  O_27 
REMARK    8  A    between atoms: P_20  and  O_22 
REMARK    9  A    between atoms: C_25  and  C_26 
REMARK   10  A    between atoms: C_26  and  O_27 
ROOT
HETATM    1  C           1     -34.152  -3.545 -16.175  0.00  0.00     0.249 C 
HETATM    2  O           1     -34.710  -4.249 -15.366  0.00  0.00    -0.271 OA
HETATM    3  N           1     -34.566  -2.252 -16.356  0.00  0.00    -0.343 N 
HETATM    4  H           1     -34.099  -1.662 -17.033  0.00  0.00     0.163 HD
ENDROOT
BRANCH   1   5
HETATM    5  C           1     -33.002  -4.091 -16.984  0.00  0.00     0.278 C 
BRANCH   5   6
HETATM    6  C           1     -32.028  -4.813 -16.062  0.00  0.00     0.081 C 
BRANCH   6   7
HETATM    7  C           1     -30.976  -5.492 -16.882  0.00  0.00    -0.056 A 
HETATM    8  C           1     -31.226  -6.749 -17.434  0.00  0.00     0.007 A 
HETATM    9  C           1     -30.245  -7.383 -18.196  0.00  0.00     0.001 A 
HETATM   10  C           1     -29.015  -6.761 -18.407  0.00  0.00     0.000 A 
HETATM   11  C           1     -28.765  -5.505 -17.854  0.00  0.00     0.001 A 
HETATM   12  C           1     -29.745  -4.871 -17.091  0.00  0.00     0.007 A 
ENDBRANCH   6   7
ENDBRANCH   5   6
BRANCH   5  13
HETATM   13  N           1     -32.294  -2.960 -17.670  0.00  0.00    -0.066 N 
HETATM   14  H           1     -31.640  -2.500 -16.998  0.00  0.00     0.275 HD
HETATM   15  H           1     -31.753  -3.330 -18.485  0.00  0.00     0.275 HD
HETATM   16  H           1     -32.996  -2.263 -18.006  0.00  0.00     0.275 HD
ENDBRANCH   5  13
ENDBRANCH   1   5
BRANCH   3  17
HETATM   17  C           1     -35.672  -1.728 -15.578  0.00  0.00     0.210 C 
BRANCH  17  18
HETATM   18  C           1     -36.398  -0.676 -16.381  0.00  0.00     0.198 C 
HETATM   19  O           1     -35.896   0.460 -16.522  0.00  0.00    -0.646 OA
HETATM   20  O           1     -37.502  -0.940 -16.904  0.00  0.00    -0.646 OA
ENDBRANCH  17  18
BRANCH  17  21
HETATM   21  C           1     -35.139  -1.108 -14.294  0.00  0.00     0.217 C 
BRANCH  21  22
HETATM   22  O           1     -35.823  -1.646 -13.195  0.00  0.00    -0.287 OA
BRANCH  22  23
HETATM   23  P           1     -34.905  -2.327 -12.054  0.00  0.00     0.406 P 
HETATM   24  O           1     -35.753  -3.148 -11.162  0.00  0.00    -0.624 OA
HETATM   25  O           1     -34.237  -1.269 -11.264  0.00  0.00    -0.624 OA
BRANCH  23  26
HETATM   26  O           1     -33.790  -3.266 -12.751  0.00  0.00    -0.300 OA
HETATM   27  H           1     -34.014  -4.144 -12.491  0.00  0.00     0.223 HD
ENDBRANCH  23  26
ENDBRANCH  22  23
ENDBRANCH  21  22
ENDBRANCH  17  21
ENDBRANCH   3  17
TORSDOF 10
ENDMDL
