MODEL 1
REMARK VINA RESULT:      -6.1      0.000      0.000
REMARK  8 active torsions:
REMARK  status: ('A' for Active; 'I' for Inactive)
REMARK    1  A    between atoms: N_1  and  C_8 
REMARK       I    between atoms: N_1  and  C_2 
REMARK    2  A    between atoms: C_2  and  C_3 
REMARK    3  A    between atoms: C_3  and  C_4 
REMARK    4  A    between atoms: C_3  and  N_7 
REMARK    5  A    between atoms: C_4  and  O_5 
REMARK    6  A    between atoms: C_8  and  C_10 
REMARK    7  A    between atoms: C_8  and  C_11 
REMARK    8  A    between atoms: C_10  and  C_21 
ROOT
HETATM    1  N           1     -34.896  -1.826 -12.684  0.00  0.00    -0.344 N 
HETATM    2  C           1     -34.033  -2.660 -12.024  0.00  0.00     0.251 C 
HETATM    3  O           1     -33.403  -2.251 -11.079  0.00  0.00    -0.271 OA
HETATM    4  H           1     -35.423  -2.168 -13.476  0.00  0.00     0.163 HD
ENDROOT
BRANCH   2   5
HETATM    5  C           1     -33.870  -4.089 -12.479  0.00  0.00     0.302 C 
BRANCH   5   6
HETATM    6  C           1     -34.863  -4.975 -11.738  0.00  0.00     0.153 C 
HETATM    7  C           1     -34.118  -5.833 -10.723  0.00  0.00     0.042 C 
BRANCH   6   8
HETATM    8  O           1     -35.800  -4.172 -11.072  0.00  0.00    -0.393 OA
HETATM    9  H           1     -36.642  -4.367 -11.445  0.00  0.00     0.210 HD
ENDBRANCH   6   8
ENDBRANCH   5   6
BRANCH   5  10
HETATM   10  N           1     -32.473  -4.551 -12.186  0.00  0.00    -0.064 N 
HETATM   11  H           1     -32.358  -5.539 -12.505  0.00  0.00     0.275 HD
HETATM   12  H           1     -31.792  -3.940 -12.691  0.00  0.00     0.275 HD
HETATM   13  H           1     -32.297  -4.494 -11.157  0.00  0.00     0.275 HD
ENDBRANCH   5  10
ENDBRANCH   2   5
BRANCH   1  14
HETATM   14  C           1     -35.053  -0.453 -12.247  0.00  0.00     0.195 C 
BRANCH  14  15
HETATM   15  C           1     -35.287   0.441 -13.458  0.00  0.00     0.149 C 
BRANCH  15  16
HETATM   16  C           1     -35.749  -0.399 -14.622  0.00  0.00     0.175 C 
HETATM   17  O           1     -36.946  -0.750 -14.705  0.00  0.00    -0.648 OA
HETATM   18  O           1     -34.934  -0.745 -15.506  0.00  0.00    -0.648 OA
ENDBRANCH  15  16
ENDBRANCH  14  15
BRANCH  14  19
HETATM   19  C           1     -36.234  -0.355 -11.313  0.00  0.00     0.197 C 
HETATM   20  O           1     -36.333   0.616 -10.531  0.00  0.00    -0.646 OA
HETATM   21  O           1     -37.112  -1.244 -11.321  0.00  0.00    -0.646 OA
ENDBRANCH  14  19
ENDBRANCH   1  14
TORSDOF 8
ENDMDL
MODEL 2
REMARK VINA RESULT:      -5.8     10.509     12.313
REMARK  8 active torsions:
REMARK  status: ('A' for Active; 'I' for Inactive)
REMARK    1  A    between atoms: N_1  and  C_8 
REMARK       I    between atoms: N_1  and  C_2 
REMARK    2  A    between atoms: C_2  and  C_3 
REMARK    3  A    between atoms: C_3  and  C_4 
REMARK    4  A    between atoms: C_3  and  N_7 
REMARK    5  A    between atoms: C_4  and  O_5 
REMARK    6  A    between atoms: C_8  and  C_10 
REMARK    7  A    between atoms: C_8  and  C_11 
REMARK    8  A    between atoms: C_10  and  C_21 
ROOT
HETATM    1  N           1     -26.306  -6.348 -18.202  0.00  0.00    -0.344 N 
HETATM    2  C           1     -26.337  -6.720 -19.519  0.00  0.00     0.251 C 
HETATM    3  O           1     -27.390  -6.991 -20.046  0.00  0.00    -0.271 OA
HETATM    4  H           1     -25.424  -6.122 -17.761  0.00  0.00     0.163 HD
ENDROOT
BRANCH   2   5
HETATM    5  C           1     -25.055  -6.792 -20.313  0.00  0.00     0.302 C 
BRANCH   5   6
HETATM    6  C           1     -25.325  -7.458 -21.655  0.00  0.00     0.153 C 
HETATM    7  C           1     -24.019  -7.590 -22.428  0.00  0.00     0.042 C 
BRANCH   6   8
HETATM    8  O           1     -25.873  -8.731 -21.444  0.00  0.00    -0.393 OA
HETATM    9  H           1     -26.678  -8.608 -20.971  0.00  0.00     0.210 HD
ENDBRANCH   6   8
ENDBRANCH   5   6
BRANCH   5  10
HETATM   10  N           1     -24.041  -7.594 -19.552  0.00  0.00    -0.064 N 
HETATM   11  H           1     -23.845  -7.131 -18.636  0.00  0.00     0.275 HD
HETATM   12  H           1     -24.414  -8.556 -19.383  0.00  0.00     0.275 HD
HETATM   13  H           1     -23.158  -7.656 -20.107  0.00  0.00     0.275 HD
ENDBRANCH   5  10
ENDBRANCH   2   5
BRANCH   1  14
HETATM   14  C           1     -27.537  -6.279 -17.440  0.00  0.00     0.195 C 
BRANCH  14  15
HETATM   15  C           1     -27.253  -6.632 -15.986  0.00  0.00     0.149 C 
BRANCH  15  16
HETATM   16  C           1     -25.764  -6.746 -15.776  0.00  0.00     0.175 C 
HETATM   17  O           1     -25.223  -7.872 -15.723  0.00  0.00    -0.648 OA
HETATM   18  O           1     -25.069  -5.714 -15.656  0.00  0.00    -0.648 OA
ENDBRANCH  15  16
ENDBRANCH  14  15
BRANCH  14  19
HETATM   19  C           1     -28.099  -4.881 -17.518  0.00  0.00     0.197 C 
HETATM   20  O           1     -28.947  -4.596 -18.392  0.00  0.00    -0.646 OA
HETATM   21  O           1     -27.716  -4.007 -16.710  0.00  0.00    -0.646 OA
ENDBRANCH  14  19
ENDBRANCH   1  14
TORSDOF 8
ENDMDL
MODEL 3
REMARK VINA RESULT:      -5.6      9.998     11.595
REMARK  8 active torsions:
REMARK  status: ('A' for Active; 'I' for Inactive)
REMARK    1  A    between atoms: N_1  and  C_8 
REMARK       I    between atoms: N_1  and  C_2 
REMARK    2  A    between atoms: C_2  and  C_3 
REMARK    3  A    between atoms: C_3  and  C_4 
REMARK    4  A    between atoms: C_3  and  N_7 
REMARK    5  A    between atoms: C_4  and  O_5 
REMARK    6  A    between atoms: C_8  and  C_10 
REMARK    7  A    between atoms: C_8  and  C_11 
REMARK    8  A    between atoms: C_10  and  C_21 
ROOT
HETATM    1  N           1     -26.918  -6.430 -18.421  0.00  0.00    -0.344 N 
HETATM    2  C           1     -26.407  -6.405 -19.690  0.00  0.00     0.251 C 
HETATM    3  O           1     -27.107  -6.072 -20.617  0.00  0.00    -0.271 OA
HETATM    4  H           1     -26.332  -6.709 -17.645  0.00  0.00     0.163 HD
ENDROOT
BRANCH   2   5
HETATM    5  C           1     -24.969  -6.793 -19.932  0.00  0.00     0.302 C 
BRANCH   5   6
HETATM    6  C           1     -24.878  -7.646 -21.191  0.00  0.00     0.153 C 
HETATM    7  C           1     -23.525  -8.345 -21.233  0.00  0.00     0.042 C 
BRANCH   6   8
HETATM    8  O           1     -25.899  -8.606 -21.180  0.00  0.00    -0.393 OA
HETATM    9  H           1     -26.701  -8.155 -21.383  0.00  0.00     0.210 HD
ENDBRANCH   6   8
ENDBRANCH   5   6
BRANCH   5  10
HETATM   10  N           1     -24.459  -7.578 -18.760  0.00  0.00    -0.064 N 
HETATM   11  H           1     -25.208  -7.647 -18.034  0.00  0.00     0.275 HD
HETATM   12  H           1     -24.190  -8.537 -19.074  0.00  0.00     0.275 HD
HETATM   13  H           1     -23.625  -7.096 -18.354  0.00  0.00     0.275 HD
ENDBRANCH   5  10
ENDBRANCH   2   5
BRANCH   1  14
HETATM   14  C           1     -28.299  -6.057 -18.188  0.00  0.00     0.195 C 
BRANCH  14  15
HETATM   15  C           1     -28.977  -7.124 -17.339  0.00  0.00     0.149 C 
BRANCH  15  16
HETATM   16  C           1     -30.342  -7.428 -17.906  0.00  0.00     0.175 C 
HETATM   17  O           1     -30.461  -8.239 -18.850  0.00  0.00    -0.648 OA
HETATM   18  O           1     -31.354  -6.869 -17.431  0.00  0.00    -0.648 OA
ENDBRANCH  15  16
ENDBRANCH  14  15
BRANCH  14  19
HETATM   19  C           1     -28.347  -4.733 -17.465  0.00  0.00     0.197 C 
HETATM   20  O           1     -27.536  -4.495 -16.543  0.00  0.00    -0.646 OA
HETATM   21  O           1     -29.197  -3.875 -17.788  0.00  0.00    -0.646 OA
ENDBRANCH  14  19
ENDBRANCH   1  14
TORSDOF 8
ENDMDL
MODEL 4
REMARK VINA RESULT:      -5.4     12.325     14.102
REMARK  8 active torsions:
REMARK  status: ('A' for Active; 'I' for Inactive)
REMARK    1  A    between atoms: N_1  and  C_8 
REMARK       I    between atoms: N_1  and  C_2 
REMARK    2  A    between atoms: C_2  and  C_3 
REMARK    3  A    between atoms: C_3  and  C_4 
REMARK    4  A    between atoms: C_3  and  N_7 
REMARK    5  A    between atoms: C_4  and  O_5 
REMARK    6  A    between atoms: C_8  and  C_10 
REMARK    7  A    between atoms: C_8  and  C_11 
REMARK    8  A    between atoms: C_10  and  C_21 
ROOT
HETATM    1  N           1     -22.627  -4.606  -8.003  0.00  0.00    -0.344 N 
HETATM    2  C           1     -21.559  -4.308  -7.201  0.00  0.00     0.251 C 
HETATM    3  O           1     -20.796  -3.426  -7.514  0.00  0.00    -0.271 OA
HETATM    4  H           1     -23.265  -5.347  -7.741  0.00  0.00     0.163 HD
ENDROOT
BRANCH   2   5
HETATM    5  C           1     -21.334  -5.083  -5.925  0.00  0.00     0.302 C 
BRANCH   5   6
HETATM    6  C           1     -20.220  -6.099  -6.137  0.00  0.00     0.153 C 
HETATM    7  C           1     -20.606  -7.418  -5.480  0.00  0.00     0.042 C 
BRANCH   6   8
HETATM    8  O           1     -20.026  -6.301  -7.511  0.00  0.00    -0.393 OA
HETATM    9  H           1     -20.664  -6.935  -7.788  0.00  0.00     0.210 HD
ENDBRANCH   6   8
ENDBRANCH   5   6
BRANCH   5  10
HETATM   10  N           1     -22.597  -5.798  -5.547  0.00  0.00    -0.064 N 
HETATM   11  H           1     -22.749  -5.716  -4.516  0.00  0.00     0.275 HD
HETATM   12  H           1     -23.405  -5.369  -6.052  0.00  0.00     0.275 HD
HETATM   13  H           1     -22.518  -6.806  -5.808  0.00  0.00     0.275 HD
ENDBRANCH   5  10
ENDBRANCH   2   5
BRANCH   1  14
HETATM   14  C           1     -22.843  -3.863  -9.229  0.00  0.00     0.195 C 
BRANCH  14  15
HETATM   15  C           1     -22.109  -4.549 -10.374  0.00  0.00     0.149 C 
BRANCH  15  16
HETATM   16  C           1     -21.279  -3.534 -11.120  0.00  0.00     0.175 C 
HETATM   17  O           1     -20.041  -3.687 -11.217  0.00  0.00    -0.648 OA
HETATM   18  O           1     -21.827  -2.539 -11.642  0.00  0.00    -0.648 OA
ENDBRANCH  15  16
ENDBRANCH  14  15
BRANCH  14  19
HETATM   19  C           1     -24.320  -3.815  -9.534  0.00  0.00     0.197 C 
HETATM   20  O           1     -24.927  -4.862  -9.851  0.00  0.00    -0.646 OA
HETATM   21  O           1     -24.937  -2.730  -9.470  0.00  0.00    -0.646 OA
ENDBRANCH  14  19
ENDBRANCH   1  14
TORSDOF 8
ENDMDL
MODEL 5
REMARK VINA RESULT:      -5.3     12.291     14.112
REMARK  8 active torsions:
REMARK  status: ('A' for Active; 'I' for Inactive)
REMARK    1  A    between atoms: N_1  and  C_8 
REMARK       I    between atoms: N_1  and  C_2 
REMARK    2  A    between atoms: C_2  and  C_3 
REMARK    3  A    between atoms: C_3  and  C_4 
REMARK    4  A    between atoms: C_3  and  N_7 
REMARK    5  A    between atoms: C_4  and  O_5 
REMARK    6  A    between atoms: C_8  and  C_10 
REMARK    7  A    between atoms: C_8  and  C_11 
REMARK    8  A    between atoms: C_10  and  C_21 
ROOT
HETATM    1  N           1     -21.827  -4.206  -9.500  0.00  0.00    -0.344 N 
HETATM    2  C           1     -20.580  -4.461  -8.996  0.00  0.00     0.251 C 
HETATM    3  O           1     -19.768  -5.052  -9.666  0.00  0.00    -0.271 OA
HETATM    4  H           1     -22.508  -3.711  -8.938  0.00  0.00     0.163 HD
ENDROOT
BRANCH   2   5
HETATM    5  C           1     -20.221  -4.003  -7.604  0.00  0.00     0.302 C 
BRANCH   5   6
HETATM    6  C           1     -19.901  -5.214  -6.738  0.00  0.00     0.153 C 
HETATM    7  C           1     -20.356  -4.950  -5.308  0.00  0.00     0.042 C 
BRANCH   6   8
HETATM    8  O           1     -20.571  -6.339  -7.240  0.00  0.00    -0.393 OA
HETATM    9  H           1     -20.902  -6.103  -8.089  0.00  0.00     0.210 HD
ENDBRANCH   6   8
ENDBRANCH   5   6
BRANCH   5  10
HETATM   10  N           1     -21.378  -3.256  -7.009  0.00  0.00    -0.064 N 
HETATM   11  H           1     -21.592  -2.420  -7.598  0.00  0.00     0.275 HD
HETATM   12  H           1     -22.214  -3.881  -6.975  0.00  0.00     0.275 HD
HETATM   13  H           1     -21.133  -2.947  -6.042  0.00  0.00     0.275 HD
ENDBRANCH   5  10
ENDBRANCH   2   5
BRANCH   1  14
HETATM   14  C           1     -22.173  -4.645 -10.837  0.00  0.00     0.195 C 
BRANCH  14  15
HETATM   15  C           1     -23.658  -4.976 -10.894  0.00  0.00     0.149 C 
BRANCH  15  16
HETATM   16  C           1     -24.449  -3.857 -10.262  0.00  0.00     0.175 C 
HETATM   17  O           1     -24.399  -3.676  -9.026  0.00  0.00    -0.648 OA
HETATM   18  O           1     -25.154  -3.110 -10.975  0.00  0.00    -0.648 OA
ENDBRANCH  15  16
ENDBRANCH  14  15
BRANCH  14  19
HETATM   19  C           1     -21.864  -3.545 -11.823  0.00  0.00     0.197 C 
HETATM   20  O           1     -21.885  -3.782 -13.051  0.00  0.00    -0.646 OA
HETATM   21  O           1     -21.586  -2.398 -11.412  0.00  0.00    -0.646 OA
ENDBRANCH  14  19
ENDBRANCH   1  14
TORSDOF 8
ENDMDL
MODEL 6
REMARK VINA RESULT:      -5.2     25.147     26.429
REMARK  8 active torsions:
REMARK  status: ('A' for Active; 'I' for Inactive)
REMARK    1  A    between atoms: N_1  and  C_8 
REMARK       I    between atoms: N_1  and  C_2 
REMARK    2  A    between atoms: C_2  and  C_3 
REMARK    3  A    between atoms: C_3  and  C_4 
REMARK    4  A    between atoms: C_3  and  N_7 
REMARK    5  A    between atoms: C_4  and  O_5 
REMARK    6  A    between atoms: C_8  and  C_10 
REMARK    7  A    between atoms: C_8  and  C_11 
REMARK    8  A    between atoms: C_10  and  C_21 
ROOT
HETATM    1  N           1     -11.861   5.451 -20.726  0.00  0.00    -0.344 N 
HETATM    2  C           1     -11.148   6.201 -19.830  0.00  0.00     0.251 C 
HETATM    3  O           1     -10.810   5.720 -18.775  0.00  0.00    -0.271 OA
HETATM    4  H           1     -12.145   5.854 -21.610  0.00  0.00     0.163 HD
ENDROOT
BRANCH   2   5
HETATM    5  C           1     -10.785   7.628 -20.160  0.00  0.00     0.302 C 
BRANCH   5   6
HETATM    6  C           1      -9.616   7.642 -21.135  0.00  0.00     0.153 C 
HETATM    7  C           1      -8.958   9.016 -21.118  0.00  0.00     0.042 C 
BRANCH   6   8
HETATM    8  O           1      -8.678   6.672 -20.755  0.00  0.00    -0.393 OA
HETATM    9  H           1      -8.843   5.910 -21.284  0.00  0.00     0.210 HD
ENDBRANCH   6   8
ENDBRANCH   5   6
BRANCH   5  10
HETATM   10  N           1     -10.396   8.348 -18.903  0.00  0.00    -0.064 N 
HETATM   11  H           1     -11.040   8.069 -18.128  0.00  0.00     0.275 HD
HETATM   12  H           1      -9.415   8.095 -18.647  0.00  0.00     0.275 HD
HETATM   13  H           1     -10.462   9.379 -19.057  0.00  0.00     0.275 HD
ENDBRANCH   5  10
ENDBRANCH   2   5
BRANCH   1  14
HETATM   14  C           1     -12.210   4.080 -20.410  0.00  0.00     0.195 C 
BRANCH  14  15
HETATM   15  C           1     -13.636   3.802 -20.864  0.00  0.00     0.149 C 
BRANCH  15  16
HETATM   16  C           1     -14.471   5.047 -20.695  0.00  0.00     0.175 C 
HETATM   17  O           1     -14.796   5.433 -19.551  0.00  0.00    -0.648 OA
HETATM   18  O           1     -14.837   5.695 -21.700  0.00  0.00    -0.648 OA
ENDBRANCH  15  16
ENDBRANCH  14  15
BRANCH  14  19
HETATM   19  C           1     -11.263   3.144 -21.121  0.00  0.00     0.197 C 
HETATM   20  O           1     -10.701   3.507 -22.177  0.00  0.00    -0.646 OA
HETATM   21  O           1     -11.041   2.006 -20.654  0.00  0.00    -0.646 OA
ENDBRANCH  14  19
ENDBRANCH   1  14
TORSDOF 8
ENDMDL
MODEL 7
REMARK VINA RESULT:      -4.9     12.779     15.218
REMARK  8 active torsions:
REMARK  status: ('A' for Active; 'I' for Inactive)
REMARK    1  A    between atoms: N_1  and  C_8 
REMARK       I    between atoms: N_1  and  C_2 
REMARK    2  A    between atoms: C_2  and  C_3 
REMARK    3  A    between atoms: C_3  and  C_4 
REMARK    4  A    between atoms: C_3  and  N_7 
REMARK    5  A    between atoms: C_4  and  O_5 
REMARK    6  A    between atoms: C_8  and  C_10 
REMARK    7  A    between atoms: C_8  and  C_11 
REMARK    8  A    between atoms: C_10  and  C_21 
ROOT
HETATM    1  N           1     -21.824  -5.084  -7.212  0.00  0.00    -0.344 N 
HETATM    2  C           1     -22.214  -4.124  -8.106  0.00  0.00     0.251 C 
HETATM    3  O           1     -21.651  -3.055  -8.127  0.00  0.00    -0.271 OA
HETATM    4  H           1     -22.296  -5.979  -7.193  0.00  0.00     0.163 HD
ENDROOT
BRANCH   2   5
HETATM    5  C           1     -23.346  -4.400  -9.064  0.00  0.00     0.302 C 
BRANCH   5   6
HETATM    6  C           1     -22.819  -4.378 -10.493  0.00  0.00     0.153 C 
HETATM    7  C           1     -23.818  -5.069 -11.413  0.00  0.00     0.042 C 
BRANCH   6   8
HETATM    8  O           1     -22.645  -3.050 -10.907  0.00  0.00    -0.393 OA
HETATM    9  H           1     -22.814  -2.505 -10.158  0.00  0.00     0.210 HD
ENDBRANCH   6   8
ENDBRANCH   5   6
BRANCH   5  10
HETATM   10  N           1     -24.403  -3.348  -8.906  0.00  0.00    -0.064 N 
HETATM   11  H           1     -25.341  -3.803  -8.837  0.00  0.00     0.275 HD
HETATM   12  H           1     -24.219  -2.798  -8.037  0.00  0.00     0.275 HD
HETATM   13  H           1     -24.386  -2.709  -9.733  0.00  0.00     0.275 HD
ENDBRANCH   5  10
ENDBRANCH   2   5
BRANCH   1  14
HETATM   14  C           1     -20.737  -4.819  -6.291  0.00  0.00     0.195 C 
BRANCH  14  15
HETATM   15  C           1     -21.006  -5.529  -4.970  0.00  0.00     0.149 C 
BRANCH  15  16
HETATM   16  C           1     -22.154  -6.492  -5.141  0.00  0.00     0.175 C 
HETATM   17  O           1     -21.929  -7.702  -5.360  0.00  0.00    -0.648 OA
HETATM   18  O           1     -23.332  -6.080  -5.063  0.00  0.00    -0.648 OA
ENDBRANCH  15  16
ENDBRANCH  14  15
BRANCH  14  19
HETATM   19  C           1     -19.444  -5.326  -6.881  0.00  0.00     0.197 C 
HETATM   20  O           1     -18.537  -4.520  -7.185  0.00  0.00    -0.646 OA
HETATM   21  O           1     -19.279  -6.551  -7.065  0.00  0.00    -0.646 OA
ENDBRANCH  14  19
ENDBRANCH   1  14
TORSDOF 8
ENDMDL
MODEL 8
REMARK VINA RESULT:      -4.7     24.900     26.151
REMARK  8 active torsions:
REMARK  status: ('A' for Active; 'I' for Inactive)
REMARK    1  A    between atoms: N_1  and  C_8 
REMARK       I    between atoms: N_1  and  C_2 
REMARK    2  A    between atoms: C_2  and  C_3 
REMARK    3  A    between atoms: C_3  and  C_4 
REMARK    4  A    between atoms: C_3  and  N_7 
REMARK    5  A    between atoms: C_4  and  O_5 
REMARK    6  A    between atoms: C_8  and  C_10 
REMARK    7  A    between atoms: C_8  and  C_11 
REMARK    8  A    between atoms: C_10  and  C_21 
ROOT
HETATM    1  N           1     -11.993   7.023 -21.177  0.00  0.00    -0.344 N 
HETATM    2  C           1     -12.938   6.082 -20.867  0.00  0.00     0.251 C 
HETATM    3  O           1     -13.613   6.210 -19.873  0.00  0.00    -0.271 OA
HETATM    4  H           1     -11.427   6.916 -22.008  0.00  0.00     0.163 HD
ENDROOT
BRANCH   2   5
HETATM    5  C           1     -13.135   4.887 -21.766  0.00  0.00     0.302 C 
BRANCH   5   6
HETATM    6  C           1     -14.165   5.221 -22.837  0.00  0.00     0.153 C 
HETATM    7  C           1     -15.210   4.113 -22.899  0.00  0.00     0.042 C 
BRANCH   6   8
HETATM    8  O           1     -14.791   6.435 -22.522  0.00  0.00    -0.393 OA
HETATM    9  H           1     -15.359   6.646 -23.243  0.00  0.00     0.210 HD
ENDBRANCH   6   8
ENDBRANCH   5   6
BRANCH   5  10
HETATM   10  N           1     -13.621   3.724 -20.952  0.00  0.00    -0.064 N 
HETATM   11  H           1     -13.562   2.851 -21.522  0.00  0.00     0.275 HD
HETATM   12  H           1     -13.025   3.624 -20.099  0.00  0.00     0.275 HD
HETATM   13  H           1     -14.612   3.889 -20.667  0.00  0.00     0.275 HD
ENDBRANCH   5  10
ENDBRANCH   2   5
BRANCH   1  14
HETATM   14  C           1     -11.803   8.172 -20.313  0.00  0.00     0.195 C 
BRANCH  14  15
HETATM   15  C           1     -10.332   8.286 -19.936  0.00  0.00     0.149 C 
BRANCH  15  16
HETATM   16  C           1      -9.752   6.906 -19.746  0.00  0.00     0.175 C 
HETATM   17  O           1     -10.112   6.204 -18.776  0.00  0.00    -0.648 OA
HETATM   18  O           1      -8.912   6.464 -20.559  0.00  0.00    -0.648 OA
ENDBRANCH  15  16
ENDBRANCH  14  15
BRANCH  14  19
HETATM   19  C           1     -12.236   9.423 -21.039  0.00  0.00     0.197 C 
HETATM   20  O           1     -13.382   9.494 -21.533  0.00  0.00    -0.646 OA
HETATM   21  O           1     -11.448  10.387 -21.146  0.00  0.00    -0.646 OA
ENDBRANCH  14  19
ENDBRANCH   1  14
TORSDOF 8
ENDMDL
MODEL 9
REMARK VINA RESULT:      -4.7     10.171     12.002
REMARK  8 active torsions:
REMARK  status: ('A' for Active; 'I' for Inactive)
REMARK    1  A    between atoms: N_1  and  C_8 
REMARK       I    between atoms: N_1  and  C_2 
REMARK    2  A    between atoms: C_2  and  C_3 
REMARK    3  A    between atoms: C_3  and  C_4 
REMARK    4  A    between atoms: C_3  and  N_7 
REMARK    5  A    between atoms: C_4  and  O_5 
REMARK    6  A    between atoms: C_8  and  C_10 
REMARK    7  A    between atoms: C_8  and  C_11 
REMARK    8  A    between atoms: C_10  and  C_21 
ROOT
HETATM    1  N           1     -27.079  -6.018 -18.470  0.00  0.00    -0.344 N 
HETATM    2  C           1     -28.403  -6.360 -18.439  0.00  0.00     0.251 C 
HETATM    3  O           1     -28.758  -7.439 -18.849  0.00  0.00    -0.271 OA
HETATM    4  H           1     -26.781  -5.113 -18.128  0.00  0.00     0.163 HD
ENDROOT
BRANCH   2   5
HETATM    5  C           1     -29.420  -5.388 -17.893  0.00  0.00     0.302 C 
BRANCH   5   6
HETATM    6  C           1     -28.725  -4.090 -17.503  0.00  0.00     0.153 C 
HETATM    7  C           1     -29.760  -2.980 -17.370  0.00  0.00     0.042 C 
BRANCH   6   8
HETATM    8  O           1     -28.065  -4.262 -16.279  0.00  0.00    -0.393 OA
HETATM    9  H           1     -28.731  -4.365 -15.621  0.00  0.00     0.210 HD
ENDBRANCH   6   8
ENDBRANCH   5   6
BRANCH   5  10
HETATM   10  N           1     -30.080  -5.983 -16.684  0.00  0.00    -0.064 N 
HETATM   11  H           1     -29.873  -5.392 -15.847  0.00  0.00     0.275 HD
HETATM   12  H           1     -31.113  -6.022 -16.835  0.00  0.00     0.275 HD
HETATM   13  H           1     -29.714  -6.949 -16.527  0.00  0.00     0.275 HD
ENDBRANCH   5  10
ENDBRANCH   2   5
BRANCH   1  14
HETATM   14  C           1     -26.101  -6.951 -18.996  0.00  0.00     0.195 C 
BRANCH  14  15
HETATM   15  C           1     -25.853  -6.651 -20.468  0.00  0.00     0.149 C 
BRANCH  15  16
HETATM   16  C           1     -25.833  -7.941 -21.249  0.00  0.00     0.175 C 
HETATM   17  O           1     -24.781  -8.315 -21.813  0.00  0.00    -0.648 OA
HETATM   18  O           1     -26.868  -8.636 -21.333  0.00  0.00    -0.648 OA
ENDBRANCH  15  16
ENDBRANCH  14  15
BRANCH  14  19
HETATM   19  C           1     -24.810  -6.811 -18.228  0.00  0.00     0.197 C 
HETATM   20  O           1     -23.720  -6.766 -18.840  0.00  0.00    -0.646 OA
HETATM   21  O           1     -24.829  -6.739 -16.980  0.00  0.00    -0.646 OA
ENDBRANCH  14  19
ENDBRANCH   1  14
TORSDOF 8
ENDMDL
