MODEL 1
REMARK VINA RESULT:      -5.3      0.000      0.000
REMARK  5 active torsions:
REMARK  status: ('A' for Active; 'I' for Inactive)
REMARK       I    between atoms: C_1  and  N_8 
REMARK    1  A    between atoms: C_1  and  C_2 
REMARK    2  A    between atoms: C_2  and  N_5 
REMARK    3  A    between atoms: N_8  and  C_12 
REMARK    4  A    between atoms: C_10  and  C_12 
REMARK    5  A    between atoms: C_12  and  C_13 
ROOT
HETATM    1  C           1     -37.171  -0.017 -10.691  0.00  0.00     0.243 C 
HETATM    2  O           1     -37.995  -0.876 -10.893  0.00  0.00    -0.272 OA
HETATM    3  N           1     -36.016   0.012 -11.424  0.00  0.00    -0.345 N 
HETATM    4  H           1     -35.326   0.733 -11.256  0.00  0.00     0.163 HD
ENDROOT
BRANCH   3   5
HETATM    5  C           1     -35.780  -0.991 -12.445  0.00  0.00     0.189 C 
BRANCH   5   6
HETATM    6  C           1     -35.558  -0.306 -13.787  0.00  0.00     0.010 C 
HETATM    7  C           1     -36.903   0.060 -14.399  0.00  0.00     0.012 C 
HETATM    8  C           1     -34.732   0.956 -13.582  0.00  0.00     0.012 C 
ENDBRANCH   5   6
BRANCH   5   9
HETATM    9  C           1     -34.559  -1.799 -12.082  0.00  0.00     0.197 C 
HETATM   10  O           1     -34.168  -2.715 -12.837  0.00  0.00    -0.646 OA
HETATM   11  O           1     -33.938  -1.552 -11.025  0.00  0.00    -0.646 OA
ENDBRANCH   5   9
ENDBRANCH   3   5
BRANCH   1  12
HETATM   12  C           1     -37.416   1.028  -9.628  0.00  0.00     0.332 C 
BRANCH  12  13
HETATM   13  N           1     -36.225   1.106  -8.720  0.00  0.00    -0.071 N 
HETATM   14  H           1     -35.511   1.744  -9.135  0.00  0.00     0.274 HD
HETATM   15  H           1     -35.815   0.152  -8.602  0.00  0.00     0.274 HD
HETATM   16  H           1     -36.522   1.474  -7.788  0.00  0.00     0.274 HD
ENDBRANCH  12  13
ENDBRANCH   1  12
TORSDOF 5
ENDMDL
MODEL 2
REMARK VINA RESULT:      -5.2     13.380     14.832
REMARK  5 active torsions:
REMARK  status: ('A' for Active; 'I' for Inactive)
REMARK       I    between atoms: C_1  and  N_8 
REMARK    1  A    between atoms: C_1  and  C_2 
REMARK    2  A    between atoms: C_2  and  N_5 
REMARK    3  A    between atoms: N_8  and  C_12 
REMARK    4  A    between atoms: C_10  and  C_12 
REMARK    5  A    between atoms: C_12  and  C_13 
ROOT
HETATM    1  C           1     -21.802  -4.453  -7.380  0.00  0.00     0.243 C 
HETATM    2  O           1     -21.576  -3.287  -7.164  0.00  0.00    -0.272 OA
HETATM    3  N           1     -22.239  -4.848  -8.615  0.00  0.00    -0.345 N 
HETATM    4  H           1     -22.428  -5.826  -8.797  0.00  0.00     0.163 HD
ENDROOT
BRANCH   3   5
HETATM    5  C           1     -22.434  -3.866  -9.665  0.00  0.00     0.189 C 
BRANCH   5   6
HETATM    6  C           1     -21.476  -4.155 -10.813  0.00  0.00     0.010 C 
HETATM    7  C           1     -21.154  -2.858 -11.544  0.00  0.00     0.012 C 
HETATM    8  C           1     -20.192  -4.761 -10.263  0.00  0.00     0.012 C 
ENDBRANCH   5   6
BRANCH   5   9
HETATM    9  C           1     -23.856  -3.938 -10.163  0.00  0.00     0.197 C 
HETATM   10  O           1     -24.458  -5.032 -10.180  0.00  0.00    -0.646 OA
HETATM   11  O           1     -24.432  -2.901 -10.559  0.00  0.00    -0.646 OA
ENDBRANCH   5   9
ENDBRANCH   3   5
BRANCH   1  12
HETATM   12  C           1     -21.600  -5.476  -6.288  0.00  0.00     0.332 C 
BRANCH  12  13
HETATM   13  N           1     -20.815  -6.635  -6.828  0.00  0.00    -0.071 N 
HETATM   14  H           1     -21.371  -7.119  -7.568  0.00  0.00     0.274 HD
HETATM   15  H           1     -20.606  -7.304  -6.053  0.00  0.00     0.274 HD
HETATM   16  H           1     -19.918  -6.287  -7.238  0.00  0.00     0.274 HD
ENDBRANCH  12  13
ENDBRANCH   1  12
TORSDOF 5
ENDMDL
MODEL 3
REMARK VINA RESULT:      -5.2      2.071      4.068
REMARK  5 active torsions:
REMARK  status: ('A' for Active; 'I' for Inactive)
REMARK       I    between atoms: C_1  and  N_8 
REMARK    1  A    between atoms: C_1  and  C_2 
REMARK    2  A    between atoms: C_2  and  N_5 
REMARK    3  A    between atoms: N_8  and  C_12 
REMARK    4  A    between atoms: C_10  and  C_12 
REMARK    5  A    between atoms: C_12  and  C_13 
ROOT
HETATM    1  C           1     -35.404  -0.235 -13.320  0.00  0.00     0.243 C 
HETATM    2  O           1     -36.320  -0.778 -13.890  0.00  0.00    -0.272 OA
HETATM    3  N           1     -35.051  -0.631 -12.059  0.00  0.00    -0.345 N 
HETATM    4  H           1     -34.283  -0.177 -11.582  0.00  0.00     0.163 HD
ENDROOT
BRANCH   3   5
HETATM    5  C           1     -35.778  -1.703 -11.405  0.00  0.00     0.189 C 
BRANCH   5   6
HETATM    6  C           1     -34.811  -2.539 -10.576  0.00  0.00     0.010 C 
HETATM    7  C           1     -35.014  -4.014 -10.895  0.00  0.00     0.012 C 
HETATM    8  C           1     -33.380  -2.139 -10.910  0.00  0.00     0.012 C 
ENDBRANCH   5   6
BRANCH   5   9
HETATM    9  C           1     -36.837  -1.116 -10.506  0.00  0.00     0.197 C 
HETATM   10  O           1     -38.003  -0.965 -10.929  0.00  0.00    -0.646 OA
HETATM   11  O           1     -36.548  -0.781  -9.336  0.00  0.00    -0.646 OA
ENDBRANCH   5   9
ENDBRANCH   3   5
BRANCH   1  12
HETATM   12  C           1     -34.648   0.881 -14.000  0.00  0.00     0.332 C 
BRANCH  12  13
HETATM   13  N           1     -35.548   1.569 -14.982  0.00  0.00    -0.071 N 
HETATM   14  H           1     -35.239   1.346 -15.955  0.00  0.00     0.274 HD
HETATM   15  H           1     -35.505   2.602 -14.830  0.00  0.00     0.274 HD
HETATM   16  H           1     -36.530   1.238 -14.845  0.00  0.00     0.274 HD
ENDBRANCH  12  13
ENDBRANCH   1  12
TORSDOF 5
ENDMDL
MODEL 4
REMARK VINA RESULT:      -4.9      2.017      4.055
REMARK  5 active torsions:
REMARK  status: ('A' for Active; 'I' for Inactive)
REMARK       I    between atoms: C_1  and  N_8 
REMARK    1  A    between atoms: C_1  and  C_2 
REMARK    2  A    between atoms: C_2  and  N_5 
REMARK    3  A    between atoms: N_8  and  C_12 
REMARK    4  A    between atoms: C_10  and  C_12 
REMARK    5  A    between atoms: C_12  and  C_13 
ROOT
HETATM    1  C           1     -33.826  -2.352 -11.528  0.00  0.00     0.243 C 
HETATM    2  O           1     -33.349  -1.697 -10.633  0.00  0.00    -0.272 OA
HETATM    3  N           1     -34.789  -1.811 -12.335  0.00  0.00    -0.345 N 
HETATM    4  H           1     -35.187  -2.360 -13.087  0.00  0.00     0.163 HD
ENDROOT
BRANCH   3   5
HETATM    5  C           1     -35.239  -0.450 -12.115  0.00  0.00     0.189 C 
BRANCH   5   6
HETATM    6  C           1     -35.601   0.186 -13.451  0.00  0.00     0.010 C 
HETATM    7  C           1     -34.591   1.277 -13.783  0.00  0.00     0.012 C 
HETATM    8  C           1     -35.579  -0.875 -14.541  0.00  0.00     0.012 C 
ENDBRANCH   5   6
BRANCH   5   9
HETATM    9  C           1     -36.451  -0.461 -11.217  0.00  0.00     0.197 C 
HETATM   10  O           1     -36.350  -0.098 -10.026  0.00  0.00    -0.646 OA
HETATM   11  O           1     -37.557  -0.835 -11.664  0.00  0.00    -0.646 OA
ENDBRANCH   5   9
ENDBRANCH   3   5
BRANCH   1  12
HETATM   12  C           1     -33.357  -3.770 -11.758  0.00  0.00     0.332 C 
BRANCH  12  13
HETATM   13  N           1     -33.431  -4.089 -13.221  0.00  0.00    -0.071 N 
HETATM   14  H           1     -34.289  -3.656 -13.630  0.00  0.00     0.274 HD
HETATM   15  H           1     -33.467  -5.126 -13.350  0.00  0.00     0.274 HD
HETATM   16  H           1     -32.585  -3.709 -13.703  0.00  0.00     0.274 HD
ENDBRANCH  12  13
ENDBRANCH   1  12
TORSDOF 5
ENDMDL
MODEL 5
REMARK VINA RESULT:      -4.5     18.227     19.774
REMARK  5 active torsions:
REMARK  status: ('A' for Active; 'I' for Inactive)
REMARK       I    between atoms: C_1  and  N_8 
REMARK    1  A    between atoms: C_1  and  C_2 
REMARK    2  A    between atoms: C_2  and  N_5 
REMARK    3  A    between atoms: N_8  and  C_12 
REMARK    4  A    between atoms: C_10  and  C_12 
REMARK    5  A    between atoms: C_12  and  C_13 
ROOT
HETATM    1  C           1     -21.925  -7.203  -1.611  0.00  0.00     0.243 C 
HETATM    2  O           1     -22.677  -6.647  -0.846  0.00  0.00    -0.272 OA
HETATM    3  N           1     -21.632  -8.529  -1.440  0.00  0.00    -0.345 N 
HETATM    4  H           1     -21.003  -8.995  -2.082  0.00  0.00     0.163 HD
ENDROOT
BRANCH   3   5
HETATM    5  C           1     -22.223  -9.267  -0.340  0.00  0.00     0.189 C 
BRANCH   5   6
HETATM    6  C           1     -22.627 -10.655  -0.820  0.00  0.00     0.010 C 
HETATM    7  C           1     -24.026 -10.980  -0.313  0.00  0.00     0.012 C 
HETATM    8  C           1     -22.617 -10.689  -2.342  0.00  0.00     0.012 C 
ENDBRANCH   5   6
BRANCH   5   9
HETATM    9  C           1     -21.218  -9.392   0.778  0.00  0.00     0.197 C 
HETATM   10  O           1     -20.572 -10.451   0.923  0.00  0.00    -0.646 OA
HETATM   11  O           1     -21.032  -8.434   1.560  0.00  0.00    -0.646 OA
ENDBRANCH   5   9
ENDBRANCH   3   5
BRANCH   1  12
HETATM   12  C           1     -21.310  -6.436  -2.756  0.00  0.00     0.332 C 
BRANCH  12  13
HETATM   13  N           1     -22.321  -6.277  -3.852  0.00  0.00    -0.071 N 
HETATM   14  H           1     -23.181  -6.819  -3.614  0.00  0.00     0.274 HD
HETATM   15  H           1     -21.921  -6.632  -4.749  0.00  0.00     0.274 HD
HETATM   16  H           1     -22.565  -5.265  -3.957  0.00  0.00     0.274 HD
ENDBRANCH  12  13
ENDBRANCH   1  12
TORSDOF 5
ENDMDL
MODEL 6
REMARK VINA RESULT:      -4.4     14.647     15.981
REMARK  5 active torsions:
REMARK  status: ('A' for Active; 'I' for Inactive)
REMARK       I    between atoms: C_1  and  N_8 
REMARK    1  A    between atoms: C_1  and  C_2 
REMARK    2  A    between atoms: C_2  and  N_5 
REMARK    3  A    between atoms: N_8  and  C_12 
REMARK    4  A    between atoms: C_10  and  C_12 
REMARK    5  A    between atoms: C_12  and  C_13 
ROOT
HETATM    1  C           1     -21.977  -4.480 -10.416  0.00  0.00     0.243 C 
HETATM    2  O           1     -23.049  -5.020 -10.280  0.00  0.00    -0.272 OA
HETATM    3  N           1     -21.057  -4.520  -9.404  0.00  0.00    -0.345 N 
HETATM    4  H           1     -20.158  -4.069  -9.518  0.00  0.00     0.163 HD
ENDROOT
BRANCH   3   5
HETATM    5  C           1     -21.369  -5.210  -8.167  0.00  0.00     0.189 C 
BRANCH   5   6
HETATM    6  C           1     -20.081  -5.706  -7.523  0.00  0.00     0.010 C 
HETATM    7  C           1     -19.046  -4.589  -7.536  0.00  0.00     0.012 C 
HETATM    8  C           1     -20.359  -6.125  -6.087  0.00  0.00     0.012 C 
ENDBRANCH   5   6
BRANCH   5   9
HETATM    9  C           1     -22.071  -4.263  -7.226  0.00  0.00     0.197 C 
HETATM   10  O           1     -23.140  -4.603  -6.677  0.00  0.00    -0.646 OA
HETATM   11  O           1     -21.581  -3.135  -6.995  0.00  0.00    -0.646 OA
ENDBRANCH   5   9
ENDBRANCH   3   5
BRANCH   1  12
HETATM   12  C           1     -21.651  -3.761 -11.703  0.00  0.00     0.332 C 
BRANCH  12  13
HETATM   13  N           1     -20.367  -3.003 -11.541  0.00  0.00    -0.071 N 
HETATM   14  H           1     -19.599  -3.509 -12.035  0.00  0.00     0.274 HD
HETATM   15  H           1     -20.137  -2.922 -10.525  0.00  0.00     0.274 HD
HETATM   16  H           1     -20.474  -2.047 -11.950  0.00  0.00     0.274 HD
ENDBRANCH  12  13
ENDBRANCH   1  12
TORSDOF 5
ENDMDL
MODEL 7
REMARK VINA RESULT:      -4.4     26.370     27.062
REMARK  5 active torsions:
REMARK  status: ('A' for Active; 'I' for Inactive)
REMARK       I    between atoms: C_1  and  N_8 
REMARK    1  A    between atoms: C_1  and  C_2 
REMARK    2  A    between atoms: C_2  and  N_5 
REMARK    3  A    between atoms: N_8  and  C_12 
REMARK    4  A    between atoms: C_10  and  C_12 
REMARK    5  A    between atoms: C_12  and  C_13 
ROOT
HETATM    1  C           1     -12.323   7.672 -20.554  0.00  0.00     0.243 C 
HETATM    2  O           1     -12.841   7.526 -19.473  0.00  0.00    -0.272 OA
HETATM    3  N           1     -11.451   6.731 -21.029  0.00  0.00    -0.345 N 
HETATM    4  H           1     -11.018   6.853 -21.936  0.00  0.00     0.163 HD
ENDROOT
BRANCH   3   5
HETATM    5  C           1     -11.146   5.558 -20.232  0.00  0.00     0.189 C 
BRANCH   5   6
HETATM    6  C           1     -10.989   4.351 -21.148  0.00  0.00     0.010 C 
HETATM    7  C           1     -11.071   3.074 -20.322  0.00  0.00     0.012 C 
HETATM    8  C           1     -12.100   4.355 -22.189  0.00  0.00     0.012 C 
ENDBRANCH   5   6
BRANCH   5   9
HETATM    9  C           1      -9.863   5.786 -19.473  0.00  0.00     0.197 C 
HETATM   10  O           1      -8.820   6.098 -20.087  0.00  0.00    -0.646 OA
HETATM   11  O           1      -9.842   5.663 -18.229  0.00  0.00    -0.646 OA
ENDBRANCH   5   9
ENDBRANCH   3   5
BRANCH   1  12
HETATM   12  C           1     -12.640   8.894 -21.383  0.00  0.00     0.332 C 
BRANCH  12  13
HETATM   13  N           1     -12.144  10.120 -20.677  0.00  0.00    -0.071 N 
HETATM   14  H           1     -11.859   9.871 -19.704  0.00  0.00     0.274 HD
HETATM   15  H           1     -12.905  10.836 -20.646  0.00  0.00     0.274 HD
HETATM   16  H           1     -11.322  10.510 -21.192  0.00  0.00     0.274 HD
ENDBRANCH  12  13
ENDBRANCH   1  12
TORSDOF 5
ENDMDL
MODEL 8
REMARK VINA RESULT:      -4.2     24.403     25.876
REMARK  5 active torsions:
REMARK  status: ('A' for Active; 'I' for Inactive)
REMARK       I    between atoms: C_1  and  N_8 
REMARK    1  A    between atoms: C_1  and  C_2 
REMARK    2  A    between atoms: C_2  and  N_5 
REMARK    3  A    between atoms: N_8  and  C_12 
REMARK    4  A    between atoms: C_10  and  C_12 
REMARK    5  A    between atoms: C_12  and  C_13 
ROOT
HETATM    1  C           1     -11.776   7.155 -20.578  0.00  0.00     0.243 C 
HETATM    2  O           1     -12.051   7.441 -21.719  0.00  0.00    -0.272 OA
HETATM    3  N           1     -12.190   5.963 -20.051  0.00  0.00    -0.345 N 
HETATM    4  H           1     -11.958   5.723 -19.095  0.00  0.00     0.163 HD
ENDROOT
BRANCH   3   5
HETATM    5  C           1     -12.963   5.041 -20.861  0.00  0.00     0.189 C 
BRANCH   5   6
HETATM    6  C           1     -12.653   3.611 -20.437  0.00  0.00     0.010 C 
HETATM    7  C           1     -13.325   2.640 -21.399  0.00  0.00     0.012 C 
HETATM    8  C           1     -11.148   3.389 -20.460  0.00  0.00     0.012 C 
ENDBRANCH   5   6
BRANCH   5   9
HETATM    9  C           1     -14.434   5.317 -20.672  0.00  0.00     0.197 C 
HETATM   10  O           1     -14.927   5.317 -19.524  0.00  0.00    -0.646 OA
HETATM   11  O           1     -15.159   5.545 -21.664  0.00  0.00    -0.646 OA
ENDBRANCH   5   9
ENDBRANCH   3   5
BRANCH   1  12
HETATM   12  C           1     -10.971   8.115 -19.734  0.00  0.00     0.332 C 
BRANCH  12  13
HETATM   13  N           1      -9.574   8.204 -20.272  0.00  0.00    -0.071 N 
HETATM   14  H           1      -9.185   9.152 -20.075  0.00  0.00     0.274 HD
HETATM   15  H           1      -9.588   8.039 -21.304  0.00  0.00     0.274 HD
HETATM   16  H           1      -8.978   7.479 -19.812  0.00  0.00     0.274 HD
ENDBRANCH  12  13
ENDBRANCH   1  12
TORSDOF 5
ENDMDL
MODEL 9
REMARK VINA RESULT:      -4.2     18.278     19.870
REMARK  5 active torsions:
REMARK  status: ('A' for Active; 'I' for Inactive)
REMARK       I    between atoms: C_1  and  N_8 
REMARK    1  A    between atoms: C_1  and  C_2 
REMARK    2  A    between atoms: C_2  and  N_5 
REMARK    3  A    between atoms: N_8  and  C_12 
REMARK    4  A    between atoms: C_10  and  C_12 
REMARK    5  A    between atoms: C_12  and  C_13 
ROOT
HETATM    1  C           1     -21.223  -7.938  -2.442  0.00  0.00     0.243 C 
HETATM    2  O           1     -20.380  -8.647  -2.936  0.00  0.00    -0.272 OA
HETATM    3  N           1     -22.007  -8.412  -1.425  0.00  0.00    -0.345 N 
HETATM    4  H           1     -22.713  -7.817  -1.010  0.00  0.00     0.163 HD
ENDROOT
BRANCH   3   5
HETATM    5  C           1     -21.826  -9.767  -0.941  0.00  0.00     0.189 C 
BRANCH   5   6
HETATM    6  C           1     -21.719  -9.753   0.578  0.00  0.00     0.010 C 
HETATM    7  C           1     -20.518 -10.584   1.009  0.00  0.00     0.012 C 
HETATM    8  C           1     -21.545  -8.320   1.061  0.00  0.00     0.012 C 
ENDBRANCH   5   6
BRANCH   5   9
HETATM    9  C           1     -23.006 -10.610  -1.357  0.00  0.00     0.197 C 
HETATM   10  O           1     -23.060 -11.087  -2.510  0.00  0.00    -0.646 OA
HETATM   11  O           1     -23.932 -10.831  -0.545  0.00  0.00    -0.646 OA
ENDBRANCH   5   9
ENDBRANCH   3   5
BRANCH   1  12
HETATM   12  C           1     -21.412  -6.527  -2.945  0.00  0.00     0.332 C 
BRANCH  12  13
HETATM   13  N           1     -22.291  -5.771  -1.995  0.00  0.00    -0.071 N 
HETATM   14  H           1     -21.721  -5.426  -1.190  0.00  0.00     0.274 HD
HETATM   15  H           1     -23.047  -6.401  -1.643  0.00  0.00     0.274 HD
HETATM   16  H           1     -22.721  -4.957  -2.491  0.00  0.00     0.274 HD
ENDBRANCH  12  13
ENDBRANCH   1  12
TORSDOF 5
ENDMDL
