MODEL 1
REMARK VINA RESULT:      -6.6      0.000      0.000
REMARK  8 active torsions:
REMARK  status: ('A' for Active; 'I' for Inactive)
REMARK    1  A    between atoms: C_1  and  C_2 
REMARK    2  A    between atoms: C_1  and  C_14 
REMARK    3  A    between atoms: C_1  and  N_9 
REMARK       I    between atoms: C_2  and  N_3 
REMARK    4  A    between atoms: N_3  and  C_7 
REMARK    5  A    between atoms: C_6  and  C_7 
REMARK    6  A    between atoms: C_7  and  C_20 
REMARK    7  A    between atoms: C_11  and  C_14 
REMARK    8  A    between atoms: C_11  and  C_12 
ROOT
HETATM    1  C           1     -21.697  -4.660  -7.735  0.00  0.00     0.249 C 
HETATM    2  N           1     -22.200  -4.798  -9.001  0.00  0.00    -0.344 N 
HETATM    3  O           1     -21.643  -3.567  -7.222  0.00  0.00    -0.271 OA
HETATM    4  H           1     -22.247  -5.712  -9.430  0.00  0.00     0.163 HD
ENDROOT
BRANCH   1   5
HETATM    5  C           1     -21.211  -5.873  -6.980  0.00  0.00     0.275 C 
BRANCH   5   6
HETATM    6  C           1     -21.178  -5.564  -5.489  0.00  0.00     0.053 C 
BRANCH   6   7
HETATM    7  C           1     -22.199  -6.433  -4.768  0.00  0.00     0.115 C 
BRANCH   7   8
HETATM    8  C           1     -21.814  -6.561  -3.314  0.00  0.00     0.172 C 
HETATM    9  O           1     -22.459  -5.943  -2.439  0.00  0.00    -0.648 OA
HETATM   10  O           1     -20.850  -7.286  -2.985  0.00  0.00    -0.648 OA
ENDBRANCH   7   8
ENDBRANCH   6   7
ENDBRANCH   5   6
BRANCH   5  11
HETATM   11  N           1     -19.832  -6.232  -7.447  0.00  0.00    -0.066 N 
HETATM   12  H           1     -19.383  -5.397  -7.884  0.00  0.00     0.275 HD
HETATM   13  H           1     -19.261  -6.548  -6.631  0.00  0.00     0.275 HD
HETATM   14  H           1     -19.893  -7.004  -8.151  0.00  0.00     0.275 HD
ENDBRANCH   5  11
ENDBRANCH   1   5
BRANCH   2  15
HETATM   15  C           1     -22.667  -3.632  -9.726  0.00  0.00     0.189 C 
BRANCH  15  16
HETATM   16  C           1     -24.133  -3.794 -10.048  0.00  0.00     0.197 C 
HETATM   17  O           1     -24.726  -4.851  -9.746  0.00  0.00    -0.646 OA
HETATM   18  O           1     -24.753  -2.869 -10.616  0.00  0.00    -0.646 OA
ENDBRANCH  15  16
BRANCH  15  19
HETATM   19  C           1     -21.875  -3.489 -11.019  0.00  0.00     0.010 C 
HETATM   20  C           1     -20.385  -3.507 -10.706  0.00  0.00     0.012 C 
HETATM   21  C           1     -22.213  -4.645 -11.951  0.00  0.00     0.012 C 
ENDBRANCH  15  19
ENDBRANCH   2  15
TORSDOF 8
ENDMDL
MODEL 2
REMARK VINA RESULT:      -6.1      1.714      2.135
REMARK  8 active torsions:
REMARK  status: ('A' for Active; 'I' for Inactive)
REMARK    1  A    between atoms: C_1  and  C_2 
REMARK    2  A    between atoms: C_1  and  C_14 
REMARK    3  A    between atoms: C_1  and  N_9 
REMARK       I    between atoms: C_2  and  N_3 
REMARK    4  A    between atoms: N_3  and  C_7 
REMARK    5  A    between atoms: C_6  and  C_7 
REMARK    6  A    between atoms: C_7  and  C_20 
REMARK    7  A    between atoms: C_11  and  C_14 
REMARK    8  A    between atoms: C_11  and  C_12 
ROOT
HETATM    1  C           1     -21.731  -4.409  -7.121  0.00  0.00     0.249 C 
HETATM    2  N           1     -22.260  -4.827  -8.312  0.00  0.00    -0.344 N 
HETATM    3  O           1     -21.453  -3.245  -6.958  0.00  0.00    -0.271 OA
HETATM    4  H           1     -22.493  -5.802  -8.448  0.00  0.00     0.163 HD
ENDROOT
BRANCH   1   5
HETATM    5  C           1     -21.497  -5.403  -6.009  0.00  0.00     0.275 C 
BRANCH   5   6
HETATM    6  C           1     -20.783  -6.628  -6.565  0.00  0.00     0.053 C 
BRANCH   6   7
HETATM    7  C           1     -20.112  -7.384  -5.426  0.00  0.00     0.115 C 
BRANCH   7   8
HETATM    8  C           1     -20.875  -8.656  -5.147  0.00  0.00     0.172 C 
HETATM    9  O           1     -20.542  -9.721  -5.711  0.00  0.00    -0.648 OA
HETATM   10  O           1     -21.839  -8.644  -4.351  0.00  0.00    -0.648 OA
ENDBRANCH   7   8
ENDBRANCH   6   7
ENDBRANCH   5   6
BRANCH   5  11
HETATM   11  N           1     -22.815  -5.816  -5.423  0.00  0.00    -0.066 N 
HETATM   12  H           1     -22.718  -5.922  -4.389  0.00  0.00     0.275 HD
HETATM   13  H           1     -23.533  -5.086  -5.634  0.00  0.00     0.275 HD
HETATM   14  H           1     -23.110  -6.728  -5.841  0.00  0.00     0.275 HD
ENDBRANCH   5  11
ENDBRANCH   1   5
BRANCH   2  15
HETATM   15  C           1     -22.484  -3.872  -9.380  0.00  0.00     0.189 C 
BRANCH  15  16
HETATM   16  C           1     -23.941  -3.893  -9.776  0.00  0.00     0.197 C 
HETATM   17  O           1     -24.440  -4.929 -10.265  0.00  0.00    -0.646 OA
HETATM   18  O           1     -24.647  -2.875  -9.612  0.00  0.00    -0.646 OA
ENDBRANCH  15  16
BRANCH  15  19
HETATM   19  C           1     -21.626  -4.244 -10.582  0.00  0.00     0.010 C 
HETATM   20  C           1     -21.477  -3.032 -11.493  0.00  0.00     0.012 C 
HETATM   21  C           1     -20.251  -4.692 -10.103  0.00  0.00     0.012 C 
ENDBRANCH  15  19
ENDBRANCH   2  15
TORSDOF 8
ENDMDL
MODEL 3
REMARK VINA RESULT:      -5.9      2.079      6.728
REMARK  8 active torsions:
REMARK  status: ('A' for Active; 'I' for Inactive)
REMARK    1  A    between atoms: C_1  and  C_2 
REMARK    2  A    between atoms: C_1  and  C_14 
REMARK    3  A    between atoms: C_1  and  N_9 
REMARK       I    between atoms: C_2  and  N_3 
REMARK    4  A    between atoms: N_3  and  C_7 
REMARK    5  A    between atoms: C_6  and  C_7 
REMARK    6  A    between atoms: C_7  and  C_20 
REMARK    7  A    between atoms: C_11  and  C_14 
REMARK    8  A    between atoms: C_11  and  C_12 
ROOT
HETATM    1  C           1     -21.143  -5.270  -6.330  0.00  0.00     0.249 C 
HETATM    2  N           1     -21.644  -6.237  -5.500  0.00  0.00    -0.344 N 
HETATM    3  O           1     -19.951  -5.078  -6.384  0.00  0.00    -0.271 OA
HETATM    4  H           1     -22.642  -6.398  -5.456  0.00  0.00     0.163 HD
ENDROOT
BRANCH   1   5
HETATM    5  C           1     -22.079  -4.446  -7.179  0.00  0.00     0.275 C 
BRANCH   5   6
HETATM    6  C           1     -22.004  -4.919  -8.625  0.00  0.00     0.053 C 
BRANCH   6   7
HETATM    7  C           1     -22.351  -3.764  -9.556  0.00  0.00     0.115 C 
BRANCH   7   8
HETATM    8  C           1     -23.692  -4.022 -10.201  0.00  0.00     0.172 C 
HETATM    9  O           1     -24.388  -3.064 -10.600  0.00  0.00    -0.648 OA
HETATM   10  O           1     -24.105  -5.194 -10.335  0.00  0.00    -0.648 OA
ENDBRANCH   7   8
ENDBRANCH   6   7
ENDBRANCH   5   6
BRANCH   5  11
HETATM   11  N           1     -21.680  -3.002  -7.105  0.00  0.00    -0.066 N 
HETATM   12  H           1     -20.923  -2.886  -6.395  0.00  0.00     0.275 HD
HETATM   13  H           1     -21.334  -2.688  -8.039  0.00  0.00     0.275 HD
HETATM   14  H           1     -22.508  -2.426  -6.828  0.00  0.00     0.275 HD
ENDBRANCH   5  11
ENDBRANCH   1   5
BRANCH   2  15
HETATM   15  C           1     -20.744  -7.029  -4.685  0.00  0.00     0.189 C 
BRANCH  15  16
HETATM   16  C           1     -20.368  -8.288  -5.429  0.00  0.00     0.197 C 
HETATM   17  O           1     -19.175  -8.498  -5.736  0.00  0.00    -0.646 OA
HETATM   18  O           1     -21.249  -9.119  -5.735  0.00  0.00    -0.646 OA
ENDBRANCH  15  16
BRANCH  15  19
HETATM   19  C           1     -21.436  -7.398  -3.379  0.00  0.00     0.010 C 
HETATM   20  C           1     -20.475  -8.192  -2.503  0.00  0.00     0.012 C 
HETATM   21  C           1     -21.856  -6.128  -2.651  0.00  0.00     0.012 C 
ENDBRANCH  15  19
ENDBRANCH   2  15
TORSDOF 8
ENDMDL
MODEL 4
REMARK VINA RESULT:      -5.6      1.939      6.928
REMARK  8 active torsions:
REMARK  status: ('A' for Active; 'I' for Inactive)
REMARK    1  A    between atoms: C_1  and  C_2 
REMARK    2  A    between atoms: C_1  and  C_14 
REMARK    3  A    between atoms: C_1  and  N_9 
REMARK       I    between atoms: C_2  and  N_3 
REMARK    4  A    between atoms: N_3  and  C_7 
REMARK    5  A    between atoms: C_6  and  C_7 
REMARK    6  A    between atoms: C_7  and  C_20 
REMARK    7  A    between atoms: C_11  and  C_14 
REMARK    8  A    between atoms: C_11  and  C_12 
ROOT
HETATM    1  C           1     -21.781  -5.958  -5.543  0.00  0.00     0.249 C 
HETATM    2  N           1     -21.006  -6.718  -4.709  0.00  0.00    -0.344 N 
HETATM    3  O           1     -22.985  -5.989  -5.445  0.00  0.00    -0.271 OA
HETATM    4  H           1     -19.998  -6.691  -4.791  0.00  0.00     0.163 HD
ENDROOT
BRANCH   1   5
HETATM    5  C           1     -21.132  -5.078  -6.583  0.00  0.00     0.275 C 
BRANCH   5   6
HETATM    6  C           1     -22.203  -4.282  -7.316  0.00  0.00     0.053 C 
BRANCH   6   7
HETATM    7  C           1     -21.793  -4.098  -8.771  0.00  0.00     0.115 C 
BRANCH   7   8
HETATM    8  C           1     -22.978  -3.616  -9.572  0.00  0.00     0.172 C 
HETATM    9  O           1     -24.104  -3.534  -9.035  0.00  0.00    -0.648 OA
HETATM   10  O           1     -22.833  -3.299 -10.773  0.00  0.00    -0.648 OA
ENDBRANCH   7   8
ENDBRANCH   6   7
ENDBRANCH   5   6
BRANCH   5  11
HETATM   11  N           1     -20.386  -5.933  -7.564  0.00  0.00    -0.066 N 
HETATM   12  H           1     -20.014  -5.335  -8.335  0.00  0.00     0.275 HD
HETATM   13  H           1     -19.592  -6.408  -7.078  0.00  0.00     0.275 HD
HETATM   14  H           1     -21.033  -6.652  -7.962  0.00  0.00     0.275 HD
ENDBRANCH   5  11
ENDBRANCH   1   5
BRANCH   2  15
HETATM   15  C           1     -21.630  -7.563  -3.709  0.00  0.00     0.189 C 
BRANCH  15  16
HETATM   16  C           1     -21.539  -6.895  -2.359  0.00  0.00     0.197 C 
HETATM   17  O           1     -22.210  -5.868  -2.124  0.00  0.00    -0.646 OA
HETATM   18  O           1     -20.794  -7.372  -1.475  0.00  0.00    -0.646 OA
ENDBRANCH  15  16
BRANCH  15  19
HETATM   19  C           1     -20.914  -8.906  -3.662  0.00  0.00     0.010 C 
HETATM   20  C           1     -21.908 -10.022  -3.955  0.00  0.00     0.012 C 
HETATM   21  C           1     -19.804  -8.926  -4.705  0.00  0.00     0.012 C 
ENDBRANCH  15  19
ENDBRANCH   2  15
TORSDOF 8
ENDMDL
MODEL 5
REMARK VINA RESULT:      -5.6      2.405      6.066
REMARK  8 active torsions:
REMARK  status: ('A' for Active; 'I' for Inactive)
REMARK    1  A    between atoms: C_1  and  C_2 
REMARK    2  A    between atoms: C_1  and  C_14 
REMARK    3  A    between atoms: C_1  and  N_9 
REMARK       I    between atoms: C_2  and  N_3 
REMARK    4  A    between atoms: N_3  and  C_7 
REMARK    5  A    between atoms: C_6  and  C_7 
REMARK    6  A    between atoms: C_7  and  C_20 
REMARK    7  A    between atoms: C_11  and  C_14 
REMARK    8  A    between atoms: C_11  and  C_12 
ROOT
HETATM    1  C           1     -22.484  -4.155  -8.120  0.00  0.00     0.249 C 
HETATM    2  N           1     -22.134  -5.302  -7.460  0.00  0.00    -0.344 N 
HETATM    3  O           1     -21.981  -3.101  -7.809  0.00  0.00    -0.271 OA
HETATM    4  H           1     -22.555  -6.184  -7.722  0.00  0.00     0.163 HD
ENDROOT
BRANCH   1   5
HETATM    5  C           1     -23.496  -4.206  -9.237  0.00  0.00     0.275 C 
BRANCH   5   6
HETATM    6  C           1     -22.928  -3.517 -10.471  0.00  0.00     0.053 C 
BRANCH   6   7
HETATM    7  C           1     -22.022  -4.484 -11.221  0.00  0.00     0.115 C 
BRANCH   7   8
HETATM    8  C           1     -20.579  -4.101 -10.996  0.00  0.00     0.172 C 
HETATM    9  O           1     -20.195  -2.938 -11.247  0.00  0.00    -0.648 OA
HETATM   10  O           1     -19.770  -4.947 -10.559  0.00  0.00    -0.648 OA
ENDBRANCH   7   8
ENDBRANCH   6   7
ENDBRANCH   5   6
BRANCH   5  11
HETATM   11  N           1     -24.751  -3.505  -8.807  0.00  0.00    -0.066 N 
HETATM   12  H           1     -25.575  -4.117  -8.999  0.00  0.00     0.275 HD
HETATM   13  H           1     -24.700  -3.298  -7.785  0.00  0.00     0.275 HD
HETATM   14  H           1     -24.849  -2.611  -9.341  0.00  0.00     0.275 HD
ENDBRANCH   5  11
ENDBRANCH   1   5
BRANCH   2  15
HETATM   15  C           1     -21.161  -5.253  -6.387  0.00  0.00     0.189 C 
BRANCH  15  16
HETATM   16  C           1     -19.794  -5.590  -6.931  0.00  0.00     0.197 C 
HETATM   17  O           1     -19.453  -6.784  -7.068  0.00  0.00    -0.646 OA
HETATM   18  O           1     -19.004  -4.674  -7.246  0.00  0.00    -0.646 OA
ENDBRANCH  15  16
BRANCH  15  19
HETATM   19  C           1     -21.542  -6.261  -5.310  0.00  0.00     0.010 C 
HETATM   20  C           1     -20.960  -5.819  -3.974  0.00  0.00     0.012 C 
HETATM   21  C           1     -23.059  -6.338  -5.203  0.00  0.00     0.012 C 
ENDBRANCH  15  19
ENDBRANCH   2  15
TORSDOF 8
ENDMDL
MODEL 6
REMARK VINA RESULT:      -5.6      3.832      8.416
REMARK  8 active torsions:
REMARK  status: ('A' for Active; 'I' for Inactive)
REMARK    1  A    between atoms: C_1  and  C_2 
REMARK    2  A    between atoms: C_1  and  C_14 
REMARK    3  A    between atoms: C_1  and  N_9 
REMARK       I    between atoms: C_2  and  N_3 
REMARK    4  A    between atoms: N_3  and  C_7 
REMARK    5  A    between atoms: C_6  and  C_7 
REMARK    6  A    between atoms: C_7  and  C_20 
REMARK    7  A    between atoms: C_11  and  C_14 
REMARK    8  A    between atoms: C_11  and  C_12 
ROOT
HETATM    1  C           1     -20.609  -8.919  -2.950  0.00  0.00     0.249 C 
HETATM    2  N           1     -21.776  -8.791  -2.246  0.00  0.00    -0.344 N 
HETATM    3  O           1     -19.743  -9.663  -2.554  0.00  0.00    -0.271 OA
HETATM    4  H           1     -22.501  -8.169  -2.579  0.00  0.00     0.163 HD
ENDROOT
BRANCH   1   5
HETATM    5  C           1     -20.404  -8.133  -4.222  0.00  0.00     0.275 C 
BRANCH   5   6
HETATM    6  C           1     -21.611  -7.236  -4.465  0.00  0.00     0.053 C 
BRANCH   6   7
HETATM    7  C           1     -21.139  -5.862  -4.919  0.00  0.00     0.115 C 
BRANCH   7   8
HETATM    8  C           1     -21.380  -5.711  -6.402  0.00  0.00     0.172 C 
HETATM    9  O           1     -22.110  -4.789  -6.826  0.00  0.00    -0.648 OA
HETATM   10  O           1     -20.850  -6.509  -7.205  0.00  0.00    -0.648 OA
ENDBRANCH   7   8
ENDBRANCH   6   7
ENDBRANCH   5   6
BRANCH   5  11
HETATM   11  N           1     -20.246  -9.080  -5.374  0.00  0.00    -0.066 N 
HETATM   12  H           1     -19.684  -9.907  -5.072  0.00  0.00     0.275 HD
HETATM   13  H           1     -21.188  -9.398  -5.695  0.00  0.00     0.275 HD
HETATM   14  H           1     -19.755  -8.593  -6.159  0.00  0.00     0.275 HD
ENDBRANCH   5  11
ENDBRANCH   1   5
BRANCH   2  15
HETATM   15  C           1     -21.972  -9.546  -1.024  0.00  0.00     0.189 C 
BRANCH  15  16
HETATM   16  C           1     -23.097 -10.534  -1.219  0.00  0.00     0.197 C 
HETATM   17  O           1     -23.922 -10.729  -0.301  0.00  0.00    -0.646 OA
HETATM   18  O           1     -23.203 -11.155  -2.298  0.00  0.00    -0.646 OA
ENDBRANCH  15  16
BRANCH  15  19
HETATM   19  C           1     -22.324  -8.593   0.110  0.00  0.00     0.010 C 
HETATM   20  C           1     -21.208  -8.605   1.147  0.00  0.00     0.012 C 
HETATM   21  C           1     -22.487  -7.184  -0.444  0.00  0.00     0.012 C 
ENDBRANCH  15  19
ENDBRANCH   2  15
TORSDOF 8
ENDMDL
MODEL 7
REMARK VINA RESULT:      -5.5      2.720      3.978
REMARK  8 active torsions:
REMARK  status: ('A' for Active; 'I' for Inactive)
REMARK    1  A    between atoms: C_1  and  C_2 
REMARK    2  A    between atoms: C_1  and  C_14 
REMARK    3  A    between atoms: C_1  and  N_9 
REMARK       I    between atoms: C_2  and  N_3 
REMARK    4  A    between atoms: N_3  and  C_7 
REMARK    5  A    between atoms: C_6  and  C_7 
REMARK    6  A    between atoms: C_7  and  C_20 
REMARK    7  A    between atoms: C_11  and  C_14 
REMARK    8  A    between atoms: C_11  and  C_12 
ROOT
HETATM    1  C           1     -21.503  -6.876  -5.666  0.00  0.00     0.249 C 
HETATM    2  N           1     -21.588  -5.585  -6.114  0.00  0.00    -0.344 N 
HETATM    3  O           1     -21.020  -7.729  -6.371  0.00  0.00    -0.271 OA
HETATM    4  H           1     -21.992  -4.870  -5.523  0.00  0.00     0.163 HD
ENDROOT
BRANCH   1   5
HETATM    5  C           1     -22.012  -7.232  -4.290  0.00  0.00     0.275 C 
BRANCH   5   6
HETATM    6  C           1     -21.256  -6.424  -3.243  0.00  0.00     0.053 C 
BRANCH   6   7
HETATM    7  C           1     -22.196  -6.071  -2.098  0.00  0.00     0.115 C 
BRANCH   7   8
HETATM    8  C           1     -22.107  -7.133  -1.029  0.00  0.00     0.172 C 
HETATM    9  O           1     -21.101  -7.872  -0.964  0.00  0.00    -0.648 OA
HETATM   10  O           1     -23.040  -7.272  -0.209  0.00  0.00    -0.648 OA
ENDBRANCH   7   8
ENDBRANCH   6   7
ENDBRANCH   5   6
BRANCH   5  11
HETATM   11  N           1     -21.797  -8.696  -4.042  0.00  0.00    -0.066 N 
HETATM   12  H           1     -21.484  -8.839  -3.056  0.00  0.00     0.275 HD
HETATM   13  H           1     -22.692  -9.210  -4.202  0.00  0.00     0.275 HD
HETATM   14  H           1     -21.065  -9.055  -4.697  0.00  0.00     0.275 HD
ENDBRANCH   5  11
ENDBRANCH   1   5
BRANCH   2  15
HETATM   15  C           1     -21.100  -5.243  -7.435  0.00  0.00     0.189 C 
BRANCH  15  16
HETATM   16  C           1     -19.783  -4.515  -7.312  0.00  0.00     0.197 C 
HETATM   17  O           1     -19.433  -3.703  -8.194  0.00  0.00    -0.646 OA
HETATM   18  O           1     -19.044  -4.724  -6.325  0.00  0.00    -0.646 OA
ENDBRANCH  15  16
BRANCH  15  19
HETATM   19  C           1     -22.112  -4.345  -8.134  0.00  0.00     0.010 C 
HETATM   20  C           1     -22.330  -4.839  -9.558  0.00  0.00     0.012 C 
HETATM   21  C           1     -23.433  -4.385  -7.375  0.00  0.00     0.012 C 
ENDBRANCH  15  19
ENDBRANCH   2  15
TORSDOF 8
ENDMDL
MODEL 8
REMARK VINA RESULT:      -5.4      3.904      8.986
REMARK  8 active torsions:
REMARK  status: ('A' for Active; 'I' for Inactive)
REMARK    1  A    between atoms: C_1  and  C_2 
REMARK    2  A    between atoms: C_1  and  C_14 
REMARK    3  A    between atoms: C_1  and  N_9 
REMARK       I    between atoms: C_2  and  N_3 
REMARK    4  A    between atoms: N_3  and  C_7 
REMARK    5  A    between atoms: C_6  and  C_7 
REMARK    6  A    between atoms: C_7  and  C_20 
REMARK    7  A    between atoms: C_11  and  C_14 
REMARK    8  A    between atoms: C_11  and  C_12 
ROOT
HETATM    1  C           1     -21.592  -7.721  -2.025  0.00  0.00     0.249 C 
HETATM    2  N           1     -21.528  -9.030  -1.629  0.00  0.00    -0.344 N 
HETATM    3  O           1     -22.236  -6.926  -1.382  0.00  0.00    -0.271 OA
HETATM    4  H           1     -20.988  -9.696  -2.167  0.00  0.00     0.163 HD
ENDROOT
BRANCH   1   5
HETATM    5  C           1     -20.859  -7.272  -3.265  0.00  0.00     0.275 C 
BRANCH   5   6
HETATM    6  C           1     -21.780  -6.407  -4.116  0.00  0.00     0.053 C 
BRANCH   6   7
HETATM    7  C           1     -20.944  -5.499  -5.007  0.00  0.00     0.115 C 
BRANCH   7   8
HETATM    8  C           1     -21.157  -5.876  -6.453  0.00  0.00     0.172 C 
HETATM    9  O           1     -21.571  -5.024  -7.267  0.00  0.00    -0.648 OA
HETATM   10  O           1     -20.918  -7.043  -6.835  0.00  0.00    -0.648 OA
ENDBRANCH   7   8
ENDBRANCH   6   7
ENDBRANCH   5   6
BRANCH   5  11
HETATM   11  N           1     -20.429  -8.472  -4.054  0.00  0.00    -0.066 N 
HETATM   12  H           1     -20.180  -8.180  -5.025  0.00  0.00     0.275 HD
HETATM   13  H           1     -19.598  -8.910  -3.598  0.00  0.00     0.275 HD
HETATM   14  H           1     -21.214  -9.164  -4.089  0.00  0.00     0.275 HD
ENDBRANCH   5  11
ENDBRANCH   1   5
BRANCH   2  15
HETATM   15  C           1     -22.232  -9.463  -0.438  0.00  0.00     0.189 C 
BRANCH  15  16
HETATM   16  C           1     -21.268  -9.527   0.722  0.00  0.00     0.197 C 
HETATM   17  O           1     -21.112  -8.531   1.460  0.00  0.00    -0.646 OA
HETATM   18  O           1     -20.628 -10.577   0.944  0.00  0.00    -0.646 OA
ENDBRANCH  15  16
BRANCH  15  19
HETATM   19  C           1     -22.833 -10.841  -0.676  0.00  0.00     0.010 C 
HETATM   20  C           1     -24.192 -10.927   0.005  0.00  0.00     0.012 C 
HETATM   21  C           1     -23.000 -11.069  -2.173  0.00  0.00     0.012 C 
ENDBRANCH  15  19
ENDBRANCH   2  15
TORSDOF 8
ENDMDL
MODEL 9
REMARK VINA RESULT:      -5.2      4.746      8.521
REMARK  8 active torsions:
REMARK  status: ('A' for Active; 'I' for Inactive)
REMARK    1  A    between atoms: C_1  and  C_2 
REMARK    2  A    between atoms: C_1  and  C_14 
REMARK    3  A    between atoms: C_1  and  N_9 
REMARK       I    between atoms: C_2  and  N_3 
REMARK    4  A    between atoms: N_3  and  C_7 
REMARK    5  A    between atoms: C_6  and  C_7 
REMARK    6  A    between atoms: C_7  and  C_20 
REMARK    7  A    between atoms: C_11  and  C_14 
REMARK    8  A    between atoms: C_11  and  C_12 
ROOT
HETATM    1  C           1     -21.497  -9.636  -3.240  0.00  0.00     0.249 C 
HETATM    2  N           1     -21.267  -9.083  -2.009  0.00  0.00    -0.344 N 
HETATM    3  O           1     -22.534 -10.217  -3.457  0.00  0.00    -0.271 OA
HETATM    4  H           1     -20.400  -8.595  -1.827  0.00  0.00     0.163 HD
ENDROOT
BRANCH   1   5
HETATM    5  C           1     -20.457  -9.517  -4.326  0.00  0.00     0.275 C 
BRANCH   5   6
HETATM    6  C           1     -20.081  -8.052  -4.512  0.00  0.00     0.053 C 
BRANCH   6   7
HETATM    7  C           1     -21.060  -7.395  -5.476  0.00  0.00     0.115 C 
BRANCH   7   8
HETATM    8  C           1     -21.920  -6.408  -4.725  0.00  0.00     0.172 C 
HETATM    9  O           1     -21.473  -5.836  -3.707  0.00  0.00    -0.648 OA
HETATM   10  O           1     -23.080  -6.162  -5.122  0.00  0.00    -0.648 OA
ENDBRANCH   7   8
ENDBRANCH   6   7
ENDBRANCH   5   6
BRANCH   5  11
HETATM   11  N           1     -21.012 -10.056  -5.611  0.00  0.00    -0.066 N 
HETATM   12  H           1     -20.285  -9.994  -6.358  0.00  0.00     0.275 HD
HETATM   13  H           1     -21.290 -11.055  -5.477  0.00  0.00     0.275 HD
HETATM   14  H           1     -21.849  -9.495  -5.891  0.00  0.00     0.275 HD
ENDBRANCH   5  11
ENDBRANCH   1   5
BRANCH   2  15
HETATM   15  C           1     -22.267  -9.197  -0.965  0.00  0.00     0.189 C 
BRANCH  15  16
HETATM   16  C           1     -22.388  -7.880  -0.237  0.00  0.00     0.197 C 
HETATM   17  O           1     -22.153  -7.821   0.989  0.00  0.00    -0.646 OA
HETATM   18  O           1     -22.720  -6.850  -0.862  0.00  0.00    -0.646 OA
ENDBRANCH  15  16
BRANCH  15  19
HETATM   19  C           1     -21.853 -10.285   0.017  0.00  0.00     0.010 C 
HETATM   20  C           1     -22.789 -11.478  -0.122  0.00  0.00     0.012 C 
HETATM   21  C           1     -20.425 -10.722  -0.283  0.00  0.00     0.012 C 
ENDBRANCH  15  19
ENDBRANCH   2  15
TORSDOF 8
ENDMDL
