MODEL 1
REMARK VINA RESULT:      -7.9      0.000      0.000
REMARK  9 active torsions:
REMARK  status: ('A' for Active; 'I' for Inactive)
REMARK    1  A    between atoms: N_6  and  C_13 
REMARK    2  A    between atoms: C_8  and  C_17 
REMARK    3  A    between atoms: C_8  and  C_10 
REMARK    4  A    between atoms: C_10  and  C_27 
REMARK    5  A    between atoms: N_11  and  C_27 
REMARK       I    between atoms: N_11  and  C_29 
REMARK    6  A    between atoms: C_12  and  C_13 
REMARK    7  A    between atoms: C_12  and  C_23 
REMARK    8  A    between atoms: C_13  and  C_29 
REMARK    9  A    between atoms: C_25  and  C_27 
ROOT
HETATM    1  C           1     -21.752  -5.974  -5.151  0.00  0.00     0.278 C 
ENDROOT
BRANCH   1   2
HETATM    2  N           1     -23.243  -6.119  -5.089  0.00  0.00    -0.066 N 
HETATM    3  H           1     -23.509  -6.620  -4.211  0.00  0.00     0.275 HD
HETATM    4  H           1     -23.686  -5.172  -5.096  0.00  0.00     0.275 HD
HETATM    5  H           1     -23.574  -6.665  -5.916  0.00  0.00     0.275 HD
ENDBRANCH   1   2
BRANCH   1   6
HETATM    6  C           1     -21.098  -7.126  -4.399  0.00  0.00     0.083 C 
BRANCH   6   7
HETATM    7  C           1     -21.567  -7.126  -2.978  0.00  0.00    -0.028 A 
HETATM    8  C           1     -21.817  -6.015  -2.206  0.00  0.00     0.096 A 
HETATM    9  N           1     -22.227  -6.445  -0.971  0.00  0.00    -0.365 N 
HETATM   10  H           1     -22.488  -5.817  -0.172  0.00  0.00     0.165 HD
HETATM   11  C           1     -22.246  -7.821  -0.930  0.00  0.00     0.042 A 
HETATM   12  C           1     -22.593  -8.690   0.112  0.00  0.00     0.030 A 
HETATM   13  C           1     -21.834  -8.275  -2.183  0.00  0.00    -0.002 A 
HETATM   14  C           1     -22.515 -10.064  -0.139  0.00  0.00     0.002 A 
HETATM   15  C           1     -22.107 -10.545  -1.382  0.00  0.00     0.001 A 
HETATM   16  C           1     -21.763  -9.662  -2.412  0.00  0.00     0.014 A 
ENDBRANCH   6   7
ENDBRANCH   1   6
BRANCH   1  17
HETATM   17  C           1     -21.304  -5.995  -6.592  0.00  0.00     0.249 C 
HETATM   18  O           1     -20.485  -6.803  -6.959  0.00  0.00    -0.271 OA
HETATM   19  N           1     -21.829  -5.098  -7.484  0.00  0.00    -0.345 N 
HETATM   20  H           1     -22.516  -4.421  -7.178  0.00  0.00     0.163 HD
BRANCH  19  21
HETATM   21  C           1     -21.399  -5.119  -8.869  0.00  0.00     0.186 C 
BRANCH  21  22
HETATM   22  C           1     -22.597  -4.878  -9.777  0.00  0.00     0.046 C 
BRANCH  22  23
HETATM   23  C           1     -23.620  -4.013  -9.052  0.00  0.00     0.116 C 
BRANCH  23  24
HETATM   24  C           1     -24.669  -3.545 -10.030  0.00  0.00     0.172 C 
HETATM   25  O           1     -24.544  -3.797 -11.248  0.00  0.00    -0.648 OA
HETATM   26  O           1     -25.662  -2.906  -9.622  0.00  0.00    -0.648 OA
ENDBRANCH  23  24
ENDBRANCH  22  23
ENDBRANCH  21  22
BRANCH  21  27
HETATM   27  C           1     -20.374  -4.033  -9.093  0.00  0.00     0.196 C 
HETATM   28  O           1     -19.636  -3.669  -8.153  0.00  0.00    -0.646 OA
HETATM   29  O           1     -20.264  -3.500 -10.217  0.00  0.00    -0.646 OA
ENDBRANCH  21  27
ENDBRANCH  19  21
ENDBRANCH   1  17
TORSDOF 9
ENDMDL
MODEL 2
REMARK VINA RESULT:      -7.8      3.358      8.202
REMARK  9 active torsions:
REMARK  status: ('A' for Active; 'I' for Inactive)
REMARK    1  A    between atoms: N_6  and  C_13 
REMARK    2  A    between atoms: C_8  and  C_17 
REMARK    3  A    between atoms: C_8  and  C_10 
REMARK    4  A    between atoms: C_10  and  C_27 
REMARK    5  A    between atoms: N_11  and  C_27 
REMARK       I    between atoms: N_11  and  C_29 
REMARK    6  A    between atoms: C_12  and  C_13 
REMARK    7  A    between atoms: C_12  and  C_23 
REMARK    8  A    between atoms: C_13  and  C_29 
REMARK    9  A    between atoms: C_25  and  C_27 
ROOT
HETATM    1  C           1     -21.672  -6.452  -5.444  0.00  0.00     0.278 C 
ENDROOT
BRANCH   1   2
HETATM    2  N           1     -21.939  -6.016  -4.034  0.00  0.00    -0.066 N 
HETATM    3  H           1     -21.491  -5.088  -3.865  0.00  0.00     0.275 HD
HETATM    4  H           1     -22.971  -5.937  -3.883  0.00  0.00     0.275 HD
HETATM    5  H           1     -21.543  -6.721  -3.372  0.00  0.00     0.275 HD
ENDBRANCH   1   2
BRANCH   1   6
HETATM    6  C           1     -20.962  -5.334  -6.196  0.00  0.00     0.083 C 
BRANCH   6   7
HETATM    7  C           1     -21.863  -4.800  -7.265  0.00  0.00    -0.028 A 
HETATM    8  C           1     -23.194  -4.483  -7.120  0.00  0.00     0.096 A 
HETATM    9  N           1     -23.651  -4.030  -8.330  0.00  0.00    -0.365 N 
HETATM   10  H           1     -24.634  -3.715  -8.520  0.00  0.00     0.165 HD
HETATM   11  C           1     -22.636  -4.050  -9.259  0.00  0.00     0.042 A 
HETATM   12  C           1     -22.639  -3.681 -10.610  0.00  0.00     0.030 A 
HETATM   13  C           1     -21.498  -4.532  -8.613  0.00  0.00    -0.002 A 
HETATM   14  C           1     -21.439  -3.811 -11.318  0.00  0.00     0.002 A 
HETATM   15  C           1     -20.287  -4.289 -10.698  0.00  0.00     0.001 A 
HETATM   16  C           1     -20.302  -4.653  -9.346  0.00  0.00     0.014 A 
ENDBRANCH   6   7
ENDBRANCH   1   6
BRANCH   1  17
HETATM   17  C           1     -20.799  -7.684  -5.432  0.00  0.00     0.249 C 
HETATM   18  O           1     -19.742  -7.681  -6.017  0.00  0.00    -0.271 OA
HETATM   19  N           1     -21.206  -8.804  -4.759  0.00  0.00    -0.345 N 
HETATM   20  H           1     -22.092  -8.807  -4.269  0.00  0.00     0.163 HD
BRANCH  19  21
HETATM   21  C           1     -20.368  -9.987  -4.747  0.00  0.00     0.186 C 
BRANCH  21  22
HETATM   22  C           1     -20.241 -10.507  -3.322  0.00  0.00     0.046 C 
BRANCH  22  23
HETATM   23  C           1     -19.463  -9.503  -2.482  0.00  0.00     0.116 C 
BRANCH  23  24
HETATM   24  C           1     -20.409  -8.785  -1.550  0.00  0.00     0.172 C 
HETATM   25  O           1     -20.787  -9.340  -0.496  0.00  0.00    -0.648 OA
HETATM   26  O           1     -20.813  -7.637  -1.834  0.00  0.00    -0.648 OA
ENDBRANCH  23  24
ENDBRANCH  22  23
ENDBRANCH  21  22
BRANCH  21  27
HETATM   27  C           1     -20.991 -11.053  -5.616  0.00  0.00     0.196 C 
HETATM   28  O           1     -20.515 -11.294  -6.746  0.00  0.00    -0.646 OA
HETATM   29  O           1     -21.982 -11.693  -5.205  0.00  0.00    -0.646 OA
ENDBRANCH  21  27
ENDBRANCH  19  21
ENDBRANCH   1  17
TORSDOF 9
ENDMDL
MODEL 3
REMARK VINA RESULT:      -7.8      1.511      2.048
REMARK  9 active torsions:
REMARK  status: ('A' for Active; 'I' for Inactive)
REMARK    1  A    between atoms: N_6  and  C_13 
REMARK    2  A    between atoms: C_8  and  C_17 
REMARK    3  A    between atoms: C_8  and  C_10 
REMARK    4  A    between atoms: C_10  and  C_27 
REMARK    5  A    between atoms: N_11  and  C_27 
REMARK       I    between atoms: N_11  and  C_29 
REMARK    6  A    between atoms: C_12  and  C_13 
REMARK    7  A    between atoms: C_12  and  C_23 
REMARK    8  A    between atoms: C_13  and  C_29 
REMARK    9  A    between atoms: C_25  and  C_27 
ROOT
HETATM    1  C           1     -20.963  -6.654  -4.567  0.00  0.00     0.278 C 
ENDROOT
BRANCH   1   2
HETATM    2  N           1     -21.121  -5.354  -3.836  0.00  0.00    -0.066 N 
HETATM    3  H           1     -21.063  -5.523  -2.806  0.00  0.00     0.275 HD
HETATM    4  H           1     -20.359  -4.698  -4.123  0.00  0.00     0.275 HD
HETATM    5  H           1     -22.049  -4.935  -4.069  0.00  0.00     0.275 HD
ENDBRANCH   1   2
BRANCH   1   6
HETATM    6  C           1     -21.989  -7.654  -4.052  0.00  0.00     0.083 C 
BRANCH   6   7
HETATM    7  C           1     -21.368  -8.505  -2.988  0.00  0.00    -0.028 A 
HETATM    8  C           1     -20.501  -9.553  -3.191  0.00  0.00     0.096 A 
HETATM    9  N           1     -20.167 -10.064  -1.964  0.00  0.00    -0.365 N 
HETATM   10  H           1     -19.518 -10.874  -1.808  0.00  0.00     0.165 HD
HETATM   11  C           1     -20.808  -9.364  -0.967  0.00  0.00     0.042 A 
HETATM   12  C           1     -20.769  -9.530   0.423  0.00  0.00     0.030 A 
HETATM   13  C           1     -21.572  -8.375  -1.586  0.00  0.00    -0.002 A 
HETATM   14  C           1     -21.537  -8.655   1.200  0.00  0.00     0.002 A 
HETATM   15  C           1     -22.309  -7.658   0.608  0.00  0.00     0.001 A 
HETATM   16  C           1     -22.336  -7.506  -0.784  0.00  0.00     0.014 A 
ENDBRANCH   6   7
ENDBRANCH   1   6
BRANCH   1  17
HETATM   17  C           1     -21.176  -6.429  -6.044  0.00  0.00     0.249 C 
HETATM   18  O           1     -21.298  -7.373  -6.788  0.00  0.00    -0.271 OA
HETATM   19  N           1     -21.233  -5.154  -6.541  0.00  0.00    -0.345 N 
HETATM   20  H           1     -21.131  -4.363  -5.918  0.00  0.00     0.163 HD
BRANCH  19  21
HETATM   21  C           1     -21.438  -4.938  -7.960  0.00  0.00     0.186 C 
BRANCH  21  22
HETATM   22  C           1     -22.407  -3.782  -8.164  0.00  0.00     0.046 C 
BRANCH  22  23
HETATM   23  C           1     -23.642  -4.278  -8.904  0.00  0.00     0.116 C 
BRANCH  23  24
HETATM   24  C           1     -23.796  -3.516 -10.197  0.00  0.00     0.172 C 
HETATM   25  O           1     -24.932  -3.166 -10.584  0.00  0.00    -0.648 OA
HETATM   26  O           1     -22.788  -3.235 -10.881  0.00  0.00    -0.648 OA
ENDBRANCH  23  24
ENDBRANCH  22  23
ENDBRANCH  21  22
BRANCH  21  27
HETATM   27  C           1     -20.118  -4.607  -8.614  0.00  0.00     0.196 C 
HETATM   28  O           1     -19.151  -4.235  -7.914  0.00  0.00    -0.646 OA
HETATM   29  O           1     -19.992  -4.706  -9.852  0.00  0.00    -0.646 OA
ENDBRANCH  21  27
ENDBRANCH  19  21
ENDBRANCH   1  17
TORSDOF 9
ENDMDL
MODEL 4
REMARK VINA RESULT:      -7.8      3.320      8.043
REMARK  9 active torsions:
REMARK  status: ('A' for Active; 'I' for Inactive)
REMARK    1  A    between atoms: N_6  and  C_13 
REMARK    2  A    between atoms: C_8  and  C_17 
REMARK    3  A    between atoms: C_8  and  C_10 
REMARK    4  A    between atoms: C_10  and  C_27 
REMARK    5  A    between atoms: N_11  and  C_27 
REMARK       I    between atoms: N_11  and  C_29 
REMARK    6  A    between atoms: C_12  and  C_13 
REMARK    7  A    between atoms: C_12  and  C_23 
REMARK    8  A    between atoms: C_13  and  C_29 
REMARK    9  A    between atoms: C_25  and  C_27 
ROOT
HETATM    1  C           1     -21.841  -6.370  -5.854  0.00  0.00     0.278 C 
ENDROOT
BRANCH   1   2
HETATM    2  N           1     -23.084  -6.012  -5.094  0.00  0.00    -0.066 N 
HETATM    3  H           1     -23.840  -5.750  -5.766  0.00  0.00     0.275 HD
HETATM    4  H           1     -23.393  -6.833  -4.525  0.00  0.00     0.275 HD
HETATM    5  H           1     -22.884  -5.204  -4.462  0.00  0.00     0.275 HD
ENDBRANCH   1   2
BRANCH   1   6
HETATM    6  C           1     -20.987  -5.125  -6.047  0.00  0.00     0.083 C 
BRANCH   6   7
HETATM    7  C           1     -20.859  -4.829  -7.509  0.00  0.00    -0.028 A 
HETATM    8  C           1     -19.708  -4.920  -8.258  0.00  0.00     0.096 A 
HETATM    9  N           1     -20.016  -4.565  -9.545  0.00  0.00    -0.365 N 
HETATM   10  H           1     -19.332  -4.541 -10.341  0.00  0.00     0.165 HD
HETATM   11  C           1     -21.350  -4.243  -9.643  0.00  0.00     0.042 A 
HETATM   12  C           1     -22.102  -3.827 -10.749  0.00  0.00     0.030 A 
HETATM   13  C           1     -21.905  -4.401  -8.373  0.00  0.00    -0.002 A 
HETATM   14  C           1     -23.461  -3.567 -10.546  0.00  0.00     0.002 A 
HETATM   15  C           1     -24.041  -3.716  -9.289  0.00  0.00     0.001 A 
HETATM   16  C           1     -23.276  -4.132  -8.193  0.00  0.00     0.014 A 
ENDBRANCH   6   7
ENDBRANCH   1   6
BRANCH   1  17
HETATM   17  C           1     -21.058  -7.402  -5.079  0.00  0.00     0.249 C 
HETATM   18  O           1     -19.866  -7.504  -5.242  0.00  0.00    -0.271 OA
HETATM   19  N           1     -21.700  -8.222  -4.190  0.00  0.00    -0.345 N 
HETATM   20  H           1     -22.700  -8.137  -4.053  0.00  0.00     0.163 HD
BRANCH  19  21
HETATM   21  C           1     -20.948  -9.213  -3.445  0.00  0.00     0.186 C 
BRANCH  21  22
HETATM   22  C           1     -21.331  -9.143  -1.974  0.00  0.00     0.046 C 
BRANCH  22  23
HETATM   23  C           1     -20.948  -7.780  -1.412  0.00  0.00     0.116 C 
BRANCH  23  24
HETATM   24  C           1     -22.185  -6.928  -1.267  0.00  0.00     0.172 C 
HETATM   25  O           1     -22.436  -6.043  -2.113  0.00  0.00    -0.648 OA
HETATM   26  O           1     -22.957  -7.108  -0.300  0.00  0.00    -0.648 OA
ENDBRANCH  23  24
ENDBRANCH  22  23
ENDBRANCH  21  22
BRANCH  21  27
HETATM   27  C           1     -21.263 -10.589  -3.981  0.00  0.00     0.196 C 
HETATM   28  O           1     -20.508 -11.118  -4.825  0.00  0.00    -0.646 OA
HETATM   29  O           1     -22.277 -11.199  -3.580  0.00  0.00    -0.646 OA
ENDBRANCH  21  27
ENDBRANCH  19  21
ENDBRANCH   1  17
TORSDOF 9
ENDMDL
MODEL 5
REMARK VINA RESULT:      -7.4      3.471      8.309
REMARK  9 active torsions:
REMARK  status: ('A' for Active; 'I' for Inactive)
REMARK    1  A    between atoms: N_6  and  C_13 
REMARK    2  A    between atoms: C_8  and  C_17 
REMARK    3  A    between atoms: C_8  and  C_10 
REMARK    4  A    between atoms: C_10  and  C_27 
REMARK    5  A    between atoms: N_11  and  C_27 
REMARK       I    between atoms: N_11  and  C_29 
REMARK    6  A    between atoms: C_12  and  C_13 
REMARK    7  A    between atoms: C_12  and  C_23 
REMARK    8  A    between atoms: C_13  and  C_29 
REMARK    9  A    between atoms: C_25  and  C_27 
ROOT
HETATM    1  C           1     -21.595  -6.331  -5.209  0.00  0.00     0.278 C 
ENDROOT
BRANCH   1   2
HETATM    2  N           1     -21.287  -5.673  -3.898  0.00  0.00    -0.066 N 
HETATM    3  H           1     -20.892  -6.380  -3.237  0.00  0.00     0.275 HD
HETATM    4  H           1     -20.588  -4.909  -4.046  0.00  0.00     0.275 HD
HETATM    5  H           1     -22.163  -5.271  -3.496  0.00  0.00     0.275 HD
ENDBRANCH   1   2
BRANCH   1   6
HETATM    6  C           1     -20.808  -5.647  -6.319  0.00  0.00     0.083 C 
BRANCH   6   7
HETATM    7  C           1     -21.755  -4.980  -7.266  0.00  0.00    -0.028 A 
HETATM    8  C           1     -23.059  -4.629  -6.998  0.00  0.00     0.096 A 
HETATM    9  N           1     -23.576  -4.046  -8.124  0.00  0.00    -0.365 N 
HETATM   10  H           1     -24.555  -3.677  -8.214  0.00  0.00     0.165 HD
HETATM   11  C           1     -22.628  -4.013  -9.122  0.00  0.00     0.042 A 
HETATM   12  C           1     -22.706  -3.517 -10.429  0.00  0.00     0.030 A 
HETATM   13  C           1     -21.470  -4.596  -8.606  0.00  0.00    -0.002 A 
HETATM   14  C           1     -21.564  -3.622 -11.229  0.00  0.00     0.002 A 
HETATM   15  C           1     -20.394  -4.199 -10.741  0.00  0.00     0.001 A 
HETATM   16  C           1     -20.333  -4.691  -9.431  0.00  0.00     0.014 A 
ENDBRANCH   6   7
ENDBRANCH   1   6
BRANCH   1  17
HETATM   17  C           1     -21.210  -7.789  -5.144  0.00  0.00     0.249 C 
HETATM   18  O           1     -21.207  -8.459  -6.148  0.00  0.00    -0.271 OA
HETATM   19  N           1     -20.862  -8.351  -3.945  0.00  0.00    -0.345 N 
HETATM   20  H           1     -20.864  -7.790  -3.102  0.00  0.00     0.163 HD
BRANCH  19  21
HETATM   21  C           1     -20.492  -9.751  -3.882  0.00  0.00     0.186 C 
BRANCH  21  22
HETATM   22  C           1     -19.175  -9.896  -3.131  0.00  0.00     0.046 C 
BRANCH  22  23
HETATM   23  C           1     -18.025  -9.465  -4.032  0.00  0.00     0.116 C 
BRANCH  23  24
HETATM   24  C           1     -18.002 -10.328  -5.270  0.00  0.00     0.172 C 
HETATM   25  O           1     -18.153  -9.808  -6.397  0.00  0.00    -0.648 OA
HETATM   26  O           1     -17.834 -11.562  -5.167  0.00  0.00    -0.648 OA
ENDBRANCH  23  24
ENDBRANCH  22  23
ENDBRANCH  21  22
BRANCH  21  27
HETATM   27  C           1     -21.568 -10.524  -3.159  0.00  0.00     0.196 C 
HETATM   28  O           1     -21.369 -10.930  -1.994  0.00  0.00    -0.646 OA
HETATM   29  O           1     -22.657 -10.757  -3.725  0.00  0.00    -0.646 OA
ENDBRANCH  21  27
ENDBRANCH  19  21
ENDBRANCH   1  17
TORSDOF 9
ENDMDL
MODEL 6
REMARK VINA RESULT:      -7.4      1.690      3.464
REMARK  9 active torsions:
REMARK  status: ('A' for Active; 'I' for Inactive)
REMARK    1  A    between atoms: N_6  and  C_13 
REMARK    2  A    between atoms: C_8  and  C_17 
REMARK    3  A    between atoms: C_8  and  C_10 
REMARK    4  A    between atoms: C_10  and  C_27 
REMARK    5  A    between atoms: N_11  and  C_27 
REMARK       I    between atoms: N_11  and  C_29 
REMARK    6  A    between atoms: C_12  and  C_13 
REMARK    7  A    between atoms: C_12  and  C_23 
REMARK    8  A    between atoms: C_13  and  C_29 
REMARK    9  A    between atoms: C_25  and  C_27 
ROOT
HETATM    1  C           1     -22.137  -4.740  -6.051  0.00  0.00     0.278 C 
ENDROOT
BRANCH   1   2
HETATM    2  N           1     -23.087  -5.899  -5.987  0.00  0.00    -0.066 N 
HETATM    3  H           1     -23.265  -6.258  -6.953  0.00  0.00     0.275 HD
HETATM    4  H           1     -22.669  -6.661  -5.405  0.00  0.00     0.275 HD
HETATM    5  H           1     -23.988  -5.587  -5.560  0.00  0.00     0.275 HD
ENDBRANCH   1   2
BRANCH   1   6
HETATM    6  C           1     -20.740  -5.206  -5.663  0.00  0.00     0.083 C 
BRANCH   6   7
HETATM    7  C           1     -20.830  -6.524  -4.960  0.00  0.00    -0.028 A 
HETATM    8  C           1     -20.498  -7.750  -5.489  0.00  0.00     0.096 A 
HETATM    9  N           1     -20.724  -8.698  -4.526  0.00  0.00    -0.365 N 
HETATM   10  H           1     -20.559  -9.727  -4.646  0.00  0.00     0.165 HD
HETATM   11  C           1     -21.200  -8.105  -3.378  0.00  0.00     0.042 A 
HETATM   12  C           1     -21.565  -8.672  -2.151  0.00  0.00     0.030 A 
HETATM   13  C           1     -21.276  -6.734  -3.626  0.00  0.00    -0.002 A 
HETATM   14  C           1     -22.021  -7.808  -1.150  0.00  0.00     0.002 A 
HETATM   15  C           1     -22.107  -6.435  -1.369  0.00  0.00     0.001 A 
HETATM   16  C           1     -21.739  -5.884  -2.603  0.00  0.00     0.014 A 
ENDBRANCH   6   7
ENDBRANCH   1   6
BRANCH   1  17
HETATM   17  C           1     -22.112  -4.188  -7.455  0.00  0.00     0.249 C 
HETATM   18  O           1     -21.130  -3.615  -7.862  0.00  0.00    -0.271 OA
HETATM   19  N           1     -23.203  -4.337  -8.269  0.00  0.00    -0.345 N 
HETATM   20  H           1     -24.027  -4.817  -7.929  0.00  0.00     0.163 HD
BRANCH  19  21
HETATM   21  C           1     -23.179  -3.807  -9.618  0.00  0.00     0.186 C 
BRANCH  21  22
HETATM   22  C           1     -22.834  -4.921 -10.597  0.00  0.00     0.046 C 
BRANCH  22  23
HETATM   23  C           1     -21.954  -4.367 -11.709  0.00  0.00     0.116 C 
BRANCH  23  24
HETATM   24  C           1     -20.610  -3.978 -11.144  0.00  0.00     0.172 C 
HETATM   25  O           1     -19.871  -4.849 -10.636  0.00  0.00    -0.648 OA
HETATM   26  O           1     -20.237  -2.786 -11.182  0.00  0.00    -0.648 OA
ENDBRANCH  23  24
ENDBRANCH  22  23
ENDBRANCH  21  22
BRANCH  21  27
HETATM   27  C           1     -24.536  -3.240  -9.960  0.00  0.00     0.196 C 
HETATM   28  O           1     -25.211  -2.664  -9.080  0.00  0.00    -0.646 OA
HETATM   29  O           1     -24.983  -3.349 -11.121  0.00  0.00    -0.646 OA
ENDBRANCH  21  27
ENDBRANCH  19  21
ENDBRANCH   1  17
TORSDOF 9
ENDMDL
MODEL 7
REMARK VINA RESULT:      -7.3      2.975      8.013
REMARK  9 active torsions:
REMARK  status: ('A' for Active; 'I' for Inactive)
REMARK    1  A    between atoms: N_6  and  C_13 
REMARK    2  A    between atoms: C_8  and  C_17 
REMARK    3  A    between atoms: C_8  and  C_10 
REMARK    4  A    between atoms: C_10  and  C_27 
REMARK    5  A    between atoms: N_11  and  C_27 
REMARK       I    between atoms: N_11  and  C_29 
REMARK    6  A    between atoms: C_12  and  C_13 
REMARK    7  A    between atoms: C_12  and  C_23 
REMARK    8  A    between atoms: C_13  and  C_29 
REMARK    9  A    between atoms: C_25  and  C_27 
ROOT
HETATM    1  C           1     -20.305  -5.578  -5.911  0.00  0.00     0.278 C 
ENDROOT
BRANCH   1   2
HETATM    2  N           1     -19.993  -6.493  -7.058  0.00  0.00    -0.066 N 
HETATM    3  H           1     -20.183  -7.482  -6.778  0.00  0.00     0.275 HD
HETATM    4  H           1     -20.593  -6.243  -7.877  0.00  0.00     0.275 HD
HETATM    5  H           1     -18.986  -6.392  -7.319  0.00  0.00     0.275 HD
ENDBRANCH   1   2
BRANCH   1   6
HETATM    6  C           1     -20.887  -4.276  -6.444  0.00  0.00     0.083 C 
BRANCH   6   7
HETATM    7  C           1     -20.876  -4.299  -7.941  0.00  0.00    -0.028 A 
HETATM    8  C           1     -19.760  -4.283  -8.745  0.00  0.00     0.096 A 
HETATM    9  N           1     -20.181  -4.314 -10.048  0.00  0.00    -0.365 N 
HETATM   10  H           1     -19.547  -4.310 -10.884  0.00  0.00     0.165 HD
HETATM   11  C           1     -21.557  -4.348 -10.102  0.00  0.00     0.042 A 
HETATM   12  C           1     -22.418  -4.386 -11.206  0.00  0.00     0.030 A 
HETATM   13  C           1     -22.019  -4.339  -8.786  0.00  0.00    -0.002 A 
HETATM   14  C           1     -23.793  -4.415 -10.952  0.00  0.00     0.002 A 
HETATM   15  C           1     -24.283  -4.408  -9.648  0.00  0.00     0.001 A 
HETATM   16  C           1     -23.408  -4.370  -8.556  0.00  0.00     0.014 A 
ENDBRANCH   6   7
ENDBRANCH   1   6
BRANCH   1  17
HETATM   17  C           1     -21.307  -6.241  -4.998  0.00  0.00     0.249 C 
HETATM   18  O           1     -22.489  -6.041  -5.151  0.00  0.00    -0.271 OA
HETATM   19  N           1     -20.877  -7.070  -3.997  0.00  0.00    -0.345 N 
HETATM   20  H           1     -19.887  -7.238  -3.868  0.00  0.00     0.163 HD
BRANCH  19  21
HETATM   21  C           1     -21.840  -7.707  -3.120  0.00  0.00     0.186 C 
BRANCH  21  22
HETATM   22  C           1     -21.419  -9.147  -2.861  0.00  0.00     0.046 C 
BRANCH  22  23
HETATM   23  C           1     -22.020 -10.053  -3.928  0.00  0.00     0.116 C 
BRANCH  23  24
HETATM   24  C           1     -20.985 -10.338  -4.989  0.00  0.00     0.172 C 
HETATM   25  O           1     -20.375 -11.430  -4.988  0.00  0.00    -0.648 OA
HETATM   26  O           1     -20.738  -9.484  -5.867  0.00  0.00    -0.648 OA
ENDBRANCH  23  24
ENDBRANCH  22  23
ENDBRANCH  21  22
BRANCH  21  27
HETATM   27  C           1     -21.899  -6.959  -1.810  0.00  0.00     0.196 C 
HETATM   28  O           1     -22.421  -5.824  -1.762  0.00  0.00    -0.646 OA
HETATM   29  O           1     -21.426  -7.473  -0.775  0.00  0.00    -0.646 OA
ENDBRANCH  21  27
ENDBRANCH  19  21
ENDBRANCH   1  17
TORSDOF 9
ENDMDL
MODEL 8
REMARK VINA RESULT:      -7.2      3.265      8.421
REMARK  9 active torsions:
REMARK  status: ('A' for Active; 'I' for Inactive)
REMARK    1  A    between atoms: N_6  and  C_13 
REMARK    2  A    between atoms: C_8  and  C_17 
REMARK    3  A    between atoms: C_8  and  C_10 
REMARK    4  A    between atoms: C_10  and  C_27 
REMARK    5  A    between atoms: N_11  and  C_27 
REMARK       I    between atoms: N_11  and  C_29 
REMARK    6  A    between atoms: C_12  and  C_13 
REMARK    7  A    between atoms: C_12  and  C_23 
REMARK    8  A    between atoms: C_13  and  C_29 
REMARK    9  A    between atoms: C_25  and  C_27 
ROOT
HETATM    1  C           1     -20.559  -5.949  -5.831  0.00  0.00     0.278 C 
ENDROOT
BRANCH   1   2
HETATM    2  N           1     -20.701  -6.676  -7.136  0.00  0.00    -0.066 N 
HETATM    3  H           1     -20.602  -7.704  -6.975  0.00  0.00     0.275 HD
HETATM    4  H           1     -21.642  -6.477  -7.545  0.00  0.00     0.275 HD
HETATM    5  H           1     -19.958  -6.353  -7.796  0.00  0.00     0.275 HD
ENDBRANCH   1   2
BRANCH   1   6
HETATM    6  C           1     -20.925  -4.484  -6.023  0.00  0.00     0.083 C 
BRANCH   6   7
HETATM    7  C           1     -21.860  -4.350  -7.185  0.00  0.00    -0.028 A 
HETATM    8  C           1     -23.234  -4.355  -7.126  0.00  0.00     0.096 A 
HETATM    9  N           1     -23.710  -4.210  -8.402  0.00  0.00    -0.365 N 
HETATM   10  H           1     -24.726  -4.178  -8.665  0.00  0.00     0.165 HD
HETATM   11  C           1     -22.663  -4.112  -9.291  0.00  0.00     0.042 A 
HETATM   12  C           1     -22.670  -3.957 -10.683  0.00  0.00     0.030 A 
HETATM   13  C           1     -21.485  -4.199  -8.549  0.00  0.00    -0.002 A 
HETATM   14  C           1     -21.432  -3.887 -11.331  0.00  0.00     0.002 A 
HETATM   15  C           1     -20.240  -3.970 -10.615  0.00  0.00     0.001 A 
HETATM   16  C           1     -20.252  -4.126  -9.224  0.00  0.00     0.014 A 
ENDBRANCH   6   7
ENDBRANCH   1   6
BRANCH   1  17
HETATM   17  C           1     -21.479  -6.569  -4.808  0.00  0.00     0.249 C 
HETATM   18  O           1     -22.676  -6.483  -4.941  0.00  0.00    -0.271 OA
HETATM   19  N           1     -20.955  -7.229  -3.729  0.00  0.00    -0.345 N 
HETATM   20  H           1     -19.952  -7.301  -3.616  0.00  0.00     0.163 HD
BRANCH  19  21
HETATM   21  C           1     -21.839  -7.825  -2.746  0.00  0.00     0.186 C 
BRANCH  21  22
HETATM   22  C           1     -21.239  -9.132  -2.247  0.00  0.00     0.046 C 
BRANCH  22  23
HETATM   23  C           1     -22.207 -10.275  -2.524  0.00  0.00     0.116 C 
BRANCH  23  24
HETATM   24  C           1     -22.906 -10.665  -1.245  0.00  0.00     0.172 C 
HETATM   25  O           1     -22.329 -10.514  -0.147  0.00  0.00    -0.648 OA
HETATM   26  O           1     -24.061 -11.140  -1.285  0.00  0.00    -0.648 OA
ENDBRANCH  23  24
ENDBRANCH  22  23
ENDBRANCH  21  22
BRANCH  21  27
HETATM   27  C           1     -22.010  -6.876  -1.584  0.00  0.00     0.196 C 
HETATM   28  O           1     -21.803  -7.275  -0.417  0.00  0.00    -0.646 OA
HETATM   29  O           1     -22.359  -5.694  -1.788  0.00  0.00    -0.646 OA
ENDBRANCH  21  27
ENDBRANCH  19  21
ENDBRANCH   1  17
TORSDOF 9
ENDMDL
MODEL 9
REMARK VINA RESULT:      -7.0      2.105      2.966
REMARK  9 active torsions:
REMARK  status: ('A' for Active; 'I' for Inactive)
REMARK    1  A    between atoms: N_6  and  C_13 
REMARK    2  A    between atoms: C_8  and  C_17 
REMARK    3  A    between atoms: C_8  and  C_10 
REMARK    4  A    between atoms: C_10  and  C_27 
REMARK    5  A    between atoms: N_11  and  C_27 
REMARK       I    between atoms: N_11  and  C_29 
REMARK    6  A    between atoms: C_12  and  C_13 
REMARK    7  A    between atoms: C_12  and  C_23 
REMARK    8  A    between atoms: C_13  and  C_29 
REMARK    9  A    between atoms: C_25  and  C_27 
ROOT
HETATM    1  C           1     -20.393  -7.840  -5.233  0.00  0.00     0.278 C 
ENDROOT
BRANCH   1   2
HETATM    2  N           1     -19.217  -8.519  -5.869  0.00  0.00    -0.066 N 
HETATM    3  H           1     -19.456  -8.783  -6.852  0.00  0.00     0.275 HD
HETATM    4  H           1     -18.399  -7.868  -5.874  0.00  0.00     0.275 HD
HETATM    5  H           1     -18.976  -9.378  -5.326  0.00  0.00     0.275 HD
ENDBRANCH   1   2
BRANCH   1   6
HETATM    6  C           1     -20.139  -7.677  -3.740  0.00  0.00     0.083 C 
BRANCH   6   7
HETATM    7  C           1     -20.922  -8.705  -2.985  0.00  0.00    -0.028 A 
HETATM    8  C           1     -21.040 -10.036  -3.310  0.00  0.00     0.096 A 
HETATM    9  N           1     -21.840 -10.629  -2.369  0.00  0.00    -0.365 N 
HETATM   10  H           1     -22.106 -11.644  -2.361  0.00  0.00     0.165 HD
HETATM   11  C           1     -22.245  -9.701  -1.437  0.00  0.00     0.042 A 
HETATM   12  C           1     -23.062  -9.849  -0.309  0.00  0.00     0.030 A 
HETATM   13  C           1     -21.680  -8.479  -1.802  0.00  0.00    -0.002 A 
HETATM   14  C           1     -23.305  -8.710   0.467  0.00  0.00     0.002 A 
HETATM   15  C           1     -22.753  -7.477   0.126  0.00  0.00     0.001 A 
HETATM   16  C           1     -21.940  -7.347  -1.006  0.00  0.00     0.014 A 
ENDBRANCH   6   7
ENDBRANCH   1   6
BRANCH   1  17
HETATM   17  C           1     -20.590  -6.482  -5.861  0.00  0.00     0.249 C 
HETATM   18  O           1     -20.458  -5.483  -5.195  0.00  0.00    -0.271 OA
HETATM   19  N           1     -20.918  -6.383  -7.187  0.00  0.00    -0.345 N 
HETATM   20  H           1     -21.029  -7.219  -7.746  0.00  0.00     0.163 HD
BRANCH  19  21
HETATM   21  C           1     -21.107  -5.078  -7.790  0.00  0.00     0.186 C 
BRANCH  21  22
HETATM   22  C           1     -20.577  -5.096  -9.217  0.00  0.00     0.046 C 
BRANCH  22  23
HETATM   23  C           1     -20.498  -3.671  -9.749  0.00  0.00     0.116 C 
BRANCH  23  24
HETATM   24  C           1     -21.177  -3.596 -11.095  0.00  0.00     0.172 C 
HETATM   25  O           1     -21.415  -4.644 -11.733  0.00  0.00    -0.648 OA
HETATM   26  O           1     -21.501  -2.486 -11.570  0.00  0.00    -0.648 OA
ENDBRANCH  23  24
ENDBRANCH  22  23
ENDBRANCH  21  22
BRANCH  21  27
HETATM   27  C           1     -22.578  -4.740  -7.806  0.00  0.00     0.196 C 
HETATM   28  O           1     -23.220  -4.799  -8.877  0.00  0.00    -0.646 OA
HETATM   29  O           1     -23.153  -4.401  -6.750  0.00  0.00    -0.646 OA
ENDBRANCH  21  27
ENDBRANCH  19  21
ENDBRANCH   1  17
TORSDOF 9
ENDMDL
