MODEL 1
REMARK VINA RESULT:      -7.7      0.000      0.000
REMARK  10 active torsions:
REMARK  status: ('A' for Active; 'I' for Inactive)
REMARK    1  A    between atoms: C_1  and  O_20 
REMARK    2  A    between atoms: C_3  and  C_9 
REMARK       I    between atoms: C_4  and  N_15 
REMARK    3  A    between atoms: C_4  and  C_22 
REMARK    4  A    between atoms: C_9  and  C_10 
REMARK    5  A    between atoms: C_10  and  C_18 
REMARK    6  A    between atoms: N_15  and  C_18 
REMARK    7  A    between atoms: C_18  and  C_23 
REMARK    8  A    between atoms: N_19  and  C_22 
REMARK    9  A    between atoms: C_22  and  C_26 
REMARK   10  A    between atoms: C_25  and  C_26 
ROOT
HETATM    1  C           1     -22.074  -5.328  -6.703  0.00  0.00     0.278 C 
ENDROOT
BRANCH   1   2
HETATM    2  C           1     -21.221  -5.893  -5.594  0.00  0.00     0.249 C 
HETATM    3  N           1     -21.177  -7.246  -5.386  0.00  0.00    -0.345 N 
HETATM    4  H           1     -21.717  -7.867  -5.977  0.00  0.00     0.163 HD
HETATM    5  O           1     -20.578  -5.153  -4.889  0.00  0.00    -0.271 OA
BRANCH   3   6
HETATM    6  C           1     -20.357  -7.790  -4.321  0.00  0.00     0.186 C 
BRANCH   6   7
HETATM    7  C           1     -21.254  -8.378  -3.240  0.00  0.00     0.046 C 
BRANCH   7   8
HETATM    8  C           1     -20.975  -7.682  -1.914  0.00  0.00     0.116 C 
BRANCH   8   9
HETATM    9  C           1     -22.144  -6.799  -1.553  0.00  0.00     0.172 C 
HETATM   10  O           1     -22.810  -7.034  -0.522  0.00  0.00    -0.648 OA
HETATM   11  O           1     -22.447  -5.832  -2.287  0.00  0.00    -0.648 OA
ENDBRANCH   8   9
ENDBRANCH   7   8
ENDBRANCH   6   7
BRANCH   6  12
HETATM   12  C           1     -19.465  -8.872  -4.878  0.00  0.00     0.196 C 
HETATM   13  O           1     -19.202  -9.881  -4.188  0.00  0.00    -0.646 OA
HETATM   14  O           1     -18.987  -8.758  -6.027  0.00  0.00    -0.646 OA
ENDBRANCH   6  12
ENDBRANCH   3   6
ENDBRANCH   1   2
BRANCH   1  15
HETATM   15  N           1     -23.461  -5.079  -6.189  0.00  0.00    -0.066 N 
HETATM   16  H           1     -23.974  -4.459  -6.855  0.00  0.00     0.275 HD
HETATM   17  H           1     -23.408  -4.618  -5.252  0.00  0.00     0.275 HD
HETATM   18  H           1     -23.968  -5.988  -6.099  0.00  0.00     0.275 HD
ENDBRANCH   1  15
BRANCH   1  19
HETATM   19  C           1     -21.471  -4.016  -7.188  0.00  0.00     0.081 C 
BRANCH  19  20
HETATM   20  C           1     -21.526  -3.965  -8.684  0.00  0.00    -0.056 A 
HETATM   21  C           1     -22.718  -3.637  -9.327  0.00  0.00     0.010 A 
HETATM   22  C           1     -22.769  -3.591 -10.721  0.00  0.00     0.037 A 
HETATM   23  C           1     -21.626  -3.871 -11.470  0.00  0.00     0.065 A 
HETATM   24  C           1     -20.434  -4.200 -10.826  0.00  0.00     0.037 A 
HETATM   25  C           1     -20.383  -4.247  -9.432  0.00  0.00     0.010 A 
BRANCH  23  26
HETATM   26  O           1     -21.675  -3.827 -12.823  0.00  0.00    -0.361 OA
HETATM   27  H           1     -21.656  -2.893 -13.093  0.00  0.00     0.217 HD
ENDBRANCH  23  26
ENDBRANCH  19  20
ENDBRANCH   1  19
TORSDOF 10
ENDMDL
MODEL 2
REMARK VINA RESULT:      -7.2     13.528     14.856
REMARK  10 active torsions:
REMARK  status: ('A' for Active; 'I' for Inactive)
REMARK    1  A    between atoms: C_1  and  O_20 
REMARK    2  A    between atoms: C_3  and  C_9 
REMARK       I    between atoms: C_4  and  N_15 
REMARK    3  A    between atoms: C_4  and  C_22 
REMARK    4  A    between atoms: C_9  and  C_10 
REMARK    5  A    between atoms: C_10  and  C_18 
REMARK    6  A    between atoms: N_15  and  C_18 
REMARK    7  A    between atoms: C_18  and  C_23 
REMARK    8  A    between atoms: N_19  and  C_22 
REMARK    9  A    between atoms: C_22  and  C_26 
REMARK   10  A    between atoms: C_25  and  C_26 
ROOT
HETATM    1  C           1     -32.842  -4.510 -16.622  0.00  0.00     0.278 C 
ENDROOT
BRANCH   1   2
HETATM    2  C           1     -33.789  -4.425 -15.450  0.00  0.00     0.249 C 
HETATM    3  N           1     -33.329  -4.018 -14.226  0.00  0.00    -0.345 N 
HETATM    4  H           1     -32.354  -3.774 -14.108  0.00  0.00     0.163 HD
HETATM    5  O           1     -34.952  -4.717 -15.591  0.00  0.00    -0.271 OA
BRANCH   3   6
HETATM    6  C           1     -34.239  -3.937 -13.100  0.00  0.00     0.186 C 
BRANCH   6   7
HETATM    7  C           1     -33.584  -4.554 -11.872  0.00  0.00     0.046 C 
BRANCH   7   8
HETATM    8  C           1     -34.660  -5.065 -10.924  0.00  0.00     0.116 C 
BRANCH   8   9
HETATM    9  C           1     -34.303  -6.455 -10.458  0.00  0.00     0.172 C 
HETATM   10  O           1     -33.205  -6.958 -10.779  0.00  0.00    -0.648 OA
HETATM   11  O           1     -35.106  -7.103  -9.752  0.00  0.00    -0.648 OA
ENDBRANCH   8   9
ENDBRANCH   7   8
ENDBRANCH   6   7
BRANCH   6  12
HETATM   12  C           1     -34.564  -2.489 -12.823  0.00  0.00     0.196 C 
HETATM   13  O           1     -34.298  -1.992 -11.707  0.00  0.00    -0.646 OA
HETATM   14  O           1     -35.102  -1.789 -13.707  0.00  0.00    -0.646 OA
ENDBRANCH   6  12
ENDBRANCH   3   6
ENDBRANCH   1   2
BRANCH   1  15
HETATM   15  N           1     -33.022  -3.305 -17.497  0.00  0.00    -0.066 N 
HETATM   16  H           1     -33.545  -3.576 -18.360  0.00  0.00     0.275 HD
HETATM   17  H           1     -32.086  -2.923 -17.762  0.00  0.00     0.275 HD
HETATM   18  H           1     -33.561  -2.575 -16.979  0.00  0.00     0.275 HD
ENDBRANCH   1  15
BRANCH   1  19
HETATM   19  C           1     -31.407  -4.555 -16.113  0.00  0.00     0.081 C 
BRANCH  19  20
HETATM   20  C           1     -30.578  -5.397 -17.032  0.00  0.00    -0.056 A 
HETATM   21  C           1     -30.959  -6.709 -17.310  0.00  0.00     0.010 A 
HETATM   22  C           1     -30.186  -7.494 -18.167  0.00  0.00     0.037 A 
HETATM   23  C           1     -29.033  -6.965 -18.746  0.00  0.00     0.065 A 
HETATM   24  C           1     -28.652  -5.653 -18.468  0.00  0.00     0.037 A 
HETATM   25  C           1     -29.424  -4.868 -17.611  0.00  0.00     0.010 A 
BRANCH  23  26
HETATM   26  O           1     -28.282  -7.727 -19.578  0.00  0.00    -0.361 OA
HETATM   27  H           1     -28.719  -7.743 -20.445  0.00  0.00     0.217 HD
ENDBRANCH  23  26
ENDBRANCH  19  20
ENDBRANCH   1  19
TORSDOF 10
ENDMDL
MODEL 3
REMARK VINA RESULT:      -7.1      2.082      7.842
REMARK  10 active torsions:
REMARK  status: ('A' for Active; 'I' for Inactive)
REMARK    1  A    between atoms: C_1  and  O_20 
REMARK    2  A    between atoms: C_3  and  C_9 
REMARK       I    between atoms: C_4  and  N_15 
REMARK    3  A    between atoms: C_4  and  C_22 
REMARK    4  A    between atoms: C_9  and  C_10 
REMARK    5  A    between atoms: C_10  and  C_18 
REMARK    6  A    between atoms: N_15  and  C_18 
REMARK    7  A    between atoms: C_18  and  C_23 
REMARK    8  A    between atoms: N_19  and  C_22 
REMARK    9  A    between atoms: C_22  and  C_26 
REMARK   10  A    between atoms: C_25  and  C_26 
ROOT
HETATM    1  C           1     -21.505  -6.066  -5.162  0.00  0.00     0.278 C 
ENDROOT
BRANCH   1   2
HETATM    2  C           1     -21.119  -6.033  -6.621  0.00  0.00     0.249 C 
HETATM    3  N           1     -21.745  -5.162  -7.474  0.00  0.00    -0.345 N 
HETATM    4  H           1     -22.465  -4.543  -7.126  0.00  0.00     0.163 HD
HETATM    5  O           1     -20.260  -6.772  -7.036  0.00  0.00    -0.271 OA
BRANCH   3   6
HETATM    6  C           1     -21.374  -5.130  -8.875  0.00  0.00     0.186 C 
BRANCH   6   7
HETATM    7  C           1     -22.621  -4.926  -9.725  0.00  0.00     0.046 C 
BRANCH   7   8
HETATM    8  C           1     -23.566  -3.963  -9.019  0.00  0.00     0.116 C 
BRANCH   8   9
HETATM    9  C           1     -24.642  -3.518  -9.980  0.00  0.00     0.172 C 
HETATM   10  O           1     -24.503  -3.711 -11.207  0.00  0.00    -0.648 OA
HETATM   11  O           1     -25.672  -2.957  -9.549  0.00  0.00    -0.648 OA
ENDBRANCH   8   9
ENDBRANCH   7   8
ENDBRANCH   6   7
BRANCH   6  12
HETATM   12  C           1     -20.412  -3.992  -9.112  0.00  0.00     0.196 C 
HETATM   13  O           1     -19.790  -3.489  -8.151  0.00  0.00    -0.646 OA
HETATM   14  O           1     -20.239  -3.550 -10.269  0.00  0.00    -0.646 OA
ENDBRANCH   6  12
ENDBRANCH   3   6
ENDBRANCH   1   2
BRANCH   1  15
HETATM   15  N           1     -22.988  -6.255  -5.042  0.00  0.00    -0.066 N 
HETATM   16  H           1     -23.227  -7.257  -5.216  0.00  0.00     0.275 HD
HETATM   17  H           1     -23.474  -5.653  -5.745  0.00  0.00     0.275 HD
HETATM   18  H           1     -23.297  -5.985  -4.081  0.00  0.00     0.275 HD
ENDBRANCH   1  15
BRANCH   1  19
HETATM   19  C           1     -20.790  -7.223  -4.474  0.00  0.00     0.081 C 
BRANCH  19  20
HETATM   20  C           1     -21.347  -7.405  -3.097  0.00  0.00    -0.056 A 
HETATM   21  C           1     -21.719  -6.294  -2.342  0.00  0.00     0.010 A 
HETATM   22  C           1     -22.238  -6.465  -1.058  0.00  0.00     0.037 A 
HETATM   23  C           1     -22.386  -7.748  -0.531  0.00  0.00     0.065 A 
HETATM   24  C           1     -22.013  -8.859  -1.286  0.00  0.00     0.037 A 
HETATM   25  C           1     -21.494  -8.688  -2.570  0.00  0.00     0.010 A 
BRANCH  23  26
HETATM   26  O           1     -22.889  -7.913   0.716  0.00  0.00    -0.361 OA
HETATM   27  H           1     -22.986  -8.867   0.876  0.00  0.00     0.217 HD
ENDBRANCH  23  26
ENDBRANCH  19  20
ENDBRANCH   1  19
TORSDOF 10
ENDMDL
MODEL 4
REMARK VINA RESULT:      -7.0      1.684      2.196
REMARK  10 active torsions:
REMARK  status: ('A' for Active; 'I' for Inactive)
REMARK    1  A    between atoms: C_1  and  O_20 
REMARK    2  A    between atoms: C_3  and  C_9 
REMARK       I    between atoms: C_4  and  N_15 
REMARK    3  A    between atoms: C_4  and  C_22 
REMARK    4  A    between atoms: C_9  and  C_10 
REMARK    5  A    between atoms: C_10  and  C_18 
REMARK    6  A    between atoms: N_15  and  C_18 
REMARK    7  A    between atoms: C_18  and  C_23 
REMARK    8  A    between atoms: N_19  and  C_22 
REMARK    9  A    between atoms: C_22  and  C_26 
REMARK   10  A    between atoms: C_25  and  C_26 
ROOT
HETATM    1  C           1     -20.717  -5.485  -6.320  0.00  0.00     0.278 C 
ENDROOT
BRANCH   1   2
HETATM    2  C           1     -20.227  -6.832  -5.848  0.00  0.00     0.249 C 
HETATM    3  N           1     -20.740  -7.384  -4.704  0.00  0.00    -0.345 N 
HETATM    4  H           1     -21.446  -6.889  -4.175  0.00  0.00     0.163 HD
HETATM    5  O           1     -19.384  -7.423  -6.478  0.00  0.00    -0.271 OA
BRANCH   3   6
HETATM    6  C           1     -20.270  -8.679  -4.251  0.00  0.00     0.186 C 
BRANCH   6   7
HETATM    7  C           1     -20.226  -8.699  -2.729  0.00  0.00     0.046 C 
BRANCH   7   8
HETATM    8  C           1     -20.811  -7.402  -2.186  0.00  0.00     0.116 C 
BRANCH   8   9
HETATM    9  C           1     -21.957  -7.716  -1.256  0.00  0.00     0.172 C 
HETATM   10  O           1     -22.698  -6.798  -0.845  0.00  0.00    -0.648 OA
HETATM   11  O           1     -22.164  -8.896  -0.896  0.00  0.00    -0.648 OA
ENDBRANCH   8   9
ENDBRANCH   7   8
ENDBRANCH   6   7
BRANCH   6  12
HETATM   12  C           1     -21.210  -9.753  -4.741  0.00  0.00     0.196 C 
HETATM   13  O           1     -22.134 -10.159  -4.003  0.00  0.00    -0.646 OA
HETATM   14  O           1     -21.063 -10.238  -5.883  0.00  0.00    -0.646 OA
ENDBRANCH   6  12
ENDBRANCH   3   6
ENDBRANCH   1   2
BRANCH   1  15
HETATM   15  N           1     -20.186  -4.415  -5.412  0.00  0.00    -0.066 N 
HETATM   16  H           1     -19.243  -4.111  -5.746  0.00  0.00     0.275 HD
HETATM   17  H           1     -20.108  -4.791  -4.440  0.00  0.00     0.275 HD
HETATM   18  H           1     -20.837  -3.598  -5.418  0.00  0.00     0.275 HD
ENDBRANCH   1  15
BRANCH   1  19
HETATM   19  C           1     -20.225  -5.235  -7.740  0.00  0.00     0.081 C 
BRANCH  19  20
HETATM   20  C           1     -21.335  -4.649  -8.556  0.00  0.00    -0.056 A 
HETATM   21  C           1     -21.103  -4.268  -9.877  0.00  0.00     0.010 A 
HETATM   22  C           1     -22.138  -3.722 -10.637  0.00  0.00     0.037 A 
HETATM   23  C           1     -23.404  -3.557 -10.075  0.00  0.00     0.065 A 
HETATM   24  C           1     -23.635  -3.938  -8.754  0.00  0.00     0.037 A 
HETATM   25  C           1     -22.600  -4.484  -7.993  0.00  0.00     0.010 A 
BRANCH  23  26
HETATM   26  O           1     -24.409  -3.026 -10.813  0.00  0.00    -0.361 OA
HETATM   27  H           1     -24.021  -2.378 -11.425  0.00  0.00     0.217 HD
ENDBRANCH  23  26
ENDBRANCH  19  20
ENDBRANCH   1  19
TORSDOF 10
ENDMDL
MODEL 5
REMARK VINA RESULT:      -6.5      1.858      3.768
REMARK  10 active torsions:
REMARK  status: ('A' for Active; 'I' for Inactive)
REMARK    1  A    between atoms: C_1  and  O_20 
REMARK    2  A    between atoms: C_3  and  C_9 
REMARK       I    between atoms: C_4  and  N_15 
REMARK    3  A    between atoms: C_4  and  C_22 
REMARK    4  A    between atoms: C_9  and  C_10 
REMARK    5  A    between atoms: C_10  and  C_18 
REMARK    6  A    between atoms: N_15  and  C_18 
REMARK    7  A    between atoms: C_18  and  C_23 
REMARK    8  A    between atoms: N_19  and  C_22 
REMARK    9  A    between atoms: C_22  and  C_26 
REMARK   10  A    between atoms: C_25  and  C_26 
ROOT
HETATM    1  C           1     -20.960  -5.388  -6.136  0.00  0.00     0.278 C 
ENDROOT
BRANCH   1   2
HETATM    2  C           1     -20.933  -6.815  -5.643  0.00  0.00     0.249 C 
HETATM    3  N           1     -20.544  -7.087  -4.358  0.00  0.00    -0.345 N 
HETATM    4  H           1     -20.275  -6.332  -3.740  0.00  0.00     0.163 HD
HETATM    5  O           1     -21.253  -7.715  -6.381  0.00  0.00    -0.271 OA
BRANCH   3   6
HETATM    6  C           1     -20.518  -8.457  -3.884  0.00  0.00     0.186 C 
BRANCH   6   7
HETATM    7  C           1     -19.075  -8.937  -3.796  0.00  0.00     0.046 C 
BRANCH   7   8
HETATM    8  C           1     -18.858 -10.078  -4.780  0.00  0.00     0.116 C 
BRANCH   8   9
HETATM    9  C           1     -17.804  -9.682  -5.786  0.00  0.00     0.172 C 
HETATM   10  O           1     -16.627 -10.075  -5.645  0.00  0.00    -0.648 OA
HETATM   11  O           1     -18.111  -8.960  -6.760  0.00  0.00    -0.648 OA
ENDBRANCH   8   9
ENDBRANCH   7   8
ENDBRANCH   6   7
BRANCH   6  12
HETATM   12  C           1     -21.156  -8.527  -2.519  0.00  0.00     0.196 C 
HETATM   13  O           1     -20.885  -7.662  -1.657  0.00  0.00    -0.646 OA
HETATM   14  O           1     -21.953  -9.451  -2.248  0.00  0.00    -0.646 OA
ENDBRANCH   6  12
ENDBRANCH   3   6
ENDBRANCH   1   2
BRANCH   1  15
HETATM   15  N           1     -20.069  -4.544  -5.273  0.00  0.00    -0.066 N 
HETATM   16  H           1     -19.232  -4.247  -5.822  0.00  0.00     0.275 HD
HETATM   17  H           1     -19.763  -5.100  -4.442  0.00  0.00     0.275 HD
HETATM   18  H           1     -20.594  -3.700  -4.952  0.00  0.00     0.275 HD
ENDBRANCH   1  15
BRANCH   1  19
HETATM   19  C           1     -20.465  -5.339  -7.576  0.00  0.00     0.081 C 
BRANCH  19  20
HETATM   20  C           1     -21.522  -4.734  -8.446  0.00  0.00    -0.056 A 
HETATM   21  C           1     -21.238  -4.427  -9.776  0.00  0.00     0.010 A 
HETATM   22  C           1     -22.224  -3.863 -10.587  0.00  0.00     0.037 A 
HETATM   23  C           1     -23.492  -3.606 -10.067  0.00  0.00     0.065 A 
HETATM   24  C           1     -23.775  -3.912  -8.736  0.00  0.00     0.037 A 
HETATM   25  C           1     -22.790  -4.476  -7.925  0.00  0.00     0.010 A 
BRANCH  23  26
HETATM   26  O           1     -24.449  -3.057 -10.854  0.00  0.00    -0.361 OA
HETATM   27  H           1     -25.083  -2.597 -10.279  0.00  0.00     0.217 HD
ENDBRANCH  23  26
ENDBRANCH  19  20
ENDBRANCH   1  19
TORSDOF 10
ENDMDL
MODEL 6
REMARK VINA RESULT:      -6.3      2.516      3.433
REMARK  10 active torsions:
REMARK  status: ('A' for Active; 'I' for Inactive)
REMARK    1  A    between atoms: C_1  and  O_20 
REMARK    2  A    between atoms: C_3  and  C_9 
REMARK       I    between atoms: C_4  and  N_15 
REMARK    3  A    between atoms: C_4  and  C_22 
REMARK    4  A    between atoms: C_9  and  C_10 
REMARK    5  A    between atoms: C_10  and  C_18 
REMARK    6  A    between atoms: N_15  and  C_18 
REMARK    7  A    between atoms: C_18  and  C_23 
REMARK    8  A    between atoms: N_19  and  C_22 
REMARK    9  A    between atoms: C_22  and  C_26 
REMARK   10  A    between atoms: C_25  and  C_26 
ROOT
HETATM    1  C           1     -21.338  -6.102  -5.433  0.00  0.00     0.278 C 
ENDROOT
BRANCH   1   2
HETATM    2  C           1     -20.372  -7.257  -5.535  0.00  0.00     0.249 C 
HETATM    3  N           1     -20.380  -8.242  -4.583  0.00  0.00    -0.345 N 
HETATM    4  H           1     -21.033  -8.195  -3.812  0.00  0.00     0.163 HD
HETATM    5  O           1     -19.592  -7.313  -6.455  0.00  0.00    -0.271 OA
BRANCH   3   6
HETATM    6  C           1     -19.453  -9.352  -4.681  0.00  0.00     0.186 C 
BRANCH   6   7
HETATM    7  C           1     -18.787  -9.579  -3.331  0.00  0.00     0.046 C 
BRANCH   7   8
HETATM    8  C           1     -17.276  -9.644  -3.513  0.00  0.00     0.116 C 
BRANCH   8   9
HETATM    9  C           1     -16.669 -10.456  -2.395  0.00  0.00     0.172 C 
HETATM   10  O           1     -15.436 -10.421  -2.196  0.00  0.00    -0.648 OA
HETATM   11  O           1     -17.400 -11.165  -1.669  0.00  0.00    -0.648 OA
ENDBRANCH   8   9
ENDBRANCH   7   8
ENDBRANCH   6   7
BRANCH   6  12
HETATM   12  C           1     -20.202 -10.597  -5.088  0.00  0.00     0.196 C 
HETATM   13  O           1     -20.700 -11.340  -4.214  0.00  0.00    -0.646 OA
HETATM   14  O           1     -20.324 -10.886  -6.298  0.00  0.00    -0.646 OA
ENDBRANCH   6  12
ENDBRANCH   3   6
ENDBRANCH   1   2
BRANCH   1  15
HETATM   15  N           1     -21.767  -5.935  -4.006  0.00  0.00    -0.066 N 
HETATM   16  H           1     -21.271  -6.634  -3.408  0.00  0.00     0.275 HD
HETATM   17  H           1     -22.799  -6.084  -3.933  0.00  0.00     0.275 HD
HETATM   18  H           1     -21.531  -4.970  -3.681  0.00  0.00     0.275 HD
ENDBRANCH   1  15
BRANCH   1  19
HETATM   19  C           1     -20.656  -4.826  -5.910  0.00  0.00     0.081 C 
BRANCH  19  20
HETATM   20  C           1     -21.155  -4.475  -7.277  0.00  0.00    -0.056 A 
HETATM   21  C           1     -22.520  -4.292  -7.495  0.00  0.00     0.010 A 
HETATM   22  C           1     -22.984  -3.964  -8.770  0.00  0.00     0.037 A 
HETATM   23  C           1     -22.083  -3.820  -9.825  0.00  0.00     0.065 A 
HETATM   24  C           1     -20.719  -4.004  -9.606  0.00  0.00     0.037 A 
HETATM   25  C           1     -20.253  -4.331  -8.332  0.00  0.00     0.010 A 
BRANCH  23  26
HETATM   26  O           1     -22.535  -3.503 -11.062  0.00  0.00    -0.361 OA
HETATM   27  H           1     -22.985  -2.644 -11.006  0.00  0.00     0.217 HD
ENDBRANCH  23  26
ENDBRANCH  19  20
ENDBRANCH   1  19
TORSDOF 10
ENDMDL
MODEL 7
REMARK VINA RESULT:      -6.3      2.142      3.944
REMARK  10 active torsions:
REMARK  status: ('A' for Active; 'I' for Inactive)
REMARK    1  A    between atoms: C_1  and  O_20 
REMARK    2  A    between atoms: C_3  and  C_9 
REMARK       I    between atoms: C_4  and  N_15 
REMARK    3  A    between atoms: C_4  and  C_22 
REMARK    4  A    between atoms: C_9  and  C_10 
REMARK    5  A    between atoms: C_10  and  C_18 
REMARK    6  A    between atoms: N_15  and  C_18 
REMARK    7  A    between atoms: C_18  and  C_23 
REMARK    8  A    between atoms: N_19  and  C_22 
REMARK    9  A    between atoms: C_22  and  C_26 
REMARK   10  A    between atoms: C_25  and  C_26 
ROOT
HETATM    1  C           1     -21.573  -6.617  -5.441  0.00  0.00     0.278 C 
ENDROOT
BRANCH   1   2
HETATM    2  C           1     -20.976  -7.968  -5.129  0.00  0.00     0.249 C 
HETATM    3  N           1     -20.245  -8.145  -3.984  0.00  0.00    -0.345 N 
HETATM    4  H           1     -20.106  -7.370  -3.347  0.00  0.00     0.163 HD
HETATM    5  O           1     -21.142  -8.891  -5.888  0.00  0.00    -0.271 OA
BRANCH   3   6
HETATM    6  C           1     -19.672  -9.442  -3.683  0.00  0.00     0.186 C 
BRANCH   6   7
HETATM    7  C           1     -18.157  -9.370  -3.813  0.00  0.00     0.046 C 
BRANCH   7   8
HETATM    8  C           1     -17.670 -10.496  -4.717  0.00  0.00     0.116 C 
BRANCH   8   9
HETATM    9  C           1     -18.032 -10.184  -6.148  0.00  0.00     0.172 C 
HETATM   10  O           1     -18.519 -11.074  -6.878  0.00  0.00    -0.648 OA
HETATM   11  O           1     -17.843  -9.036  -6.605  0.00  0.00    -0.648 OA
ENDBRANCH   8   9
ENDBRANCH   7   8
ENDBRANCH   6   7
BRANCH   6  12
HETATM   12  C           1     -20.038  -9.838  -2.274  0.00  0.00     0.196 C 
HETATM   13  O           1     -20.763  -9.088  -1.583  0.00  0.00    -0.646 OA
HETATM   14  O           1     -19.615 -10.913  -1.797  0.00  0.00    -0.646 OA
ENDBRANCH   6  12
ENDBRANCH   3   6
ENDBRANCH   1   2
BRANCH   1  15
HETATM   15  N           1     -22.122  -6.011  -4.183  0.00  0.00    -0.066 N 
HETATM   16  H           1     -21.760  -6.537  -3.356  0.00  0.00     0.275 HD
HETATM   17  H           1     -23.166  -6.061  -4.199  0.00  0.00     0.275 HD
HETATM   18  H           1     -21.823  -5.012  -4.118  0.00  0.00     0.275 HD
ENDBRANCH   1  15
BRANCH   1  19
HETATM   19  C           1     -20.495  -5.706  -6.014  0.00  0.00     0.081 C 
BRANCH  19  20
HETATM   20  C           1     -20.994  -5.079  -7.279  0.00  0.00    -0.056 A 
HETATM   21  C           1     -20.162  -5.004  -8.395  0.00  0.00     0.010 A 
HETATM   22  C           1     -20.627  -4.418  -9.574  0.00  0.00     0.037 A 
HETATM   23  C           1     -21.924  -3.909  -9.635  0.00  0.00     0.065 A 
HETATM   24  C           1     -22.755  -3.984  -8.518  0.00  0.00     0.037 A 
HETATM   25  C           1     -22.291  -4.569  -7.339  0.00  0.00     0.010 A 
BRANCH  23  26
HETATM   26  O           1     -22.375  -3.341 -10.779  0.00  0.00    -0.361 OA
HETATM   27  H           1     -21.793  -3.623 -11.504  0.00  0.00     0.217 HD
ENDBRANCH  23  26
ENDBRANCH  19  20
ENDBRANCH   1  19
TORSDOF 10
ENDMDL
MODEL 8
REMARK VINA RESULT:      -5.9      1.841      2.527
REMARK  10 active torsions:
REMARK  status: ('A' for Active; 'I' for Inactive)
REMARK    1  A    between atoms: C_1  and  O_20 
REMARK    2  A    between atoms: C_3  and  C_9 
REMARK       I    between atoms: C_4  and  N_15 
REMARK    3  A    between atoms: C_4  and  C_22 
REMARK    4  A    between atoms: C_9  and  C_10 
REMARK    5  A    between atoms: C_10  and  C_18 
REMARK    6  A    between atoms: N_15  and  C_18 
REMARK    7  A    between atoms: C_18  and  C_23 
REMARK    8  A    between atoms: N_19  and  C_22 
REMARK    9  A    between atoms: C_22  and  C_26 
REMARK   10  A    between atoms: C_25  and  C_26 
ROOT
HETATM    1  C           1     -21.719  -6.597  -5.653  0.00  0.00     0.278 C 
ENDROOT
BRANCH   1   2
HETATM    2  C           1     -20.936  -7.798  -5.182  0.00  0.00     0.249 C 
HETATM    3  N           1     -21.596  -8.927  -4.773  0.00  0.00    -0.345 N 
HETATM    4  H           1     -22.608  -8.954  -4.786  0.00  0.00     0.163 HD
HETATM    5  O           1     -19.730  -7.764  -5.165  0.00  0.00    -0.271 OA
BRANCH   3   6
HETATM    6  C           1     -20.845 -10.081  -4.320  0.00  0.00     0.186 C 
BRANCH   6   7
HETATM    7  C           1     -21.480 -10.635  -3.052  0.00  0.00     0.046 C 
BRANCH   7   8
HETATM    8  C           1     -20.692 -10.159  -1.839  0.00  0.00     0.116 C 
BRANCH   8   9
HETATM    9  C           1     -20.935  -8.684  -1.628  0.00  0.00     0.172 C 
HETATM   10  O           1     -19.970  -7.893  -1.578  0.00  0.00    -0.648 OA
HETATM   11  O           1     -22.103  -8.255  -1.503  0.00  0.00    -0.648 OA
ENDBRANCH   8   9
ENDBRANCH   7   8
ENDBRANCH   6   7
BRANCH   6  12
HETATM   12  C           1     -20.859 -11.141  -5.394  0.00  0.00     0.196 C 
HETATM   13  O           1     -21.238 -10.853  -6.551  0.00  0.00    -0.646 OA
HETATM   14  O           1     -20.494 -12.306  -5.128  0.00  0.00    -0.646 OA
ENDBRANCH   6  12
ENDBRANCH   3   6
ENDBRANCH   1   2
BRANCH   1  15
HETATM   15  N           1     -22.684  -6.178  -4.584  0.00  0.00    -0.066 N 
HETATM   16  H           1     -22.988  -7.018  -4.041  0.00  0.00     0.275 HD
HETATM   17  H           1     -23.517  -5.726  -5.024  0.00  0.00     0.275 HD
HETATM   18  H           1     -22.219  -5.498  -3.941  0.00  0.00     0.275 HD
ENDBRANCH   1  15
BRANCH   1  19
HETATM   19  C           1     -20.760  -5.450  -5.947  0.00  0.00     0.081 C 
BRANCH  19  20
HETATM   20  C           1     -21.047  -4.896  -7.308  0.00  0.00    -0.056 A 
HETATM   21  C           1     -20.095  -5.006  -8.321  0.00  0.00     0.010 A 
HETATM   22  C           1     -20.364  -4.489  -9.590  0.00  0.00     0.037 A 
HETATM   23  C           1     -21.584  -3.864  -9.844  0.00  0.00     0.065 A 
HETATM   24  C           1     -22.535  -3.753  -8.830  0.00  0.00     0.037 A 
HETATM   25  C           1     -22.268  -4.270  -7.562  0.00  0.00     0.010 A 
BRANCH  23  26
HETATM   26  O           1     -21.844  -3.361 -11.075  0.00  0.00    -0.361 OA
HETATM   27  H           1     -21.220  -3.765 -11.701  0.00  0.00     0.217 HD
ENDBRANCH  23  26
ENDBRANCH  19  20
ENDBRANCH   1  19
TORSDOF 10
ENDMDL
MODEL 9
REMARK VINA RESULT:      -5.8     13.081     15.973
REMARK  10 active torsions:
REMARK  status: ('A' for Active; 'I' for Inactive)
REMARK    1  A    between atoms: C_1  and  O_20 
REMARK    2  A    between atoms: C_3  and  C_9 
REMARK       I    between atoms: C_4  and  N_15 
REMARK    3  A    between atoms: C_4  and  C_22 
REMARK    4  A    between atoms: C_9  and  C_10 
REMARK    5  A    between atoms: C_10  and  C_18 
REMARK    6  A    between atoms: N_15  and  C_18 
REMARK    7  A    between atoms: C_18  and  C_23 
REMARK    8  A    between atoms: N_19  and  C_22 
REMARK    9  A    between atoms: C_22  and  C_26 
REMARK   10  A    between atoms: C_25  and  C_26 
ROOT
HETATM    1  C           1     -31.336  -4.259 -17.374  0.00  0.00     0.278 C 
ENDROOT
BRANCH   1   2
HETATM    2  C           1     -32.770  -4.208 -16.907  0.00  0.00     0.249 C 
HETATM    3  N           1     -33.279  -5.228 -16.147  0.00  0.00    -0.345 N 
HETATM    4  H           1     -32.693  -6.015 -15.899  0.00  0.00     0.163 HD
HETATM    5  O           1     -33.468  -3.269 -17.203  0.00  0.00    -0.271 OA
BRANCH   3   6
HETATM    6  C           1     -34.656  -5.179 -15.697  0.00  0.00     0.186 C 
BRANCH   6   7
HETATM    7  C           1     -35.216  -6.592 -15.621  0.00  0.00     0.046 C 
BRANCH   7   8
HETATM    8  C           1     -36.622  -6.615 -16.206  0.00  0.00     0.116 C 
BRANCH   8   9
HETATM    9  C           1     -36.991  -8.031 -16.575  0.00  0.00     0.172 C 
HETATM   10  O           1     -36.596  -8.519 -17.655  0.00  0.00    -0.648 OA
HETATM   11  O           1     -37.693  -8.716 -15.799  0.00  0.00    -0.648 OA
ENDBRANCH   8   9
ENDBRANCH   7   8
ENDBRANCH   6   7
BRANCH   6  12
HETATM   12  C           1     -34.715  -4.539 -14.332  0.00  0.00     0.196 C 
HETATM   13  O           1     -35.067  -5.215 -13.340  0.00  0.00    -0.646 OA
HETATM   14  O           1     -34.414  -3.335 -14.192  0.00  0.00    -0.646 OA
ENDBRANCH   6  12
ENDBRANCH   3   6
ENDBRANCH   1   2
BRANCH   1  15
HETATM   15  N           1     -30.847  -2.866 -17.640  0.00  0.00    -0.066 N 
HETATM   16  H           1     -30.757  -2.350 -16.735  0.00  0.00     0.275 HD
HETATM   17  H           1     -31.529  -2.370 -18.258  0.00  0.00     0.275 HD
HETATM   18  H           1     -29.916  -2.907 -18.112  0.00  0.00     0.275 HD
ENDBRANCH   1  15
BRANCH   1  19
HETATM   19  C           1     -30.473  -4.902 -16.296  0.00  0.00     0.081 C 
BRANCH  19  20
HETATM   20  C           1     -29.182  -5.361 -16.899  0.00  0.00    -0.056 A 
HETATM   21  C           1     -28.035  -5.445 -16.110  0.00  0.00     0.010 A 
HETATM   22  C           1     -26.831  -5.873 -16.673  0.00  0.00     0.037 A 
HETATM   23  C           1     -26.777  -6.218 -18.023  0.00  0.00     0.065 A 
HETATM   24  C           1     -27.924  -6.134 -18.811  0.00  0.00     0.037 A 
HETATM   25  C           1     -29.127  -5.706 -18.249  0.00  0.00     0.010 A 
BRANCH  23  26
HETATM   26  O           1     -25.608  -6.634 -18.570  0.00  0.00    -0.361 OA
HETATM   27  H           1     -25.313  -5.954 -19.198  0.00  0.00     0.217 HD
ENDBRANCH  23  26
ENDBRANCH  19  20
ENDBRANCH   1  19
TORSDOF 10
ENDMDL
