MODEL 1
REMARK VINA RESULT:      -6.5      0.000      0.000
REMARK  7 active torsions:
REMARK  status: ('A' for Active; 'I' for Inactive)
REMARK       I    between atoms: N_4  and  C_5 
REMARK       I    between atoms: C_5  and  N_6 
REMARK    1  A    between atoms: N_7  and  C_8 
REMARK    2  A    between atoms: C_8  and  C_9 
REMARK    3  A    between atoms: C_9  and  C_10 
REMARK    4  A    between atoms: C_10  and  C_11 
REMARK    5  A    between atoms: C_11  and  C_12 
REMARK    6  A    between atoms: C_11  and  N_15 
REMARK       I    between atoms: N_15  and  C_16 
REMARK    7  A    between atoms: C_16  and  C_17 
ROOT
HETATM    1  C           1     -35.188  -0.887 -11.716  0.00  0.00     0.185 C 
ENDROOT
BRANCH   1   2
HETATM    2  C           1     -35.957   0.089 -12.598  0.00  0.00     0.038 C 
BRANCH   2   3
HETATM    3  C           1     -34.987   0.811 -13.524  0.00  0.00     0.023 C 
BRANCH   3   4
HETATM    4  C           1     -35.433   0.627 -14.968  0.00  0.00     0.138 C 
BRANCH   4   5
HETATM    5  N           1     -34.866  -0.621 -15.501  0.00  0.00    -0.227 N 
HETATM    6  C           1     -35.408  -1.189 -16.494  0.00  0.00     0.665 C 
HETATM    7  N           1     -34.907  -2.292 -16.965  0.00  0.00    -0.235 N 
HETATM    8  N           1     -36.439  -0.683 -17.028  0.00  0.00    -0.235 N 
HETATM    9  H           1     -34.056  -2.710 -16.524  0.00  0.00     0.174 HD
HETATM   10  H           1     -35.354  -2.761 -17.785  0.00  0.00     0.174 HD
HETATM   11  H           1     -36.843   0.208 -16.648  0.00  0.00     0.174 HD
HETATM   12  H           1     -36.888  -1.154 -17.852  0.00  0.00     0.174 HD
HETATM   13  H           1     -34.012  -1.041 -15.058  0.00  0.00     0.177 HD
ENDBRANCH   4   5
ENDBRANCH   3   4
ENDBRANCH   2   3
ENDBRANCH   1   2
BRANCH   1  14
HETATM   14  C           1     -36.078  -1.360 -10.593  0.00  0.00     0.196 C 
HETATM   15  O           1     -36.754  -2.403 -10.729  0.00  0.00    -0.646 OA
HETATM   16  O           1     -36.139  -0.710  -9.527  0.00  0.00    -0.646 OA
ENDBRANCH   1  14
BRANCH   1  17
HETATM   17  N           1     -34.765  -2.024 -12.509  0.00  0.00    -0.345 N 
HETATM   18  C           1     -33.749  -2.827 -12.065  0.00  0.00     0.249 C 
HETATM   19  O           1     -33.206  -2.589 -11.013  0.00  0.00    -0.271 OA
HETATM   20  H           1     -35.220  -2.223 -13.390  0.00  0.00     0.163 HD
BRANCH  18  21
HETATM   21  C           1     -33.308  -4.012 -12.890  0.00  0.00     0.274 C 
HETATM   22  C           1     -34.511  -4.897 -13.191  0.00  0.00     0.042 C 
HETATM   23  C           1     -35.121  -5.387 -11.886  0.00  0.00     0.003 C 
HETATM   24 Se           1     -33.794  -6.413 -10.892  0.00  0.00     0.000 Se
HETATM   25  C           1     -34.977  -6.801  -9.393  0.00  0.00     0.000 C 
HETATM   26  H           1     -32.706  -5.137 -11.229  0.00  0.00     0.275 HD
HETATM   27  N           1     -32.287  -4.801 -12.125  0.00  0.00    -0.067 N 
HETATM   28  H           1     -31.981  -5.622 -12.696  0.00  0.00     0.275 HD
HETATM   29  H           1     -31.462  -4.193 -11.918  0.00  0.00     0.275 HD
ENDBRANCH  18  21
ENDBRANCH   1  17
TORSDOF 7
ENDMDL
MODEL 2
REMARK VINA RESULT:      -6.4      3.134      6.790
REMARK  7 active torsions:
REMARK  status: ('A' for Active; 'I' for Inactive)
REMARK       I    between atoms: N_4  and  C_5 
REMARK       I    between atoms: C_5  and  N_6 
REMARK    1  A    between atoms: N_7  and  C_8 
REMARK    2  A    between atoms: C_8  and  C_9 
REMARK    3  A    between atoms: C_9  and  C_10 
REMARK    4  A    between atoms: C_10  and  C_11 
REMARK    5  A    between atoms: C_11  and  C_12 
REMARK    6  A    between atoms: C_11  and  N_15 
REMARK       I    between atoms: N_15  and  C_16 
REMARK    7  A    between atoms: C_16  and  C_17 
ROOT
HETATM    1  C           1     -33.991  -3.396 -12.247  0.00  0.00     0.185 C 
ENDROOT
BRANCH   1   2
HETATM    2  C           1     -34.671  -4.002 -11.026  0.00  0.00     0.038 C 
BRANCH   2   3
HETATM    3  C           1     -33.823  -5.147 -10.487  0.00  0.00     0.023 C 
BRANCH   3   4
HETATM    4  C           1     -34.715  -6.348 -10.203  0.00  0.00     0.138 C 
BRANCH   4   5
HETATM    5  N           1     -34.109  -7.556 -10.782  0.00  0.00    -0.227 N 
HETATM    6  C           1     -33.976  -8.598 -10.076  0.00  0.00     0.665 C 
HETATM    7  N           1     -33.440  -9.666 -10.587  0.00  0.00    -0.235 N 
HETATM    8  N           1     -34.366  -8.600  -8.870  0.00  0.00    -0.235 N 
HETATM    9  H           1     -33.118  -9.665 -11.582  0.00  0.00     0.174 HD
HETATM   10  H           1     -33.330 -10.527 -10.004  0.00  0.00     0.174 HD
HETATM   11  H           1     -34.799  -7.737  -8.457  0.00  0.00     0.174 HD
HETATM   12  H           1     -34.256  -9.464  -8.285  0.00  0.00     0.174 HD
HETATM   13  H           1     -33.785  -7.554 -11.780  0.00  0.00     0.177 HD
ENDBRANCH   4   5
ENDBRANCH   3   4
ENDBRANCH   2   3
ENDBRANCH   1   2
BRANCH   1  14
HETATM   14  C           1     -34.453  -4.116 -13.489  0.00  0.00     0.196 C 
HETATM   15  O           1     -34.210  -3.635 -14.618  0.00  0.00    -0.646 OA
HETATM   16  O           1     -35.079  -5.193 -13.392  0.00  0.00    -0.646 OA
ENDBRANCH   1  14
BRANCH   1  17
HETATM   17  N           1     -34.337  -1.992 -12.345  0.00  0.00    -0.345 N 
HETATM   18  C           1     -35.517  -1.540 -11.817  0.00  0.00     0.249 C 
HETATM   19  O           1     -36.270  -2.310 -11.270  0.00  0.00    -0.271 OA
HETATM   20  H           1     -33.707  -1.346 -12.802  0.00  0.00     0.163 HD
BRANCH  18  21
HETATM   21  C           1     -35.878  -0.077 -11.918  0.00  0.00     0.274 C 
HETATM   22  C           1     -37.228   0.066 -12.608  0.00  0.00     0.042 C 
HETATM   23  C           1     -37.153  -0.536 -14.005  0.00  0.00     0.003 C 
HETATM   24 Se           1     -35.792   0.398 -15.043  0.00  0.00     0.000 Se
HETATM   25  C           1     -36.056  -0.667 -16.653  0.00  0.00     0.000 C 
HETATM   26  H           1     -34.778   0.227 -13.675  0.00  0.00     0.275 HD
HETATM   27  N           1     -34.830   0.641 -12.718  0.00  0.00    -0.067 N 
HETATM   28  H           1     -35.079   1.653 -12.788  0.00  0.00     0.275 HD
HETATM   29  H           1     -33.903   0.542 -12.244  0.00  0.00     0.275 HD
ENDBRANCH  18  21
ENDBRANCH   1  17
TORSDOF 7
ENDMDL
MODEL 3
REMARK VINA RESULT:      -6.3     14.244     16.429
REMARK  7 active torsions:
REMARK  status: ('A' for Active; 'I' for Inactive)
REMARK       I    between atoms: N_4  and  C_5 
REMARK       I    between atoms: C_5  and  N_6 
REMARK    1  A    between atoms: N_7  and  C_8 
REMARK    2  A    between atoms: C_8  and  C_9 
REMARK    3  A    between atoms: C_9  and  C_10 
REMARK    4  A    between atoms: C_10  and  C_11 
REMARK    5  A    between atoms: C_11  and  C_12 
REMARK    6  A    between atoms: C_11  and  N_15 
REMARK       I    between atoms: N_15  and  C_16 
REMARK    7  A    between atoms: C_16  and  C_17 
ROOT
HETATM    1  C           1     -20.563  -6.790  -5.378  0.00  0.00     0.185 C 
ENDROOT
BRANCH   1   2
HETATM    2  C           1     -20.386  -6.124  -6.736  0.00  0.00     0.038 C 
BRANCH   2   3
HETATM    3  C           1     -19.914  -4.689  -6.541  0.00  0.00     0.023 C 
BRANCH   3   4
HETATM    4  C           1     -20.553  -3.796  -7.596  0.00  0.00     0.138 C 
BRANCH   4   5
HETATM    5  N           1     -22.013  -3.804  -7.426  0.00  0.00    -0.227 N 
HETATM    6  C           1     -22.767  -3.963  -8.430  0.00  0.00     0.665 C 
HETATM    7  N           1     -24.058  -3.969  -8.279  0.00  0.00    -0.235 N 
HETATM    8  N           1     -22.263  -4.116  -9.582  0.00  0.00    -0.235 N 
HETATM    9  H           1     -24.474  -3.843  -7.328  0.00  0.00     0.174 HD
HETATM   10  H           1     -24.681  -4.101  -9.108  0.00  0.00     0.174 HD
HETATM   11  H           1     -21.220  -4.111  -9.704  0.00  0.00     0.174 HD
HETATM   12  H           1     -22.889  -4.248 -10.415  0.00  0.00     0.174 HD
HETATM   13  H           1     -22.430  -3.677  -6.471  0.00  0.00     0.177 HD
ENDBRANCH   4   5
ENDBRANCH   3   4
ENDBRANCH   2   3
ENDBRANCH   1   2
BRANCH   1  14
HETATM   14  C           1     -21.774  -6.215  -4.688  0.00  0.00     0.196 C 
HETATM   15  O           1     -21.736  -5.964  -3.463  0.00  0.00    -0.646 OA
HETATM   16  O           1     -22.816  -5.987  -5.340  0.00  0.00    -0.646 OA
ENDBRANCH   1  14
BRANCH   1  17
HETATM   17  N           1     -20.743  -8.217  -5.561  0.00  0.00    -0.345 N 
HETATM   18  C           1     -20.082  -9.100  -4.750  0.00  0.00     0.249 C 
HETATM   19  O           1     -19.348  -8.691  -3.883  0.00  0.00    -0.271 OA
HETATM   20  H           1     -21.359  -8.560  -6.288  0.00  0.00     0.163 HD
BRANCH  18  21
HETATM   21  C           1     -20.270 -10.586  -4.940  0.00  0.00     0.274 C 
HETATM   22  C           1     -21.727 -10.949  -4.684  0.00  0.00     0.042 C 
HETATM   23  C           1     -22.104 -10.568  -3.259  0.00  0.00     0.003 C 
HETATM   24 Se           1     -20.965 -11.533  -2.005  0.00  0.00     0.000 Se
HETATM   25  C           1     -21.781 -10.758  -0.415  0.00  0.00     0.000 C 
HETATM   26  H           1     -19.652 -11.065  -2.997  0.00  0.00     0.275 HD
HETATM   27  N           1     -19.394 -11.327  -3.975  0.00  0.00    -0.067 N 
HETATM   28  H           1     -19.523 -12.356  -4.105  0.00  0.00     0.275 HD
HETATM   29  H           1     -18.394 -11.077  -4.150  0.00  0.00     0.275 HD
ENDBRANCH  18  21
ENDBRANCH   1  17
TORSDOF 7
ENDMDL
MODEL 4
REMARK VINA RESULT:      -6.2     14.381     16.578
REMARK  7 active torsions:
REMARK  status: ('A' for Active; 'I' for Inactive)
REMARK       I    between atoms: N_4  and  C_5 
REMARK       I    between atoms: C_5  and  N_6 
REMARK    1  A    between atoms: N_7  and  C_8 
REMARK    2  A    between atoms: C_8  and  C_9 
REMARK    3  A    between atoms: C_9  and  C_10 
REMARK    4  A    between atoms: C_10  and  C_11 
REMARK    5  A    between atoms: C_11  and  C_12 
REMARK    6  A    between atoms: C_11  and  N_15 
REMARK       I    between atoms: N_15  and  C_16 
REMARK    7  A    between atoms: C_16  and  C_17 
ROOT
HETATM    1  C           1     -20.701  -6.981  -5.258  0.00  0.00     0.185 C 
ENDROOT
BRANCH   1   2
HETATM    2  C           1     -20.280  -6.233  -6.516  0.00  0.00     0.038 C 
BRANCH   2   3
HETATM    3  C           1     -20.083  -4.759  -6.191  0.00  0.00     0.023 C 
BRANCH   3   4
HETATM    4  C           1     -20.558  -3.912  -7.363  0.00  0.00     0.138 C 
BRANCH   4   5
HETATM    5  N           1     -22.020  -3.771  -7.307  0.00  0.00    -0.227 N 
HETATM    6  C           1     -22.726  -4.100  -8.304  0.00  0.00     0.665 C 
HETATM    7  N           1     -24.020  -3.976  -8.254  0.00  0.00    -0.235 N 
HETATM    8  N           1     -22.174  -4.551  -9.351  0.00  0.00    -0.235 N 
HETATM    9  H           1     -24.476  -3.605  -7.390  0.00  0.00     0.174 HD
HETATM   10  H           1     -24.603  -4.248  -9.077  0.00  0.00     0.174 HD
HETATM   11  H           1     -21.130  -4.651  -9.391  0.00  0.00     0.174 HD
HETATM   12  H           1     -22.760  -4.823 -10.178  0.00  0.00     0.174 HD
HETATM   13  H           1     -22.478  -3.398  -6.439  0.00  0.00     0.177 HD
ENDBRANCH   4   5
ENDBRANCH   3   4
ENDBRANCH   2   3
ENDBRANCH   1   2
BRANCH   1  14
HETATM   14  C           1     -21.907  -6.307  -4.652  0.00  0.00     0.196 C 
HETATM   15  O           1     -22.915  -6.078  -5.356  0.00  0.00    -0.646 OA
HETATM   16  O           1     -21.900  -5.978  -3.446  0.00  0.00    -0.646 OA
ENDBRANCH   1  14
BRANCH   1  17
HETATM   17  N           1     -21.034  -8.350  -5.600  0.00  0.00    -0.345 N 
HETATM   18  C           1     -20.957  -9.330  -4.647  0.00  0.00     0.249 C 
HETATM   19  O           1     -20.613  -9.055  -3.522  0.00  0.00    -0.271 OA
HETATM   20  H           1     -21.323  -8.581  -6.542  0.00  0.00     0.163 HD
BRANCH  18  21
HETATM   21  C           1     -21.304 -10.756  -5.002  0.00  0.00     0.274 C 
HETATM   22  C           1     -20.453 -11.707  -4.171  0.00  0.00     0.042 C 
HETATM   23  C           1     -18.980 -11.457  -4.460  0.00  0.00     0.003 C 
HETATM   24 Se           1     -18.627 -11.758  -6.353  0.00  0.00     0.000 Se
HETATM   25  C           1     -16.728 -11.338  -6.235  0.00  0.00     0.000 C 
HETATM   26  H           1     -20.021 -10.815  -6.657  0.00  0.00     0.275 HD
HETATM   27  N           1     -21.032 -10.987  -6.459  0.00  0.00    -0.067 N 
HETATM   28  H           1     -21.272 -11.974  -6.706  0.00  0.00     0.275 HD
HETATM   29  H           1     -21.616 -10.334  -7.030  0.00  0.00     0.275 HD
ENDBRANCH  18  21
ENDBRANCH   1  17
TORSDOF 7
ENDMDL
MODEL 5
REMARK VINA RESULT:      -6.1      2.728      6.338
REMARK  7 active torsions:
REMARK  status: ('A' for Active; 'I' for Inactive)
REMARK       I    between atoms: N_4  and  C_5 
REMARK       I    between atoms: C_5  and  N_6 
REMARK    1  A    between atoms: N_7  and  C_8 
REMARK    2  A    between atoms: C_8  and  C_9 
REMARK    3  A    between atoms: C_9  and  C_10 
REMARK    4  A    between atoms: C_10  and  C_11 
REMARK    5  A    between atoms: C_11  and  C_12 
REMARK    6  A    between atoms: C_11  and  N_15 
REMARK       I    between atoms: N_15  and  C_16 
REMARK    7  A    between atoms: C_16  and  C_17 
ROOT
HETATM    1  C           1     -34.698  -2.781 -11.813  0.00  0.00     0.185 C 
ENDROOT
BRANCH   1   2
HETATM    2  C           1     -34.308  -3.877 -12.797  0.00  0.00     0.038 C 
BRANCH   2   3
HETATM    3  C           1     -34.937  -5.195 -12.368  0.00  0.00     0.023 C 
BRANCH   3   4
HETATM    4  C           1     -34.499  -5.528 -10.948  0.00  0.00     0.138 C 
BRANCH   4   5
HETATM    5  N           1     -33.779  -6.809 -10.945  0.00  0.00    -0.227 N 
HETATM    6  C           1     -34.201  -7.771 -10.237  0.00  0.00     0.665 C 
HETATM    7  N           1     -33.564  -8.904 -10.235  0.00  0.00    -0.235 N 
HETATM    8  N           1     -35.243  -7.628  -9.532  0.00  0.00    -0.235 N 
HETATM    9  H           1     -32.703  -9.022 -10.816  0.00  0.00     0.174 HD
HETATM   10  H           1     -33.912  -9.698  -9.650  0.00  0.00     0.174 HD
HETATM   11  H           1     -35.757  -6.713  -9.534  0.00  0.00     0.174 HD
HETATM   12  H           1     -35.592  -8.426  -8.945  0.00  0.00     0.174 HD
HETATM   13  H           1     -32.915  -6.928 -11.529  0.00  0.00     0.177 HD
ENDBRANCH   4   5
ENDBRANCH   3   4
ENDBRANCH   2   3
ENDBRANCH   1   2
BRANCH   1  14
HETATM   14  C           1     -33.540  -2.497 -10.891  0.00  0.00     0.196 C 
HETATM   15  O           1     -32.405  -2.953 -11.152  0.00  0.00    -0.646 OA
HETATM   16  O           1     -33.713  -1.804  -9.864  0.00  0.00    -0.646 OA
ENDBRANCH   1  14
BRANCH   1  17
HETATM   17  N           1     -35.042  -1.577 -12.544  0.00  0.00    -0.345 N 
HETATM   18  C           1     -36.213  -0.923 -12.272  0.00  0.00     0.249 C 
HETATM   19  O           1     -36.961  -1.349 -11.424  0.00  0.00    -0.271 OA
HETATM   20  H           1     -34.415  -1.220 -13.253  0.00  0.00     0.163 HD
BRANCH  18  21
HETATM   21  C           1     -36.571   0.332 -13.032  0.00  0.00     0.274 C 
HETATM   22  C           1     -37.627   0.007 -14.079  0.00  0.00     0.042 C 
HETATM   23  C           1     -37.082  -1.034 -15.047  0.00  0.00     0.003 C 
HETATM   24 Se           1     -35.490  -0.332 -15.927  0.00  0.00     0.000 Se
HETATM   25  C           1     -35.179  -1.929 -17.000  0.00  0.00     0.000 C 
HETATM   26  H           1     -34.971   0.156 -14.372  0.00  0.00     0.275 HD
HETATM   27  N           1     -35.346   0.871 -13.709  0.00  0.00    -0.067 N 
HETATM   28  H           1     -35.592   1.740 -14.235  0.00  0.00     0.275 HD
HETATM   29  H           1     -34.620   1.093 -12.989  0.00  0.00     0.275 HD
ENDBRANCH  18  21
ENDBRANCH   1  17
TORSDOF 7
ENDMDL
MODEL 6
REMARK VINA RESULT:      -5.8      2.815      5.051
REMARK  7 active torsions:
REMARK  status: ('A' for Active; 'I' for Inactive)
REMARK       I    between atoms: N_4  and  C_5 
REMARK       I    between atoms: C_5  and  N_6 
REMARK    1  A    between atoms: N_7  and  C_8 
REMARK    2  A    between atoms: C_8  and  C_9 
REMARK    3  A    between atoms: C_9  and  C_10 
REMARK    4  A    between atoms: C_10  and  C_11 
REMARK    5  A    between atoms: C_11  and  C_12 
REMARK    6  A    between atoms: C_11  and  N_15 
REMARK       I    between atoms: N_15  and  C_16 
REMARK    7  A    between atoms: C_16  and  C_17 
ROOT
HETATM    1  C           1     -34.743  -3.874 -12.089  0.00  0.00     0.185 C 
ENDROOT
BRANCH   1   2
HETATM    2  C           1     -34.745  -4.532 -13.462  0.00  0.00     0.038 C 
BRANCH   2   3
HETATM    3  C           1     -34.016  -3.638 -14.456  0.00  0.00     0.023 C 
BRANCH   3   4
HETATM    4  C           1     -33.967  -4.325 -15.815  0.00  0.00     0.138 C 
BRANCH   4   5
HETATM    5  N           1     -32.585  -4.733 -16.108  0.00  0.00    -0.227 N 
HETATM    6  C           1     -31.909  -4.103 -16.973  0.00  0.00     0.665 C 
HETATM    7  N           1     -30.688  -4.464 -17.233  0.00  0.00    -0.235 N 
HETATM    8  N           1     -32.423  -3.121 -17.586  0.00  0.00    -0.235 N 
HETATM    9  H           1     -30.263  -5.274 -16.727  0.00  0.00     0.174 HD
HETATM   10  H           1     -30.129  -3.944 -17.947  0.00  0.00     0.174 HD
HETATM   11  H           1     -33.410  -2.830 -17.377  0.00  0.00     0.174 HD
HETATM   12  H           1     -31.863  -2.599 -18.304  0.00  0.00     0.174 HD
HETATM   13  H           1     -32.159  -5.546 -15.600  0.00  0.00     0.177 HD
ENDBRANCH   4   5
ENDBRANCH   3   4
ENDBRANCH   2   3
ENDBRANCH   1   2
BRANCH   1  14
HETATM   14  C           1     -33.458  -4.206 -11.373  0.00  0.00     0.196 C 
HETATM   15  O           1     -33.261  -5.365 -10.946  0.00  0.00    -0.646 OA
HETATM   16  O           1     -32.588  -3.323 -11.206  0.00  0.00    -0.646 OA
ENDBRANCH   1  14
BRANCH   1  17
HETATM   17  N           1     -34.853  -2.436 -12.243  0.00  0.00    -0.345 N 
HETATM   18  C           1     -35.830  -1.750 -11.574  0.00  0.00     0.249 C 
HETATM   19  O           1     -36.601  -2.340 -10.855  0.00  0.00    -0.271 OA
HETATM   20  H           1     -34.207  -1.941 -12.844  0.00  0.00     0.163 HD
BRANCH  18  21
HETATM   21  C           1     -35.944  -0.253 -11.733  0.00  0.00     0.274 C 
HETATM   22  C           1     -37.194   0.078 -12.537  0.00  0.00     0.042 C 
HETATM   23  C           1     -37.103  -0.573 -13.911  0.00  0.00     0.003 C 
HETATM   24 Se           1     -35.532   0.102 -14.847  0.00  0.00     0.000 Se
HETATM   25  C           1     -35.831  -0.960 -16.453  0.00  0.00     0.000 C 
HETATM   26  H           1     -34.672  -0.182 -13.396  0.00  0.00     0.275 HD
HETATM   27  N           1     -34.735   0.266 -12.454  0.00  0.00    -0.067 N 
HETATM   28  H           1     -34.813   1.302 -12.565  0.00  0.00     0.275 HD
HETATM   29  H           1     -33.877   0.038 -11.902  0.00  0.00     0.275 HD
ENDBRANCH  18  21
ENDBRANCH   1  17
TORSDOF 7
ENDMDL
MODEL 7
REMARK VINA RESULT:      -5.7     16.736     18.774
REMARK  7 active torsions:
REMARK  status: ('A' for Active; 'I' for Inactive)
REMARK       I    between atoms: N_4  and  C_5 
REMARK       I    between atoms: C_5  and  N_6 
REMARK    1  A    between atoms: N_7  and  C_8 
REMARK    2  A    between atoms: C_8  and  C_9 
REMARK    3  A    between atoms: C_9  and  C_10 
REMARK    4  A    between atoms: C_10  and  C_11 
REMARK    5  A    between atoms: C_11  and  C_12 
REMARK    6  A    between atoms: C_11  and  N_15 
REMARK       I    between atoms: N_15  and  C_16 
REMARK    7  A    between atoms: C_16  and  C_17 
ROOT
HETATM    1  C           1     -21.254  -8.121  -0.826  0.00  0.00     0.185 C 
ENDROOT
BRANCH   1   2
HETATM    2  C           1     -20.510  -7.908  -2.138  0.00  0.00     0.038 C 
BRANCH   2   3
HETATM    3  C           1     -21.006  -8.908  -3.173  0.00  0.00     0.023 C 
BRANCH   3   4
HETATM    4  C           1     -21.613  -8.159  -4.352  0.00  0.00     0.138 C 
BRANCH   4   5
HETATM    5  N           1     -21.180  -6.755  -4.317  0.00  0.00    -0.227 N 
HETATM    6  C           1     -20.793  -6.185  -5.378  0.00  0.00     0.665 C 
HETATM    7  N           1     -20.410  -4.944  -5.347  0.00  0.00    -0.235 N 
HETATM    8  N           1     -20.777  -6.825  -6.471  0.00  0.00    -0.235 N 
HETATM    9  H           1     -20.422  -4.415  -4.446  0.00  0.00     0.174 HD
HETATM   10  H           1     -20.089  -4.473  -6.224  0.00  0.00     0.174 HD
HETATM   11  H           1     -21.087  -7.829  -6.496  0.00  0.00     0.174 HD
HETATM   12  H           1     -20.456  -6.353  -7.352  0.00  0.00     0.174 HD
HETATM   13  H           1     -21.193  -6.224  -3.411  0.00  0.00     0.177 HD
ENDBRANCH   4   5
ENDBRANCH   3   4
ENDBRANCH   2   3
ENDBRANCH   1   2
BRANCH   1  14
HETATM   14  C           1     -22.416  -7.163  -0.745  0.00  0.00     0.196 C 
HETATM   15  O           1     -22.462  -6.169  -1.502  0.00  0.00    -0.646 OA
HETATM   16  O           1     -23.335  -7.363   0.080  0.00  0.00    -0.646 OA
ENDBRANCH   1  14
BRANCH   1  17
HETATM   17  N           1     -21.746  -9.484  -0.767  0.00  0.00    -0.345 N 
HETATM   18  C           1     -21.456 -10.269   0.317  0.00  0.00     0.249 C 
HETATM   19  O           1     -20.791  -9.827   1.223  0.00  0.00    -0.271 OA
HETATM   20  H           1     -22.303  -9.854  -1.526  0.00  0.00     0.163 HD
BRANCH  18  21
HETATM   21  C           1     -21.969 -11.687   0.379  0.00  0.00     0.274 C 
HETATM   22  C           1     -20.792 -12.653   0.378  0.00  0.00     0.042 C 
HETATM   23  C           1     -19.979 -12.463  -0.896  0.00  0.00     0.003 C 
HETATM   24 Se           1     -21.107 -12.814  -2.446  0.00  0.00     0.000 Se
HETATM   25  C           1     -19.705 -12.463  -3.752  0.00  0.00     0.000 C 
HETATM   26  H           1     -22.280 -11.826  -1.688  0.00  0.00     0.275 HD
HETATM   27  N           1     -22.837 -11.957  -0.815  0.00  0.00    -0.067 N 
HETATM   28  H           1     -23.193 -12.939  -0.773  0.00  0.00     0.275 HD
HETATM   29  H           1     -23.645 -11.293  -0.813  0.00  0.00     0.275 HD
ENDBRANCH  18  21
ENDBRANCH   1  17
TORSDOF 7
ENDMDL
MODEL 8
REMARK VINA RESULT:      -5.6     15.255     17.814
REMARK  7 active torsions:
REMARK  status: ('A' for Active; 'I' for Inactive)
REMARK       I    between atoms: N_4  and  C_5 
REMARK       I    between atoms: C_5  and  N_6 
REMARK    1  A    between atoms: N_7  and  C_8 
REMARK    2  A    between atoms: C_8  and  C_9 
REMARK    3  A    between atoms: C_9  and  C_10 
REMARK    4  A    between atoms: C_10  and  C_11 
REMARK    5  A    between atoms: C_11  and  C_12 
REMARK    6  A    between atoms: C_11  and  N_15 
REMARK       I    between atoms: N_15  and  C_16 
REMARK    7  A    between atoms: C_16  and  C_17 
ROOT
HETATM    1  C           1     -20.910  -9.042  -4.338  0.00  0.00     0.185 C 
ENDROOT
BRANCH   1   2
HETATM    2  C           1     -21.575  -7.985  -5.210  0.00  0.00     0.038 C 
BRANCH   2   3
HETATM    3  C           1     -21.399  -6.613  -4.572  0.00  0.00     0.023 C 
BRANCH   3   4
HETATM    4  C           1     -21.155  -5.575  -5.659  0.00  0.00     0.138 C 
BRANCH   4   5
HETATM    5  N           1     -22.444  -5.093  -6.175  0.00  0.00    -0.227 N 
HETATM    6  C           1     -22.503  -4.536  -7.310  0.00  0.00     0.665 C 
HETATM    7  N           1     -23.644  -4.110  -7.766  0.00  0.00    -0.235 N 
HETATM    8  N           1     -21.452  -4.395  -8.002  0.00  0.00    -0.235 N 
HETATM    9  H           1     -24.512  -4.226  -7.195  0.00  0.00     0.174 HD
HETATM   10  H           1     -23.693  -3.650  -8.703  0.00  0.00     0.174 HD
HETATM   11  H           1     -20.531  -4.740  -7.634  0.00  0.00     0.174 HD
HETATM   12  H           1     -21.502  -3.934  -8.944  0.00  0.00     0.174 HD
HETATM   13  H           1     -23.315  -5.209  -5.601  0.00  0.00     0.177 HD
ENDBRANCH   4   5
ENDBRANCH   3   4
ENDBRANCH   2   3
ENDBRANCH   1   2
BRANCH   1  14
HETATM   14  C           1     -19.418  -9.009  -4.555  0.00  0.00     0.196 C 
HETATM   15  O           1     -18.957  -8.913  -5.714  0.00  0.00    -0.646 OA
HETATM   16  O           1     -18.642  -9.076  -3.578  0.00  0.00    -0.646 OA
ENDBRANCH   1  14
BRANCH   1  17
HETATM   17  N           1     -21.201  -8.769  -2.944  0.00  0.00    -0.345 N 
HETATM   18  C           1     -21.998  -9.625  -2.232  0.00  0.00     0.249 C 
HETATM   19  O           1     -22.459 -10.606  -2.764  0.00  0.00    -0.271 OA
HETATM   20  H           1     -20.815  -7.947  -2.498  0.00  0.00     0.163 HD
BRANCH  18  21
HETATM   21  C           1     -22.301  -9.342  -0.780  0.00  0.00     0.274 C 
HETATM   22  C           1     -21.014  -9.417   0.031  0.00  0.00     0.042 C 
HETATM   23  C           1     -20.411 -10.809  -0.099  0.00  0.00     0.003 C 
HETATM   24 Se           1     -21.678 -12.132   0.569  0.00  0.00     0.000 Se
HETATM   25  C           1     -20.522 -13.660   0.213  0.00  0.00     0.000 C 
HETATM   26  H           1     -22.862 -11.315  -0.356  0.00  0.00     0.275 HD
HETATM   27  N           1     -23.276 -10.360  -0.266  0.00  0.00    -0.067 N 
HETATM   28  H           1     -23.486 -10.166   0.739  0.00  0.00     0.275 HD
HETATM   29  H           1     -24.159 -10.309  -0.823  0.00  0.00     0.275 HD
ENDBRANCH  18  21
ENDBRANCH   1  17
TORSDOF 7
ENDMDL
MODEL 9
REMARK VINA RESULT:      -5.5     10.027     12.096
REMARK  7 active torsions:
REMARK  status: ('A' for Active; 'I' for Inactive)
REMARK       I    between atoms: N_4  and  C_5 
REMARK       I    between atoms: C_5  and  N_6 
REMARK    1  A    between atoms: N_7  and  C_8 
REMARK    2  A    between atoms: C_8  and  C_9 
REMARK    3  A    between atoms: C_9  and  C_10 
REMARK    4  A    between atoms: C_10  and  C_11 
REMARK    5  A    between atoms: C_11  and  C_12 
REMARK    6  A    between atoms: C_11  and  N_15 
REMARK       I    between atoms: N_15  and  C_16 
REMARK    7  A    between atoms: C_16  and  C_17 
ROOT
HETATM    1  C           1     -25.622  -7.008 -17.445  0.00  0.00     0.185 C 
ENDROOT
BRANCH   1   2
HETATM    2  C           1     -24.644  -6.749 -18.583  0.00  0.00     0.038 C 
BRANCH   2   3
HETATM    3  C           1     -25.395  -6.737 -19.907  0.00  0.00     0.023 C 
BRANCH   3   4
HETATM    4  C           1     -24.923  -7.900 -20.770  0.00  0.00     0.138 C 
BRANCH   4   5
HETATM    5  N           1     -23.520  -8.206 -20.455  0.00  0.00    -0.227 N 
HETATM    6  C           1     -22.735  -8.590 -21.371  0.00  0.00     0.665 C 
HETATM    7  N           1     -21.495  -8.861 -21.093  0.00  0.00    -0.235 N 
HETATM    8  N           1     -23.159  -8.712 -22.558  0.00  0.00    -0.235 N 
HETATM    9  H           1     -21.144  -8.761 -20.113  0.00  0.00     0.174 HD
HETATM   10  H           1     -20.846  -9.179 -21.849  0.00  0.00     0.174 HD
HETATM   11  H           1     -24.161  -8.493 -22.783  0.00  0.00     0.174 HD
HETATM   12  H           1     -22.508  -9.031 -23.318  0.00  0.00     0.174 HD
HETATM   13  H           1     -23.169  -8.105 -19.471  0.00  0.00     0.177 HD
ENDBRANCH   4   5
ENDBRANCH   3   4
ENDBRANCH   2   3
ENDBRANCH   1   2
BRANCH   1  14
HETATM   14  C           1     -24.872  -7.526 -16.243  0.00  0.00     0.196 C 
HETATM   15  O           1     -25.225  -7.188 -15.092  0.00  0.00    -0.646 OA
HETATM   16  O           1     -23.897  -8.293 -16.397  0.00  0.00    -0.646 OA
ENDBRANCH   1  14
BRANCH   1  17
HETATM   17  N           1     -26.296  -5.772 -17.098  0.00  0.00    -0.345 N 
HETATM   18  C           1     -27.587  -5.560 -17.501  0.00  0.00     0.249 C 
HETATM   19  O           1     -28.165  -6.403 -18.146  0.00  0.00    -0.271 OA
HETATM   20  H           1     -25.812  -5.067 -16.557  0.00  0.00     0.163 HD
BRANCH  18  21
HETATM   21  C           1     -28.289  -4.274 -17.139  0.00  0.00     0.274 C 
HETATM   22  C           1     -29.046  -4.459 -15.831  0.00  0.00     0.042 C 
HETATM   23  C           1     -30.074  -5.571 -15.991  0.00  0.00     0.003 C 
HETATM   24 Se           1     -31.330  -5.097 -17.404  0.00  0.00     0.000 Se
HETATM   25  C           1     -32.383  -6.728 -17.240  0.00  0.00     0.000 C 
HETATM   26  H           1     -29.960  -4.673 -18.337  0.00  0.00     0.275 HD
HETATM   27  N           1     -29.256  -3.910 -18.228  0.00  0.00    -0.067 N 
HETATM   28  H           1     -29.743  -3.019 -17.979  0.00  0.00     0.275 HD
HETATM   29  H           1     -28.736  -3.783 -19.126  0.00  0.00     0.275 HD
ENDBRANCH  18  21
ENDBRANCH   1  17
TORSDOF 7
ENDMDL
