MODEL 1
REMARK VINA RESULT:      -7.5      0.000      0.000
REMARK  6 active torsions:
REMARK  status: ('A' for Active; 'I' for Inactive)
REMARK       I    between atoms: C_2  and  N_3 
REMARK    1  A    between atoms: C_2  and  C_20 
REMARK    2  A    between atoms: N_3  and  C_11 
REMARK    3  A    between atoms: C_9  and  C_10 
REMARK    4  A    between atoms: C_10  and  C_11 
REMARK    5  A    between atoms: C_11  and  C_13 
REMARK    6  A    between atoms: C_20  and  N_22 
ROOT
HETATM    1  C           1     -21.899  -6.605  -5.577  0.00  0.00     0.190 C 
ENDROOT
BRANCH   1   2
HETATM    2  N           1     -22.442  -6.334  -4.259  0.00  0.00    -0.344 N 
HETATM    3  C           1     -21.649  -6.466  -3.151  0.00  0.00     0.248 C 
HETATM    4  O           1     -21.010  -5.522  -2.750  0.00  0.00    -0.271 OA
HETATM    5  H           1     -23.407  -6.047  -4.159  0.00  0.00     0.163 HD
BRANCH   3   6
HETATM    6  C           1     -21.572  -7.790  -2.432  0.00  0.00     0.270 C 
HETATM    7  C           1     -22.062  -7.619  -1.000  0.00  0.00     0.050 C 
BRANCH   6   8
HETATM    8  N           1     -20.151  -8.270  -2.420  0.00  0.00    -0.067 N 
HETATM    9  H           1     -19.658  -7.924  -3.273  0.00  0.00     0.275 HD
HETATM   10  H           1     -19.668  -7.905  -1.568  0.00  0.00     0.275 HD
HETATM   11  H           1     -20.137  -9.315  -2.409  0.00  0.00     0.275 HD
ENDBRANCH   6   8
ENDBRANCH   3   6
ENDBRANCH   1   2
BRANCH   1  12
HETATM   12  C           1     -21.216  -5.353  -6.110  0.00  0.00     0.077 C 
BRANCH  12  13
HETATM   13  C           1     -22.022  -4.787  -7.239  0.00  0.00    -0.028 A 
HETATM   14  C           1     -21.555  -4.534  -8.557  0.00  0.00    -0.002 A 
HETATM   15  C           1     -20.317  -4.701  -9.209  0.00  0.00     0.014 A 
HETATM   16  C           1     -22.628  -4.010  -9.280  0.00  0.00     0.042 A 
HETATM   17  C           1     -20.197  -4.339 -10.556  0.00  0.00     0.001 A 
HETATM   18  C           1     -21.286  -3.819 -11.251  0.00  0.00     0.002 A 
HETATM   19  C           1     -22.525  -3.644 -10.627  0.00  0.00     0.030 A 
HETATM   20  N           1     -23.703  -3.953  -8.421  0.00  0.00    -0.365 N 
HETATM   21  C           1     -23.347  -4.420  -7.184  0.00  0.00     0.096 A 
HETATM   22  H           1     -24.658  -3.600  -8.679  0.00  0.00     0.165 HD
ENDBRANCH  12  13
ENDBRANCH   1  12
BRANCH   1  23
HETATM   23  C           1     -20.894  -7.727  -5.484  0.00  0.00     0.197 C 
HETATM   24  O           1     -19.675  -7.467  -5.389  0.00  0.00    -0.646 OA
HETATM   25  O           1     -21.279  -8.915  -5.503  0.00  0.00    -0.646 OA
ENDBRANCH   1  23
TORSDOF 6
ENDMDL
MODEL 2
REMARK VINA RESULT:      -7.3     11.405     13.565
REMARK  6 active torsions:
REMARK  status: ('A' for Active; 'I' for Inactive)
REMARK       I    between atoms: C_2  and  N_3 
REMARK    1  A    between atoms: C_2  and  C_20 
REMARK    2  A    between atoms: N_3  and  C_11 
REMARK    3  A    between atoms: C_9  and  C_10 
REMARK    4  A    between atoms: C_10  and  C_11 
REMARK    5  A    between atoms: C_11  and  C_13 
REMARK    6  A    between atoms: C_20  and  N_22 
ROOT
HETATM    1  C           1     -28.290  -6.214 -16.578  0.00  0.00     0.190 C 
ENDROOT
BRANCH   1   2
HETATM    2  N           1     -29.318  -5.310 -16.097  0.00  0.00    -0.344 N 
HETATM    3  C           1     -30.365  -4.969 -16.911  0.00  0.00     0.248 C 
HETATM    4  O           1     -31.374  -5.634 -16.907  0.00  0.00    -0.271 OA
HETATM    5  H           1     -29.261  -4.931 -15.161  0.00  0.00     0.163 HD
BRANCH   3   6
HETATM    6  C           1     -30.259  -3.764 -17.813  0.00  0.00     0.270 C 
HETATM    7  C           1     -29.164  -2.839 -17.298  0.00  0.00     0.050 C 
BRANCH   6   8
HETATM    8  N           1     -31.568  -3.032 -17.824  0.00  0.00    -0.067 N 
HETATM    9  H           1     -31.889  -2.905 -18.810  0.00  0.00     0.275 HD
HETATM   10  H           1     -32.280  -3.584 -17.295  0.00  0.00     0.275 HD
HETATM   11  H           1     -31.447  -2.096 -17.375  0.00  0.00     0.275 HD
ENDBRANCH   6   8
ENDBRANCH   3   6
ENDBRANCH   1   2
BRANCH   1  12
HETATM   12  C           1     -26.923  -5.702 -16.144  0.00  0.00     0.077 C 
BRANCH  12  13
HETATM   13  C           1     -25.857  -6.391 -16.940  0.00  0.00    -0.028 A 
HETATM   14  C           1     -25.843  -6.559 -18.351  0.00  0.00    -0.002 A 
HETATM   15  C           1     -26.715  -6.188 -19.393  0.00  0.00     0.014 A 
HETATM   16  C           1     -24.673  -7.251 -18.671  0.00  0.00     0.042 A 
HETATM   17  C           1     -26.389  -6.521 -20.713  0.00  0.00     0.001 A 
HETATM   18  C           1     -25.214  -7.213 -21.001  0.00  0.00     0.002 A 
HETATM   19  C           1     -24.332  -7.591 -19.985  0.00  0.00     0.030 A 
HETATM   20  N           1     -24.009  -7.488 -17.488  0.00  0.00    -0.365 N 
HETATM   21  C           1     -24.716  -6.972 -16.435  0.00  0.00     0.096 A 
HETATM   22  H           1     -23.091  -7.993 -17.406  0.00  0.00     0.165 HD
ENDBRANCH  12  13
ENDBRANCH   1  12
BRANCH   1  23
HETATM   23  C           1     -28.521  -7.588 -15.999  0.00  0.00     0.197 C 
HETATM   24  O           1     -28.030  -7.889 -14.889  0.00  0.00    -0.646 OA
HETATM   25  O           1     -29.201  -8.426 -16.629  0.00  0.00    -0.646 OA
ENDBRANCH   1  23
TORSDOF 6
ENDMDL
MODEL 3
REMARK VINA RESULT:      -7.0      2.228      3.059
REMARK  6 active torsions:
REMARK  status: ('A' for Active; 'I' for Inactive)
REMARK       I    between atoms: C_2  and  N_3 
REMARK    1  A    between atoms: C_2  and  C_20 
REMARK    2  A    between atoms: N_3  and  C_11 
REMARK    3  A    between atoms: C_9  and  C_10 
REMARK    4  A    between atoms: C_10  and  C_11 
REMARK    5  A    between atoms: C_11  and  C_13 
REMARK    6  A    between atoms: C_20  and  N_22 
ROOT
HETATM    1  C           1     -21.277  -8.946  -3.949  0.00  0.00     0.190 C 
ENDROOT
BRANCH   1   2
HETATM    2  N           1     -20.808  -9.346  -2.636  0.00  0.00    -0.344 N 
HETATM    3  C           1     -21.588  -9.124  -1.533  0.00  0.00     0.248 C 
HETATM    4  O           1     -22.378  -9.965  -1.173  0.00  0.00    -0.271 OA
HETATM    5  H           1     -19.903  -9.789  -2.535  0.00  0.00     0.163 HD
BRANCH   3   6
HETATM    6  C           1     -21.463  -7.830  -0.768  0.00  0.00     0.270 C 
HETATM    7  C           1     -21.864  -8.057   0.684  0.00  0.00     0.050 C 
BRANCH   6   8
HETATM    8  N           1     -22.362  -6.798  -1.380  0.00  0.00    -0.067 N 
HETATM    9  H           1     -22.631  -7.096  -2.345  0.00  0.00     0.275 HD
HETATM   10  H           1     -23.223  -6.696  -0.796  0.00  0.00     0.275 HD
HETATM   11  H           1     -21.861  -5.882  -1.426  0.00  0.00     0.275 HD
ENDBRANCH   6   8
ENDBRANCH   3   6
ENDBRANCH   1   2
BRANCH   1  12
HETATM   12  C           1     -20.359  -7.867  -4.508  0.00  0.00     0.077 C 
BRANCH  12  13
HETATM   13  C           1     -21.182  -6.814  -5.184  0.00  0.00    -0.028 A 
HETATM   14  C           1     -20.714  -5.871  -6.140  0.00  0.00    -0.002 A 
HETATM   15  C           1     -19.462  -5.612  -6.731  0.00  0.00     0.014 A 
HETATM   16  C           1     -21.806  -5.083  -6.509  0.00  0.00     0.042 A 
HETATM   17  C           1     -19.346  -4.576  -7.665  0.00  0.00     0.001 A 
HETATM   18  C           1     -20.454  -3.806  -8.013  0.00  0.00     0.002 A 
HETATM   19  C           1     -21.707  -4.044  -7.441  0.00  0.00     0.030 A 
HETATM   20  N           1     -22.892  -5.540  -5.796  0.00  0.00    -0.365 N 
HETATM   21  C           1     -22.526  -6.587  -4.992  0.00  0.00     0.096 A 
HETATM   22  H           1     -23.862  -5.142  -5.860  0.00  0.00     0.165 HD
ENDBRANCH  12  13
ENDBRANCH   1  12
BRANCH   1  23
HETATM   23  C           1     -21.267 -10.142  -4.871  0.00  0.00     0.197 C 
HETATM   24  O           1     -20.553 -10.134  -5.896  0.00  0.00    -0.646 OA
HETATM   25  O           1     -21.973 -11.139  -4.608  0.00  0.00    -0.646 OA
ENDBRANCH   1  23
TORSDOF 6
ENDMDL
MODEL 4
REMARK VINA RESULT:      -6.9      2.481      7.390
REMARK  6 active torsions:
REMARK  status: ('A' for Active; 'I' for Inactive)
REMARK       I    between atoms: C_2  and  N_3 
REMARK    1  A    between atoms: C_2  and  C_20 
REMARK    2  A    between atoms: N_3  and  C_11 
REMARK    3  A    between atoms: C_9  and  C_10 
REMARK    4  A    between atoms: C_10  and  C_11 
REMARK    5  A    between atoms: C_11  and  C_13 
REMARK    6  A    between atoms: C_20  and  N_22 
ROOT
HETATM    1  C           1     -21.112  -7.518  -4.958  0.00  0.00     0.190 C 
ENDROOT
BRANCH   1   2
HETATM    2  N           1     -20.067  -6.806  -5.668  0.00  0.00    -0.344 N 
HETATM    3  C           1     -20.309  -5.556  -6.172  0.00  0.00     0.248 C 
HETATM    4  O           1     -20.096  -4.579  -5.493  0.00  0.00    -0.271 OA
HETATM    5  H           1     -19.157  -7.233  -5.790  0.00  0.00     0.163 HD
BRANCH   3   6
HETATM    6  C           1     -20.844  -5.399  -7.574  0.00  0.00     0.270 C 
HETATM    7  C           1     -19.869  -4.571  -8.400  0.00  0.00     0.050 C 
BRANCH   6   8
HETATM    8  N           1     -22.173  -4.706  -7.526  0.00  0.00    -0.067 N 
HETATM    9  H           1     -22.027  -3.673  -7.476  0.00  0.00     0.275 HD
HETATM   10  H           1     -22.717  -4.938  -8.389  0.00  0.00     0.275 HD
HETATM   11  H           1     -22.702  -5.025  -6.684  0.00  0.00     0.275 HD
ENDBRANCH   6   8
ENDBRANCH   3   6
ENDBRANCH   1   2
BRANCH   1  12
HETATM   12  C           1     -20.490  -8.364  -3.856  0.00  0.00     0.077 C 
BRANCH  12  13
HETATM   13  C           1     -21.397  -9.513  -3.536  0.00  0.00    -0.028 A 
HETATM   14  C           1     -22.099  -9.712  -2.316  0.00  0.00    -0.002 A 
HETATM   15  C           1     -22.190  -8.993  -1.109  0.00  0.00     0.014 A 
HETATM   16  C           1     -22.821 -10.899  -2.447  0.00  0.00     0.042 A 
HETATM   17  C           1     -22.998  -9.486  -0.077  0.00  0.00     0.001 A 
HETATM   18  C           1     -23.707 -10.675  -0.236  0.00  0.00     0.002 A 
HETATM   19  C           1     -23.633 -11.405  -1.425  0.00  0.00     0.030 A 
HETATM   20  N           1     -22.560 -11.394  -3.705  0.00  0.00    -0.365 N 
HETATM   21  C           1     -21.700 -10.564  -4.373  0.00  0.00     0.096 A 
HETATM   22  H           1     -22.963 -12.282  -4.096  0.00  0.00     0.165 HD
ENDBRANCH  12  13
ENDBRANCH   1  12
BRANCH   1  23
HETATM   23  C           1     -22.072  -6.524  -4.349  0.00  0.00     0.197 C 
HETATM   24  O           1     -21.844  -6.050  -3.216  0.00  0.00    -0.646 OA
HETATM   25  O           1     -23.094  -6.177  -4.978  0.00  0.00    -0.646 OA
ENDBRANCH   1  23
TORSDOF 6
ENDMDL
MODEL 5
REMARK VINA RESULT:      -6.9      2.169      3.620
REMARK  6 active torsions:
REMARK  status: ('A' for Active; 'I' for Inactive)
REMARK       I    between atoms: C_2  and  N_3 
REMARK    1  A    between atoms: C_2  and  C_20 
REMARK    2  A    between atoms: N_3  and  C_11 
REMARK    3  A    between atoms: C_9  and  C_10 
REMARK    4  A    between atoms: C_10  and  C_11 
REMARK    5  A    between atoms: C_11  and  C_13 
REMARK    6  A    between atoms: C_20  and  N_22 
ROOT
HETATM    1  C           1     -21.454  -7.442  -3.719  0.00  0.00     0.190 C 
ENDROOT
BRANCH   1   2
HETATM    2  N           1     -21.988  -8.787  -3.820  0.00  0.00    -0.344 N 
HETATM    3  C           1     -21.151  -9.839  -4.075  0.00  0.00     0.248 C 
HETATM    4  O           1     -20.637 -10.438  -3.159  0.00  0.00    -0.271 OA
HETATM    5  H           1     -22.981  -8.947  -3.702  0.00  0.00     0.163 HD
BRANCH   3   6
HETATM    6  C           1     -20.868 -10.251  -5.499  0.00  0.00     0.270 C 
HETATM    7  C           1     -21.454 -11.634  -5.753  0.00  0.00     0.050 C 
BRANCH   6   8
HETATM    8  N           1     -19.386 -10.287  -5.724  0.00  0.00    -0.067 N 
HETATM    9  H           1     -19.030 -11.254  -5.555  0.00  0.00     0.275 HD
HETATM   10  H           1     -19.177 -10.007  -6.709  0.00  0.00     0.275 HD
HETATM   11  H           1     -18.918  -9.624  -5.066  0.00  0.00     0.275 HD
ENDBRANCH   6   8
ENDBRANCH   3   6
ENDBRANCH   1   2
BRANCH   1  12
HETATM   12  C           1     -22.189  -6.531  -4.693  0.00  0.00     0.077 C 
BRANCH  12  13
HETATM   13  C           1     -21.302  -6.232  -5.863  0.00  0.00    -0.028 A 
HETATM   14  C           1     -21.622  -5.391  -6.964  0.00  0.00    -0.002 A 
HETATM   15  C           1     -22.750  -4.625  -7.317  0.00  0.00     0.014 A 
HETATM   16  C           1     -20.518  -5.393  -7.817  0.00  0.00     0.042 A 
HETATM   17  C           1     -22.734  -3.891  -8.509  0.00  0.00     0.001 A 
HETATM   18  C           1     -21.617  -3.913  -9.341  0.00  0.00     0.002 A 
HETATM   19  C           1     -20.485  -4.665  -9.012  0.00  0.00     0.030 A 
HETATM   20  N           1     -19.567  -6.208  -7.245  0.00  0.00    -0.365 N 
HETATM   21  C           1     -20.031  -6.721  -6.062  0.00  0.00     0.096 A 
HETATM   22  H           1     -18.622  -6.409  -7.657  0.00  0.00     0.165 HD
ENDBRANCH  12  13
ENDBRANCH   1  12
BRANCH   1  23
HETATM   23  C           1     -21.644  -6.931  -2.312  0.00  0.00     0.197 C 
HETATM   24  O           1     -22.222  -5.841  -2.115  0.00  0.00    -0.646 OA
HETATM   25  O           1     -21.222  -7.598  -1.342  0.00  0.00    -0.646 OA
ENDBRANCH   1  23
TORSDOF 6
ENDMDL
MODEL 6
REMARK VINA RESULT:      -6.8      3.413      7.377
REMARK  6 active torsions:
REMARK  status: ('A' for Active; 'I' for Inactive)
REMARK       I    between atoms: C_2  and  N_3 
REMARK    1  A    between atoms: C_2  and  C_20 
REMARK    2  A    between atoms: N_3  and  C_11 
REMARK    3  A    between atoms: C_9  and  C_10 
REMARK    4  A    between atoms: C_10  and  C_11 
REMARK    5  A    between atoms: C_11  and  C_13 
REMARK    6  A    between atoms: C_20  and  N_22 
ROOT
HETATM    1  C           1     -19.562  -8.838  -4.597  0.00  0.00     0.190 C 
ENDROOT
BRANCH   1   2
HETATM    2  N           1     -20.388  -8.294  -5.658  0.00  0.00    -0.344 N 
HETATM    3  C           1     -20.285  -6.972  -5.997  0.00  0.00     0.248 C 
HETATM    4  O           1     -19.497  -6.625  -6.845  0.00  0.00    -0.271 OA
HETATM    5  H           1     -21.041  -8.893  -6.148  0.00  0.00     0.163 HD
BRANCH   3   6
HETATM    6  C           1     -21.153  -5.947  -5.310  0.00  0.00     0.270 C 
HETATM    7  C           1     -22.440  -6.608  -4.834  0.00  0.00     0.050 C 
BRANCH   6   8
HETATM    8  N           1     -21.484  -4.846  -6.273  0.00  0.00    -0.067 N 
HETATM    9  H           1     -22.309  -4.310  -5.922  0.00  0.00     0.275 HD
HETATM   10  H           1     -20.664  -4.203  -6.361  0.00  0.00     0.275 HD
HETATM   11  H           1     -21.708  -5.257  -7.208  0.00  0.00     0.275 HD
ENDBRANCH   6   8
ENDBRANCH   3   6
ENDBRANCH   1   2
BRANCH   1  12
HETATM   12  C           1     -20.335  -9.923  -3.859  0.00  0.00     0.077 C 
BRANCH  12  13
HETATM   13  C           1     -20.928  -9.350  -2.609  0.00  0.00    -0.028 A 
HETATM   14  C           1     -22.015  -9.893  -1.872  0.00  0.00    -0.002 A 
HETATM   15  C           1     -22.834 -11.029  -2.025  0.00  0.00     0.014 A 
HETATM   16  C           1     -22.239  -9.047  -0.784  0.00  0.00     0.042 A 
HETATM   17  C           1     -23.845 -11.277  -1.089  0.00  0.00     0.001 A 
HETATM   18  C           1     -24.045 -10.413  -0.014  0.00  0.00     0.002 A 
HETATM   19  C           1     -23.245  -9.280   0.160  0.00  0.00     0.030 A 
HETATM   20  N           1     -21.314  -8.030  -0.868  0.00  0.00    -0.365 N 
HETATM   21  C           1     -20.516  -8.203  -1.968  0.00  0.00     0.096 A 
HETATM   22  H           1     -21.233  -7.235  -0.186  0.00  0.00     0.165 HD
ENDBRANCH  12  13
ENDBRANCH   1  12
BRANCH   1  23
HETATM   23  C           1     -18.307  -9.431  -5.192  0.00  0.00     0.197 C 
HETATM   24  O           1     -18.239  -9.642  -6.422  0.00  0.00    -0.646 OA
HETATM   25  O           1     -17.338  -9.711  -4.455  0.00  0.00    -0.646 OA
ENDBRANCH   1  23
TORSDOF 6
ENDMDL
MODEL 7
REMARK VINA RESULT:      -6.8      3.619      6.519
REMARK  6 active torsions:
REMARK  status: ('A' for Active; 'I' for Inactive)
REMARK       I    between atoms: C_2  and  N_3 
REMARK    1  A    between atoms: C_2  and  C_20 
REMARK    2  A    between atoms: N_3  and  C_11 
REMARK    3  A    between atoms: C_9  and  C_10 
REMARK    4  A    between atoms: C_10  and  C_11 
REMARK    5  A    between atoms: C_11  and  C_13 
REMARK    6  A    between atoms: C_20  and  N_22 
ROOT
HETATM    1  C           1     -21.377  -8.740  -2.039  0.00  0.00     0.190 C 
ENDROOT
BRANCH   1   2
HETATM    2  N           1     -20.889  -7.405  -2.331  0.00  0.00    -0.344 N 
HETATM    3  C           1     -21.675  -6.525  -3.023  0.00  0.00     0.248 C 
HETATM    4  O           1     -22.429  -5.791  -2.429  0.00  0.00    -0.271 OA
HETATM    5  H           1     -19.966  -7.126  -2.021  0.00  0.00     0.163 HD
BRANCH   3   6
HETATM    6  C           1     -21.601  -6.470  -4.529  0.00  0.00     0.270 C 
HETATM    7  C           1     -20.625  -5.379  -4.951  0.00  0.00     0.050 C 
BRANCH   6   8
HETATM    8  N           1     -22.960  -6.168  -5.086  0.00  0.00    -0.067 N 
HETATM    9  H           1     -23.541  -7.036  -5.080  0.00  0.00     0.275 HD
HETATM   10  H           1     -23.422  -5.437  -4.498  0.00  0.00     0.275 HD
HETATM   11  H           1     -22.865  -5.819  -6.066  0.00  0.00     0.275 HD
ENDBRANCH   6   8
ENDBRANCH   3   6
ENDBRANCH   1   2
BRANCH   1  12
HETATM   12  C           1     -20.210  -9.719  -2.046  0.00  0.00     0.077 C 
BRANCH  12  13
HETATM   13  C           1     -19.646  -9.814  -3.430  0.00  0.00    -0.028 A 
HETATM   14  C           1     -18.268  -9.773  -3.779  0.00  0.00    -0.002 A 
HETATM   15  C           1     -17.074  -9.644  -3.043  0.00  0.00     0.014 A 
HETATM   16  C           1     -18.192  -9.896  -5.167  0.00  0.00     0.042 A 
HETATM   17  C           1     -15.849  -9.641  -3.721  0.00  0.00     0.001 A 
HETATM   18  C           1     -15.804  -9.764  -5.108  0.00  0.00     0.002 A 
HETATM   19  C           1     -16.975  -9.895  -5.859  0.00  0.00     0.030 A 
HETATM   20  N           1     -19.483 -10.007  -5.634  0.00  0.00    -0.365 N 
HETATM   21  C           1     -20.370  -9.959  -4.592  0.00  0.00     0.096 A 
HETATM   22  H           1     -19.748 -10.113  -6.645  0.00  0.00     0.165 HD
ENDBRANCH  12  13
ENDBRANCH   1  12
BRANCH   1  23
HETATM   23  C           1     -22.033  -8.749  -0.680  0.00  0.00     0.197 C 
HETATM   24  O           1     -21.621  -7.984   0.217  0.00  0.00    -0.646 OA
HETATM   25  O           1     -22.989  -9.521  -0.453  0.00  0.00    -0.646 OA
ENDBRANCH   1  23
TORSDOF 6
ENDMDL
MODEL 8
REMARK VINA RESULT:      -6.8      4.492      7.636
REMARK  6 active torsions:
REMARK  status: ('A' for Active; 'I' for Inactive)
REMARK       I    between atoms: C_2  and  N_3 
REMARK    1  A    between atoms: C_2  and  C_20 
REMARK    2  A    between atoms: N_3  and  C_11 
REMARK    3  A    between atoms: C_9  and  C_10 
REMARK    4  A    between atoms: C_10  and  C_11 
REMARK    5  A    between atoms: C_11  and  C_13 
REMARK    6  A    between atoms: C_20  and  N_22 
ROOT
HETATM    1  C           1     -21.051  -7.770  -3.342  0.00  0.00     0.190 C 
ENDROOT
BRANCH   1   2
HETATM    2  N           1     -19.961  -8.077  -4.248  0.00  0.00    -0.344 N 
HETATM    3  C           1     -19.817  -9.346  -4.741  0.00  0.00     0.248 C 
HETATM    4  O           1     -20.362  -9.658  -5.774  0.00  0.00    -0.271 OA
HETATM    5  H           1     -19.308  -7.352  -4.516  0.00  0.00     0.163 HD
BRANCH   3   6
HETATM    6  C           1     -18.979 -10.354  -3.995  0.00  0.00     0.270 C 
HETATM    7  C           1     -17.682  -9.699  -3.540  0.00  0.00     0.050 C 
BRANCH   6   8
HETATM    8  N           1     -18.665 -11.509  -4.899  0.00  0.00    -0.067 N 
HETATM    9  H           1     -19.389 -11.573  -5.649  0.00  0.00     0.275 HD
HETATM   10  H           1     -17.726 -11.365  -5.334  0.00  0.00     0.275 HD
HETATM   11  H           1     -18.660 -12.394  -4.344  0.00  0.00     0.275 HD
ENDBRANCH   6   8
ENDBRANCH   3   6
ENDBRANCH   1   2
BRANCH   1  12
HETATM   12  C           1     -20.560  -7.877  -1.904  0.00  0.00     0.077 C 
BRANCH  12  13
HETATM   13  C           1     -21.663  -8.401  -1.037  0.00  0.00    -0.028 A 
HETATM   14  C           1     -22.323  -9.651  -1.185  0.00  0.00    -0.002 A 
HETATM   15  C           1     -22.198 -10.725  -2.087  0.00  0.00     0.014 A 
HETATM   16  C           1     -23.277  -9.735  -0.170  0.00  0.00     0.042 A 
HETATM   17  C           1     -23.032 -11.841  -1.944  0.00  0.00     0.001 A 
HETATM   18  C           1     -23.976 -11.895  -0.921  0.00  0.00     0.002 A 
HETATM   19  C           1     -24.118 -10.843  -0.013  0.00  0.00     0.030 A 
HETATM   20  N           1     -23.191  -8.571   0.562  0.00  0.00    -0.365 N 
HETATM   21  C           1     -22.218  -7.757   0.046  0.00  0.00     0.096 A 
HETATM   22  H           1     -23.788  -8.341   1.396  0.00  0.00     0.165 HD
ENDBRANCH  12  13
ENDBRANCH   1  12
BRANCH   1  23
HETATM   23  C           1     -21.542  -6.366  -3.603  0.00  0.00     0.197 C 
HETATM   24  O           1     -20.999  -5.670  -4.488  0.00  0.00    -0.646 OA
HETATM   25  O           1     -22.489  -5.900  -2.934  0.00  0.00    -0.646 OA
ENDBRANCH   1  23
TORSDOF 6
ENDMDL
MODEL 9
REMARK VINA RESULT:      -6.8      4.537      8.238
REMARK  6 active torsions:
REMARK  status: ('A' for Active; 'I' for Inactive)
REMARK       I    between atoms: C_2  and  N_3 
REMARK    1  A    between atoms: C_2  and  C_20 
REMARK    2  A    between atoms: N_3  and  C_11 
REMARK    3  A    between atoms: C_9  and  C_10 
REMARK    4  A    between atoms: C_10  and  C_11 
REMARK    5  A    between atoms: C_11  and  C_13 
REMARK    6  A    between atoms: C_20  and  N_22 
ROOT
HETATM    1  C           1     -21.240  -7.843  -2.971  0.00  0.00     0.190 C 
ENDROOT
BRANCH   1   2
HETATM    2  N           1     -20.328  -8.071  -4.076  0.00  0.00    -0.344 N 
HETATM    3  C           1     -20.724  -8.828  -5.145  0.00  0.00     0.248 C 
HETATM    4  O           1     -21.260  -8.302  -6.092  0.00  0.00    -0.271 OA
HETATM    5  H           1     -19.398  -7.671  -4.055  0.00  0.00     0.163 HD
BRANCH   3   6
HETATM    6  C           1     -20.494 -10.319  -5.142  0.00  0.00     0.270 C 
HETATM    7  C           1     -18.998 -10.602  -5.111  0.00  0.00     0.050 C 
BRANCH   6   8
HETATM    8  N           1     -21.091 -10.920  -6.379  0.00  0.00    -0.067 N 
HETATM    9  H           1     -20.335 -11.353  -6.957  0.00  0.00     0.275 HD
HETATM   10  H           1     -21.785 -11.653  -6.110  0.00  0.00     0.275 HD
HETATM   11  H           1     -21.568 -10.174  -6.933  0.00  0.00     0.275 HD
ENDBRANCH   6   8
ENDBRANCH   3   6
ENDBRANCH   1   2
BRANCH   1  12
HETATM   12  C           1     -20.521  -8.117  -1.656  0.00  0.00     0.077 C 
BRANCH  12  13
HETATM   13  C           1     -20.636  -9.571  -1.318  0.00  0.00    -0.028 A 
HETATM   14  C           1     -21.790 -10.223  -0.803  0.00  0.00    -0.002 A 
HETATM   15  C           1     -23.088  -9.795  -0.462  0.00  0.00     0.014 A 
HETATM   16  C           1     -21.462 -11.569  -0.635  0.00  0.00     0.042 A 
HETATM   17  C           1     -24.009 -10.726   0.034  0.00  0.00     0.001 A 
HETATM   18  C           1     -23.651 -12.063   0.192  0.00  0.00     0.002 A 
HETATM   19  C           1     -22.370 -12.512  -0.140  0.00  0.00     0.030 A 
HETATM   20  N           1     -20.153 -11.718  -1.038  0.00  0.00    -0.365 N 
HETATM   21  C           1     -19.644 -10.516  -1.453  0.00  0.00     0.096 A 
HETATM   22  H           1     -19.621 -12.624  -1.026  0.00  0.00     0.165 HD
ENDBRANCH  12  13
ENDBRANCH   1  12
BRANCH   1  23
HETATM   23  C           1     -21.710  -6.409  -2.998  0.00  0.00     0.197 C 
HETATM   24  O           1     -22.467  -5.983  -2.099  0.00  0.00    -0.646 OA
HETATM   25  O           1     -21.345  -5.647  -3.919  0.00  0.00    -0.646 OA
ENDBRANCH   1  23
TORSDOF 6
ENDMDL
