MODEL 1
REMARK VINA RESULT:      -7.4      0.000      0.000
REMARK  13 active torsions:
REMARK  status: ('A' for Active; 'I' for Inactive)
REMARK    1  A    between atoms: C_2  and  C_4 
REMARK    2  A    between atoms: C_4  and  C_5 
REMARK    3  A    between atoms: C_4  and  N_17 
REMARK    4  A    between atoms: C_5  and  C_6 
REMARK    5  A    between atoms: C_9  and  O_10 
REMARK    6  A    between atoms: O_10  and  P_11 
REMARK    7  A    between atoms: P_11  and  O_13 
REMARK       I    between atoms: N_17  and  C_18 
REMARK    8  A    between atoms: C_18  and  C_19 
REMARK    9  A    between atoms: C_19  and  C_20 
REMARK   10  A    between atoms: C_19  and  N_26 
REMARK   11  A    between atoms: C_20  and  O_21 
REMARK   12  A    between atoms: O_21  and  P_22 
REMARK   13  A    between atoms: P_22  and  O_23 
ROOT
HETATM    1  C           1     -20.574  -7.547  -5.639  0.00  0.00     0.189 C 
ENDROOT
BRANCH   1   2
HETATM    2  C           1     -19.310  -8.343  -5.428  0.00  0.00     0.197 C 
HETATM    3  O           1     -18.533  -8.547  -6.386  0.00  0.00    -0.646 OA
HETATM    4  O           1     -19.039  -8.799  -4.295  0.00  0.00    -0.646 OA
ENDBRANCH   1   2
BRANCH   1   5
HETATM    5  C           1     -20.250  -6.059  -5.596  0.00  0.00     0.074 C 
BRANCH   5   6
HETATM    6  C           1     -20.815  -5.391  -6.811  0.00  0.00    -0.056 A 
HETATM    7  C           1     -20.128  -5.451  -8.023  0.00  0.00     0.010 A 
HETATM    8  C           1     -20.654  -4.827  -9.155  0.00  0.00     0.038 A 
HETATM    9  C           1     -21.868  -4.146  -9.074  0.00  0.00     0.081 A 
HETATM   10  C           1     -22.556  -4.086  -7.863  0.00  0.00     0.038 A 
HETATM   11  C           1     -22.029  -4.709  -6.730  0.00  0.00     0.010 A 
BRANCH   9  12
HETATM   12  O           1     -22.379  -3.540 -10.174  0.00  0.00    -0.247 OA
BRANCH  12  13
HETATM   13  P           1     -23.616  -4.255 -10.927  0.00  0.00     0.411 P 
HETATM   14  O           1     -24.782  -3.343 -10.938  0.00  0.00    -0.624 OA
HETATM   15  O           1     -23.974  -5.502 -10.215  0.00  0.00    -0.624 OA
BRANCH  13  16
HETATM   16  O           1     -23.191  -4.604 -12.445  0.00  0.00    -0.300 OA
HETATM   17  H           1     -23.509  -5.479 -12.593  0.00  0.00     0.223 HD
ENDBRANCH  13  16
ENDBRANCH  12  13
ENDBRANCH   9  12
ENDBRANCH   5   6
ENDBRANCH   1   5
BRANCH   1  18
HETATM   18  N           1     -21.524  -7.864  -4.590  0.00  0.00    -0.344 N 
HETATM   19  C           1     -22.033  -6.866  -3.803  0.00  0.00     0.251 C 
HETATM   20  O           1     -23.046  -6.295  -4.130  0.00  0.00    -0.271 OA
HETATM   21  H           1     -21.811  -8.823  -4.439  0.00  0.00     0.163 HD
BRANCH  19  22
HETATM   22  C           1     -21.329  -6.478  -2.526  0.00  0.00     0.298 C 
BRANCH  22  23
HETATM   23  C           1     -20.914  -7.735  -1.771  0.00  0.00     0.224 C 
BRANCH  23  24
HETATM   24  O           1     -21.988  -8.636  -1.739  0.00  0.00    -0.287 OA
BRANCH  24  25
HETATM   25  P           1     -22.518  -9.052  -0.271  0.00  0.00     0.406 P 
HETATM   26  O           1     -23.152  -7.880   0.374  0.00  0.00    -0.624 OA
HETATM   27  O           1     -23.509 -10.144  -0.395  0.00  0.00    -0.624 OA
BRANCH  25  28
HETATM   28  O           1     -21.274  -9.554   0.629  0.00  0.00    -0.300 OA
HETATM   29  H           1     -21.495  -9.306   1.510  0.00  0.00     0.223 HD
ENDBRANCH  25  28
ENDBRANCH  24  25
ENDBRANCH  23  24
ENDBRANCH  22  23
BRANCH  22  30
HETATM   30  N           1     -22.257  -5.665  -1.672  0.00  0.00    -0.064 N 
HETATM   31  H           1     -21.715  -5.219  -0.898  0.00  0.00     0.275 HD
HETATM   32  H           1     -22.706  -4.923  -2.255  0.00  0.00     0.275 HD
HETATM   33  H           1     -22.993  -6.287  -1.269  0.00  0.00     0.275 HD
ENDBRANCH  22  30
ENDBRANCH  19  22
ENDBRANCH   1  18
TORSDOF 13
ENDMDL
MODEL 2
REMARK VINA RESULT:      -7.3      0.287      1.555
REMARK  13 active torsions:
REMARK  status: ('A' for Active; 'I' for Inactive)
REMARK    1  A    between atoms: C_2  and  C_4 
REMARK    2  A    between atoms: C_4  and  C_5 
REMARK    3  A    between atoms: C_4  and  N_17 
REMARK    4  A    between atoms: C_5  and  C_6 
REMARK    5  A    between atoms: C_9  and  O_10 
REMARK    6  A    between atoms: O_10  and  P_11 
REMARK    7  A    between atoms: P_11  and  O_13 
REMARK       I    between atoms: N_17  and  C_18 
REMARK    8  A    between atoms: C_18  and  C_19 
REMARK    9  A    between atoms: C_19  and  C_20 
REMARK   10  A    between atoms: C_19  and  N_26 
REMARK   11  A    between atoms: C_20  and  O_21 
REMARK   12  A    between atoms: O_21  and  P_22 
REMARK   13  A    between atoms: P_22  and  O_23 
ROOT
HETATM    1  C           1     -20.800  -7.709  -5.584  0.00  0.00     0.189 C 
ENDROOT
BRANCH   1   2
HETATM    2  C           1     -19.604  -8.618  -5.441  0.00  0.00     0.197 C 
HETATM    3  O           1     -18.664  -8.547  -6.261  0.00  0.00    -0.646 OA
HETATM    4  O           1     -19.554  -9.442  -4.501  0.00  0.00    -0.646 OA
ENDBRANCH   1   2
BRANCH   1   5
HETATM    5  C           1     -20.338  -6.257  -5.567  0.00  0.00     0.074 C 
BRANCH   5   6
HETATM    6  C           1     -20.889  -5.545  -6.764  0.00  0.00    -0.056 A 
HETATM    7  C           1     -22.132  -4.918  -6.693  0.00  0.00     0.010 A 
HETATM    8  C           1     -22.645  -4.256  -7.808  0.00  0.00     0.038 A 
HETATM    9  C           1     -21.913  -4.219  -8.994  0.00  0.00     0.081 A 
HETATM   10  C           1     -20.669  -4.846  -9.067  0.00  0.00     0.038 A 
HETATM   11  C           1     -20.156  -5.509  -7.951  0.00  0.00     0.010 A 
BRANCH   9  12
HETATM   12  O           1     -22.411  -3.575 -10.078  0.00  0.00    -0.247 OA
BRANCH  12  13
HETATM   13  P           1     -23.658  -4.248 -10.852  0.00  0.00     0.411 P 
HETATM   14  O           1     -23.994  -5.543 -10.218  0.00  0.00    -0.624 OA
HETATM   15  O           1     -23.297  -4.472 -12.270  0.00  0.00    -0.624 OA
BRANCH  13  16
HETATM   16  O           1     -24.935  -3.263 -10.770  0.00  0.00    -0.300 OA
HETATM   17  H           1     -25.428  -3.562 -10.024  0.00  0.00     0.223 HD
ENDBRANCH  13  16
ENDBRANCH  12  13
ENDBRANCH   9  12
ENDBRANCH   5   6
ENDBRANCH   1   5
BRANCH   1  18
HETATM   18  N           1     -21.714  -7.937  -4.482  0.00  0.00    -0.344 N 
HETATM   19  C           1     -22.123  -6.888  -3.704  0.00  0.00     0.251 C 
HETATM   20  O           1     -23.115  -6.265  -4.000  0.00  0.00    -0.271 OA
HETATM   21  H           1     -22.050  -8.872  -4.289  0.00  0.00     0.163 HD
BRANCH  19  22
HETATM   22  C           1     -21.335  -6.508  -2.474  0.00  0.00     0.298 C 
BRANCH  22  23
HETATM   23  C           1     -20.952  -7.766  -1.706  0.00  0.00     0.224 C 
BRANCH  23  24
HETATM   24  O           1     -22.064  -8.615  -1.615  0.00  0.00    -0.287 OA
BRANCH  24  25
HETATM   25  P           1     -22.621  -8.893  -0.124  0.00  0.00     0.406 P 
HETATM   26  O           1     -23.398 -10.152  -0.116  0.00  0.00    -0.624 OA
HETATM   27  O           1     -21.482  -9.009   0.814  0.00  0.00    -0.624 OA
BRANCH  25  28
HETATM   28  O           1     -23.572  -7.670   0.333  0.00  0.00    -0.300 OA
HETATM   29  H           1     -23.101  -7.241   1.026  0.00  0.00     0.223 HD
ENDBRANCH  25  28
ENDBRANCH  24  25
ENDBRANCH  23  24
ENDBRANCH  22  23
BRANCH  22  30
HETATM   30  N           1     -22.173  -5.623  -1.598  0.00  0.00    -0.064 N 
HETATM   31  H           1     -23.102  -5.468  -2.049  0.00  0.00     0.275 HD
HETATM   32  H           1     -22.310  -6.083  -0.670  0.00  0.00     0.275 HD
HETATM   33  H           1     -21.690  -4.706  -1.467  0.00  0.00     0.275 HD
ENDBRANCH  22  30
ENDBRANCH  19  22
ENDBRANCH   1  18
TORSDOF 13
ENDMDL
MODEL 3
REMARK VINA RESULT:      -6.8      2.077      8.598
REMARK  13 active torsions:
REMARK  status: ('A' for Active; 'I' for Inactive)
REMARK    1  A    between atoms: C_2  and  C_4 
REMARK    2  A    between atoms: C_4  and  C_5 
REMARK    3  A    between atoms: C_4  and  N_17 
REMARK    4  A    between atoms: C_5  and  C_6 
REMARK    5  A    between atoms: C_9  and  O_10 
REMARK    6  A    between atoms: O_10  and  P_11 
REMARK    7  A    between atoms: P_11  and  O_13 
REMARK       I    between atoms: N_17  and  C_18 
REMARK    8  A    between atoms: C_18  and  C_19 
REMARK    9  A    between atoms: C_19  and  C_20 
REMARK   10  A    between atoms: C_19  and  N_26 
REMARK   11  A    between atoms: C_20  and  O_21 
REMARK   12  A    between atoms: O_21  and  P_22 
REMARK   13  A    between atoms: P_22  and  O_23 
ROOT
HETATM    1  C           1     -20.467  -5.267  -6.074  0.00  0.00     0.189 C 
ENDROOT
BRANCH   1   2
HETATM    2  C           1     -19.497  -5.324  -7.229  0.00  0.00     0.197 C 
HETATM    3  O           1     -19.531  -6.286  -8.026  0.00  0.00    -0.646 OA
HETATM    4  O           1     -18.662  -4.407  -7.390  0.00  0.00    -0.646 OA
ENDBRANCH   1   2
BRANCH   1   5
HETATM    5  C           1     -21.157  -6.616  -5.924  0.00  0.00     0.074 C 
BRANCH   5   6
HETATM    6  C           1     -21.058  -7.071  -4.501  0.00  0.00    -0.056 A 
HETATM    7  C           1     -20.246  -8.154  -4.169  0.00  0.00     0.010 A 
HETATM    8  C           1     -20.155  -8.579  -2.843  0.00  0.00     0.038 A 
HETATM    9  C           1     -20.874  -7.917  -1.849  0.00  0.00     0.081 A 
HETATM   10  C           1     -21.687  -6.833  -2.179  0.00  0.00     0.038 A 
HETATM   11  C           1     -21.779  -6.409  -3.506  0.00  0.00     0.010 A 
BRANCH   9  12
HETATM   12  O           1     -20.786  -8.328  -0.561  0.00  0.00    -0.247 OA
BRANCH  12  13
HETATM   13  P           1     -21.968  -9.262   0.020  0.00  0.00     0.411 P 
HETATM   14  O           1     -22.946  -8.426   0.752  0.00  0.00    -0.624 OA
HETATM   15  O           1     -21.395 -10.270   0.940  0.00  0.00    -0.624 OA
BRANCH  13  16
HETATM   16  O           1     -22.711 -10.011  -1.204  0.00  0.00    -0.300 OA
HETATM   17  H           1     -23.517  -9.537  -1.326  0.00  0.00     0.223 HD
ENDBRANCH  13  16
ENDBRANCH  12  13
ENDBRANCH   9  12
ENDBRANCH   5   6
ENDBRANCH   1   5
BRANCH   1  18
HETATM   18  N           1     -21.461  -4.243  -6.330  0.00  0.00    -0.344 N 
HETATM   19  C           1     -22.676  -4.586  -6.858  0.00  0.00     0.251 C 
HETATM   20  O           1     -23.596  -4.869  -6.128  0.00  0.00    -0.271 OA
HETATM   21  H           1     -21.257  -3.275  -6.117  0.00  0.00     0.163 HD
BRANCH  19  22
HETATM   22  C           1     -22.869  -4.610  -8.355  0.00  0.00     0.298 C 
BRANCH  22  23
HETATM   23  C           1     -21.723  -3.866  -9.028  0.00  0.00     0.224 C 
BRANCH  23  24
HETATM   24  O           1     -21.462  -4.443 -10.279  0.00  0.00    -0.287 OA
BRANCH  24  25
HETATM   25  P           1     -22.329  -3.872 -11.516  0.00  0.00     0.406 P 
HETATM   26  O           1     -23.476  -4.773 -11.771  0.00  0.00    -0.624 OA
HETATM   27  O           1     -22.829  -2.519 -11.186  0.00  0.00    -0.624 OA
BRANCH  25  28
HETATM   28  O           1     -21.401  -3.796 -12.835  0.00  0.00    -0.300 OA
HETATM   29  H           1     -21.761  -4.438 -13.424  0.00  0.00     0.223 HD
ENDBRANCH  25  28
ENDBRANCH  24  25
ENDBRANCH  23  24
ENDBRANCH  22  23
BRANCH  22  30
HETATM   30  N           1     -24.169  -3.946  -8.702  0.00  0.00    -0.064 N 
HETATM   31  H           1     -24.001  -2.934  -8.900  0.00  0.00     0.275 HD
HETATM   32  H           1     -24.578  -4.402  -9.549  0.00  0.00     0.275 HD
HETATM   33  H           1     -24.833  -4.039  -7.900  0.00  0.00     0.275 HD
ENDBRANCH  22  30
ENDBRANCH  19  22
ENDBRANCH   1  18
TORSDOF 13
ENDMDL
MODEL 4
REMARK VINA RESULT:      -6.7      1.692      2.375
REMARK  13 active torsions:
REMARK  status: ('A' for Active; 'I' for Inactive)
REMARK    1  A    between atoms: C_2  and  C_4 
REMARK    2  A    between atoms: C_4  and  C_5 
REMARK    3  A    between atoms: C_4  and  N_17 
REMARK    4  A    between atoms: C_5  and  C_6 
REMARK    5  A    between atoms: C_9  and  O_10 
REMARK    6  A    between atoms: O_10  and  P_11 
REMARK    7  A    between atoms: P_11  and  O_13 
REMARK       I    between atoms: N_17  and  C_18 
REMARK    8  A    between atoms: C_18  and  C_19 
REMARK    9  A    between atoms: C_19  and  C_20 
REMARK   10  A    between atoms: C_19  and  N_26 
REMARK   11  A    between atoms: C_20  and  O_21 
REMARK   12  A    between atoms: O_21  and  P_22 
REMARK   13  A    between atoms: P_22  and  O_23 
ROOT
HETATM    1  C           1     -21.074  -8.237  -5.101  0.00  0.00     0.189 C 
ENDROOT
BRANCH   1   2
HETATM    2  C           1     -20.636  -9.622  -5.509  0.00  0.00     0.197 C 
HETATM    3  O           1     -19.426  -9.859  -5.714  0.00  0.00    -0.646 OA
HETATM    4  O           1     -21.482 -10.533  -5.639  0.00  0.00    -0.646 OA
ENDBRANCH   1   2
BRANCH   1   5
HETATM    5  C           1     -20.047  -7.218  -5.577  0.00  0.00     0.074 C 
BRANCH   5   6
HETATM    6  C           1     -20.726  -6.178  -6.413  0.00  0.00    -0.056 A 
HETATM    7  C           1     -20.104  -5.691  -7.562  0.00  0.00     0.010 A 
HETATM    8  C           1     -20.736  -4.722  -8.341  0.00  0.00     0.038 A 
HETATM    9  C           1     -21.993  -4.242  -7.971  0.00  0.00     0.081 A 
HETATM   10  C           1     -22.615  -4.728  -6.822  0.00  0.00     0.038 A 
HETATM   11  C           1     -21.982  -5.698  -6.043  0.00  0.00     0.010 A 
BRANCH   9  12
HETATM   12  O           1     -22.607  -3.300  -8.727  0.00  0.00    -0.247 OA
BRANCH  12  13
HETATM   13  P           1     -23.312  -3.773 -10.101  0.00  0.00     0.411 P 
HETATM   14  O           1     -24.619  -3.094 -10.247  0.00  0.00    -0.624 OA
HETATM   15  O           1     -23.518  -5.238 -10.071  0.00  0.00    -0.624 OA
BRANCH  13  16
HETATM   16  O           1     -22.364  -3.388 -11.351  0.00  0.00    -0.300 OA
HETATM   17  H           1     -21.911  -2.606 -11.082  0.00  0.00     0.223 HD
ENDBRANCH  13  16
ENDBRANCH  12  13
ENDBRANCH   9  12
ENDBRANCH   5   6
ENDBRANCH   1   5
BRANCH   1  18
HETATM   18  N           1     -21.184  -8.172  -3.656  0.00  0.00    -0.344 N 
HETATM   19  C           1     -20.396  -8.972  -2.874  0.00  0.00     0.251 C 
HETATM   20  O           1     -19.313  -8.581  -2.506  0.00  0.00    -0.271 OA
HETATM   21  H           1     -21.842  -7.535  -3.227  0.00  0.00     0.163 HD
BRANCH  19  22
HETATM   22  C           1     -20.879 -10.343  -2.469  0.00  0.00     0.298 C 
BRANCH  22  23
HETATM   23  C           1     -21.463 -10.283  -1.064  0.00  0.00     0.224 C 
BRANCH  23  24
HETATM   24  O           1     -22.562  -9.412  -1.052  0.00  0.00    -0.287 OA
BRANCH  24  25
HETATM   25  P           1     -22.432  -8.124  -0.085  0.00  0.00     0.406 P 
HETATM   26  O           1     -21.260  -8.291   0.803  0.00  0.00    -0.624 OA
HETATM   27  O           1     -22.260  -6.905  -0.907  0.00  0.00    -0.624 OA
BRANCH  25  28
HETATM   28  O           1     -23.769  -7.985   0.810  0.00  0.00    -0.300 OA
HETATM   29  H           1     -23.648  -8.586   1.525  0.00  0.00     0.223 HD
ENDBRANCH  25  28
ENDBRANCH  24  25
ENDBRANCH  23  24
ENDBRANCH  22  23
BRANCH  22  30
HETATM   30  N           1     -19.727 -11.305  -2.490  0.00  0.00    -0.064 N 
HETATM   31  H           1     -20.017 -12.184  -2.974  0.00  0.00     0.275 HD
HETATM   32  H           1     -18.925 -10.875  -3.004  0.00  0.00     0.275 HD
HETATM   33  H           1     -19.438 -11.524  -1.510  0.00  0.00     0.275 HD
ENDBRANCH  22  30
ENDBRANCH  19  22
ENDBRANCH   1  18
TORSDOF 13
ENDMDL
MODEL 5
REMARK VINA RESULT:      -6.6      2.188      8.784
REMARK  13 active torsions:
REMARK  status: ('A' for Active; 'I' for Inactive)
REMARK    1  A    between atoms: C_2  and  C_4 
REMARK    2  A    between atoms: C_4  and  C_5 
REMARK    3  A    between atoms: C_4  and  N_17 
REMARK    4  A    between atoms: C_5  and  C_6 
REMARK    5  A    between atoms: C_9  and  O_10 
REMARK    6  A    between atoms: O_10  and  P_11 
REMARK    7  A    between atoms: P_11  and  O_13 
REMARK       I    between atoms: N_17  and  C_18 
REMARK    8  A    between atoms: C_18  and  C_19 
REMARK    9  A    between atoms: C_19  and  C_20 
REMARK   10  A    between atoms: C_19  and  N_26 
REMARK   11  A    between atoms: C_20  and  O_21 
REMARK   12  A    between atoms: O_21  and  P_22 
REMARK   13  A    between atoms: P_22  and  O_23 
ROOT
HETATM    1  C           1     -21.064  -7.272  -5.630  0.00  0.00     0.189 C 
ENDROOT
BRANCH   1   2
HETATM    2  C           1     -21.699  -6.381  -4.591  0.00  0.00     0.197 C 
HETATM    3  O           1     -22.939  -6.228  -4.571  0.00  0.00    -0.646 OA
HETATM    4  O           1     -20.983  -5.796  -3.747  0.00  0.00    -0.646 OA
ENDBRANCH   1   2
BRANCH   1   5
HETATM    5  C           1     -19.876  -8.002  -5.017  0.00  0.00     0.074 C 
BRANCH   5   6
HETATM    6  C           1     -20.370  -9.054  -4.073  0.00  0.00    -0.056 A 
HETATM    7  C           1     -19.687  -9.301  -2.883  0.00  0.00     0.010 A 
HETATM    8  C           1     -20.147 -10.282  -2.005  0.00  0.00     0.038 A 
HETATM    9  C           1     -21.293 -11.015  -2.316  0.00  0.00     0.081 A 
HETATM   10  C           1     -21.977 -10.768  -3.506  0.00  0.00     0.038 A 
HETATM   11  C           1     -21.515  -9.787  -4.385  0.00  0.00     0.010 A 
BRANCH   9  12
HETATM   12  O           1     -21.740 -11.968  -1.463  0.00  0.00    -0.247 OA
BRANCH  12  13
HETATM   13  P           1     -22.393 -11.488  -0.066  0.00  0.00     0.411 P 
HETATM   14  O           1     -21.330 -11.346   0.955  0.00  0.00    -0.624 OA
HETATM   15  O           1     -23.380 -12.493   0.388  0.00  0.00    -0.624 OA
BRANCH  13  16
HETATM   16  O           1     -23.129 -10.066  -0.277  0.00  0.00    -0.300 OA
HETATM   17  H           1     -22.430  -9.437  -0.345  0.00  0.00     0.223 HD
ENDBRANCH  13  16
ENDBRANCH  12  13
ENDBRANCH   9  12
ENDBRANCH   5   6
ENDBRANCH   1   5
BRANCH   1  18
HETATM   18  N           1     -20.610  -6.464  -6.745  0.00  0.00    -0.344 N 
HETATM   19  C           1     -21.120  -5.207  -6.932  0.00  0.00     0.251 C 
HETATM   20  O           1     -20.585  -4.254  -6.416  0.00  0.00    -0.271 OA
HETATM   21  H           1     -19.916  -6.828  -7.385  0.00  0.00     0.163 HD
BRANCH  19  22
HETATM   22  C           1     -22.351  -5.011  -7.783  0.00  0.00     0.298 C 
BRANCH  22  23
HETATM   23  C           1     -22.017  -4.103  -8.959  0.00  0.00     0.224 C 
BRANCH  23  24
HETATM   24  O           1     -23.148  -3.350  -9.303  0.00  0.00    -0.287 OA
BRANCH  24  25
HETATM   25  P           1     -24.199  -4.067 -10.299  0.00  0.00     0.406 P 
HETATM   26  O           1     -24.982  -3.035 -11.014  0.00  0.00    -0.624 OA
HETATM   27  O           1     -23.462  -4.896 -11.280  0.00  0.00    -0.624 OA
BRANCH  25  28
HETATM   28  O           1     -25.198  -5.005  -9.444  0.00  0.00    -0.300 OA
HETATM   29  H           1     -25.361  -4.527  -8.650  0.00  0.00     0.223 HD
ENDBRANCH  25  28
ENDBRANCH  24  25
ENDBRANCH  23  24
ENDBRANCH  22  23
BRANCH  22  30
HETATM   30  N           1     -23.433  -4.381  -6.956  0.00  0.00    -0.064 N 
HETATM   31  H           1     -24.311  -4.940  -7.048  0.00  0.00     0.275 HD
HETATM   32  H           1     -23.138  -4.360  -5.954  0.00  0.00     0.275 HD
HETATM   33  H           1     -23.604  -3.406  -7.291  0.00  0.00     0.275 HD
ENDBRANCH  22  30
ENDBRANCH  19  22
ENDBRANCH   1  18
TORSDOF 13
ENDMDL
MODEL 6
REMARK VINA RESULT:      -6.5      1.806      3.189
REMARK  13 active torsions:
REMARK  status: ('A' for Active; 'I' for Inactive)
REMARK    1  A    between atoms: C_2  and  C_4 
REMARK    2  A    between atoms: C_4  and  C_5 
REMARK    3  A    between atoms: C_4  and  N_17 
REMARK    4  A    between atoms: C_5  and  C_6 
REMARK    5  A    between atoms: C_9  and  O_10 
REMARK    6  A    between atoms: O_10  and  P_11 
REMARK    7  A    between atoms: P_11  and  O_13 
REMARK       I    between atoms: N_17  and  C_18 
REMARK    8  A    between atoms: C_18  and  C_19 
REMARK    9  A    between atoms: C_19  and  C_20 
REMARK   10  A    between atoms: C_19  and  N_26 
REMARK   11  A    between atoms: C_20  and  O_21 
REMARK   12  A    between atoms: O_21  and  P_22 
REMARK   13  A    between atoms: P_22  and  O_23 
ROOT
HETATM    1  C           1     -20.847  -7.169  -3.975  0.00  0.00     0.189 C 
ENDROOT
BRANCH   1   2
HETATM    2  C           1     -21.364  -6.790  -2.609  0.00  0.00     0.197 C 
HETATM    3  O           1     -20.849  -7.289  -1.586  0.00  0.00    -0.646 OA
HETATM    4  O           1     -22.307  -5.975  -2.501  0.00  0.00    -0.646 OA
ENDBRANCH   1   2
BRANCH   1   5
HETATM    5  C           1     -22.023  -7.424  -4.910  0.00  0.00     0.074 C 
BRANCH   5   6
HETATM    6  C           1     -22.052  -6.369  -5.972  0.00  0.00    -0.056 A 
HETATM    7  C           1     -20.966  -6.215  -6.833  0.00  0.00     0.010 A 
HETATM    8  C           1     -20.993  -5.231  -7.822  0.00  0.00     0.038 A 
HETATM    9  C           1     -22.109  -4.404  -7.951  0.00  0.00     0.081 A 
HETATM   10  C           1     -23.195  -4.557  -7.091  0.00  0.00     0.038 A 
HETATM   11  C           1     -23.167  -5.541  -6.101  0.00  0.00     0.010 A 
BRANCH   9  12
HETATM   12  O           1     -22.136  -3.448  -8.912  0.00  0.00    -0.247 OA
BRANCH  12  13
HETATM   13  P           1     -23.125  -3.666 -10.170  0.00  0.00     0.411 P 
HETATM   14  O           1     -22.484  -3.147 -11.399  0.00  0.00    -0.624 OA
HETATM   15  O           1     -24.393  -2.941  -9.932  0.00  0.00    -0.624 OA
BRANCH  13  16
HETATM   16  O           1     -23.430  -5.242 -10.347  0.00  0.00    -0.300 OA
HETATM   17  H           1     -22.874  -5.671  -9.717  0.00  0.00     0.223 HD
ENDBRANCH  13  16
ENDBRANCH  12  13
ENDBRANCH   9  12
ENDBRANCH   5   6
ENDBRANCH   1   5
BRANCH   1  18
HETATM   18  N           1     -20.045  -8.372  -3.870  0.00  0.00    -0.344 N 
HETATM   19  C           1     -19.851  -9.164  -4.970  0.00  0.00     0.251 C 
HETATM   20  O           1     -18.910  -8.964  -5.700  0.00  0.00    -0.271 OA
HETATM   21  H           1     -19.628  -8.627  -2.983  0.00  0.00     0.163 HD
BRANCH  19  22
HETATM   22  C           1     -20.813 -10.287  -5.270  0.00  0.00     0.298 C 
BRANCH  22  23
HETATM   23  C           1     -20.979 -11.160  -4.034  0.00  0.00     0.224 C 
BRANCH  23  24
HETATM   24  O           1     -22.044 -10.678  -3.261  0.00  0.00    -0.287 OA
BRANCH  24  25
HETATM   25  P           1     -21.855 -10.772  -1.659  0.00  0.00     0.406 P 
HETATM   26  O           1     -22.966 -10.059  -0.990  0.00  0.00    -0.624 OA
HETATM   27  O           1     -21.858 -12.192  -1.244  0.00  0.00    -0.624 OA
BRANCH  25  28
HETATM   28  O           1     -20.451 -10.092  -1.242  0.00  0.00    -0.300 OA
HETATM   29  H           1     -20.244  -9.504  -1.948  0.00  0.00     0.223 HD
ENDBRANCH  25  28
ENDBRANCH  24  25
ENDBRANCH  23  24
ENDBRANCH  22  23
BRANCH  22  30
HETATM   30  N           1     -20.275 -11.116  -6.400  0.00  0.00    -0.064 N 
HETATM   31  H           1     -21.070 -11.504  -6.956  0.00  0.00     0.275 HD
HETATM   32  H           1     -19.679 -10.519  -7.016  0.00  0.00     0.275 HD
HETATM   33  H           1     -19.703 -11.900  -6.014  0.00  0.00     0.275 HD
ENDBRANCH  22  30
ENDBRANCH  19  22
ENDBRANCH   1  18
TORSDOF 13
ENDMDL
MODEL 7
REMARK VINA RESULT:      -6.5      1.904      3.007
REMARK  13 active torsions:
REMARK  status: ('A' for Active; 'I' for Inactive)
REMARK    1  A    between atoms: C_2  and  C_4 
REMARK    2  A    between atoms: C_4  and  C_5 
REMARK    3  A    between atoms: C_4  and  N_17 
REMARK    4  A    between atoms: C_5  and  C_6 
REMARK    5  A    between atoms: C_9  and  O_10 
REMARK    6  A    between atoms: O_10  and  P_11 
REMARK    7  A    between atoms: P_11  and  O_13 
REMARK       I    between atoms: N_17  and  C_18 
REMARK    8  A    between atoms: C_18  and  C_19 
REMARK    9  A    between atoms: C_19  and  C_20 
REMARK   10  A    between atoms: C_19  and  N_26 
REMARK   11  A    between atoms: C_20  and  O_21 
REMARK   12  A    between atoms: O_21  and  P_22 
REMARK   13  A    between atoms: P_22  and  O_23 
ROOT
HETATM    1  C           1     -20.597  -6.252  -4.859  0.00  0.00     0.189 C 
ENDROOT
BRANCH   1   2
HETATM    2  C           1     -22.022  -6.189  -4.367  0.00  0.00     0.197 C 
HETATM    3  O           1     -22.256  -6.065  -3.146  0.00  0.00    -0.646 OA
HETATM    4  O           1     -22.968  -6.261  -5.181  0.00  0.00    -0.646 OA
ENDBRANCH   1   2
BRANCH   1   5
HETATM    5  C           1     -20.166  -4.873  -5.343  0.00  0.00     0.074 C 
BRANCH   5   6
HETATM    6  C           1     -20.617  -4.677  -6.757  0.00  0.00    -0.056 A 
HETATM    7  C           1     -19.860  -5.190  -7.809  0.00  0.00     0.010 A 
HETATM    8  C           1     -20.281  -5.007  -9.126  0.00  0.00     0.038 A 
HETATM    9  C           1     -21.460  -4.311  -9.390  0.00  0.00     0.081 A 
HETATM   10  C           1     -22.218  -3.797  -8.339  0.00  0.00     0.038 A 
HETATM   11  C           1     -21.797  -3.981  -7.021  0.00  0.00     0.010 A 
BRANCH   9  12
HETATM   12  O           1     -21.869  -4.132 -10.670  0.00  0.00    -0.247 OA
BRANCH  12  13
HETATM   13  P           1     -23.428  -4.382 -11.010  0.00  0.00     0.411 P 
HETATM   14  O           1     -24.197  -3.147 -10.740  0.00  0.00    -0.624 OA
HETATM   15  O           1     -23.948  -5.480 -10.164  0.00  0.00    -0.624 OA
BRANCH  13  16
HETATM   16  O           1     -23.581  -4.782 -12.567  0.00  0.00    -0.300 OA
HETATM   17  H           1     -22.701  -4.796 -12.903  0.00  0.00     0.223 HD
ENDBRANCH  13  16
ENDBRANCH  12  13
ENDBRANCH   9  12
ENDBRANCH   5   6
ENDBRANCH   1   5
BRANCH   1  18
HETATM   18  N           1     -20.507  -7.197  -5.955  0.00  0.00    -0.344 N 
HETATM   19  C           1     -20.516  -8.542  -5.701  0.00  0.00     0.251 C 
HETATM   20  O           1     -21.563  -9.144  -5.667  0.00  0.00    -0.271 OA
HETATM   21  H           1     -20.438  -6.863  -6.908  0.00  0.00     0.163 HD
BRANCH  19  22
HETATM   22  C           1     -19.218  -9.274  -5.463  0.00  0.00     0.298 C 
BRANCH  22  23
HETATM   23  C           1     -18.754  -9.037  -4.032  0.00  0.00     0.224 C 
BRANCH  23  24
HETATM   24  O           1     -19.325 -10.002  -3.190  0.00  0.00    -0.287 OA
BRANCH  24  25
HETATM   25  P           1     -20.361  -9.449  -2.081  0.00  0.00     0.406 P 
HETATM   26  O           1     -20.270 -10.285  -0.863  0.00  0.00    -0.624 OA
HETATM   27  O           1     -20.023  -8.048  -1.745  0.00  0.00    -0.624 OA
BRANCH  25  28
HETATM   28  O           1     -21.864  -9.514  -2.667  0.00  0.00    -0.300 OA
HETATM   29  H           1     -22.153  -8.618  -2.698  0.00  0.00     0.223 HD
ENDBRANCH  25  28
ENDBRANCH  24  25
ENDBRANCH  23  24
ENDBRANCH  22  23
BRANCH  22  30
HETATM   30  N           1     -18.177  -8.766  -6.417  0.00  0.00    -0.064 N 
HETATM   31  H           1     -17.602  -9.567  -6.763  0.00  0.00     0.275 HD
HETATM   32  H           1     -18.645  -8.300  -7.227  0.00  0.00     0.275 HD
HETATM   33  H           1     -17.560  -8.080  -5.926  0.00  0.00     0.275 HD
ENDBRANCH  22  30
ENDBRANCH  19  22
ENDBRANCH   1  18
TORSDOF 13
ENDMDL
MODEL 8
REMARK VINA RESULT:      -6.5      3.059      7.528
REMARK  13 active torsions:
REMARK  status: ('A' for Active; 'I' for Inactive)
REMARK    1  A    between atoms: C_2  and  C_4 
REMARK    2  A    between atoms: C_4  and  C_5 
REMARK    3  A    between atoms: C_4  and  N_17 
REMARK    4  A    between atoms: C_5  and  C_6 
REMARK    5  A    between atoms: C_9  and  O_10 
REMARK    6  A    between atoms: O_10  and  P_11 
REMARK    7  A    between atoms: P_11  and  O_13 
REMARK       I    between atoms: N_17  and  C_18 
REMARK    8  A    between atoms: C_18  and  C_19 
REMARK    9  A    between atoms: C_19  and  C_20 
REMARK   10  A    between atoms: C_19  and  N_26 
REMARK   11  A    between atoms: C_20  and  O_21 
REMARK   12  A    between atoms: O_21  and  P_22 
REMARK   13  A    between atoms: P_22  and  O_23 
ROOT
HETATM    1  C           1     -21.373  -7.858  -2.209  0.00  0.00     0.189 C 
ENDROOT
BRANCH   1   2
HETATM    2  C           1     -22.250  -7.727  -0.988  0.00  0.00     0.197 C 
HETATM    3  O           1     -22.494  -8.730  -0.284  0.00  0.00    -0.646 OA
HETATM    4  O           1     -22.731  -6.615  -0.680  0.00  0.00    -0.646 OA
ENDBRANCH   1   2
BRANCH   1   5
HETATM    5  C           1     -19.977  -8.300  -1.787  0.00  0.00     0.074 C 
BRANCH   5   6
HETATM    6  C           1     -19.508  -9.399  -2.689  0.00  0.00    -0.056 A 
HETATM    7  C           1     -18.164  -9.478  -3.051  0.00  0.00     0.010 A 
HETATM    8  C           1     -17.727 -10.501  -3.893  0.00  0.00     0.038 A 
HETATM    9  C           1     -18.635 -11.446  -4.371  0.00  0.00     0.081 A 
HETATM   10  C           1     -19.980 -11.367  -4.010  0.00  0.00     0.038 A 
HETATM   11  C           1     -20.417 -10.342  -3.168  0.00  0.00     0.010 A 
BRANCH   9  12
HETATM   12  O           1     -18.211 -12.440  -5.189  0.00  0.00    -0.247 OA
BRANCH  12  13
HETATM   13  P           1     -18.537 -12.315  -6.765  0.00  0.00     0.411 P 
HETATM   14  O           1     -17.399 -12.845  -7.550  0.00  0.00    -0.624 OA
HETATM   15  O           1     -18.754 -10.893  -7.113  0.00  0.00    -0.624 OA
BRANCH  13  16
HETATM   16  O           1     -19.868 -13.163  -7.107  0.00  0.00    -0.300 OA
HETATM   17  H           1     -20.538 -12.517  -7.256  0.00  0.00     0.223 HD
ENDBRANCH  13  16
ENDBRANCH  12  13
ENDBRANCH   9  12
ENDBRANCH   5   6
ENDBRANCH   1   5
BRANCH   1  18
HETATM   18  N           1     -21.289  -6.576  -2.882  0.00  0.00    -0.344 N 
HETATM   19  C           1     -21.589  -6.482  -4.214  0.00  0.00     0.251 C 
HETATM   20  O           1     -22.722  -6.251  -4.565  0.00  0.00    -0.271 OA
HETATM   21  H           1     -21.011  -5.751  -2.367  0.00  0.00     0.163 HD
BRANCH  19  22
HETATM   22  C           1     -20.504  -6.667  -5.247  0.00  0.00     0.298 C 
BRANCH  22  23
HETATM   23  C           1     -20.462  -5.452  -6.164  0.00  0.00     0.224 C 
BRANCH  23  24
HETATM   24  O           1     -21.275  -5.684  -7.283  0.00  0.00    -0.287 OA
BRANCH  24  25
HETATM   25  P           1     -22.220  -4.456  -7.737  0.00  0.00     0.406 P 
HETATM   26  O           1     -21.522  -3.176  -7.480  0.00  0.00    -0.624 OA
HETATM   27  O           1     -22.522  -4.572  -9.181  0.00  0.00    -0.624 OA
BRANCH  25  28
HETATM   28  O           1     -23.597  -4.495  -6.894  0.00  0.00    -0.300 OA
HETATM   29  H           1     -23.813  -5.409  -6.822  0.00  0.00     0.223 HD
ENDBRANCH  25  28
ENDBRANCH  24  25
ENDBRANCH  23  24
ENDBRANCH  22  23
BRANCH  22  30
HETATM   30  N           1     -20.790  -7.897  -6.057  0.00  0.00    -0.064 N 
HETATM   31  H           1     -20.267  -8.708  -5.656  0.00  0.00     0.275 HD
HETATM   32  H           1     -21.815  -8.098  -6.033  0.00  0.00     0.275 HD
HETATM   33  H           1     -20.488  -7.741  -7.045  0.00  0.00     0.275 HD
ENDBRANCH  22  30
ENDBRANCH  19  22
ENDBRANCH   1  18
TORSDOF 13
ENDMDL
MODEL 9
REMARK VINA RESULT:      -6.4      2.507      9.119
REMARK  13 active torsions:
REMARK  status: ('A' for Active; 'I' for Inactive)
REMARK    1  A    between atoms: C_2  and  C_4 
REMARK    2  A    between atoms: C_4  and  C_5 
REMARK    3  A    between atoms: C_4  and  N_17 
REMARK    4  A    between atoms: C_5  and  C_6 
REMARK    5  A    between atoms: C_9  and  O_10 
REMARK    6  A    between atoms: O_10  and  P_11 
REMARK    7  A    between atoms: P_11  and  O_13 
REMARK       I    between atoms: N_17  and  C_18 
REMARK    8  A    between atoms: C_18  and  C_19 
REMARK    9  A    between atoms: C_19  and  C_20 
REMARK   10  A    between atoms: C_19  and  N_26 
REMARK   11  A    between atoms: C_20  and  O_21 
REMARK   12  A    between atoms: O_21  and  P_22 
REMARK   13  A    between atoms: P_22  and  O_23 
ROOT
HETATM    1  C           1     -21.111  -7.351  -5.455  0.00  0.00     0.189 C 
ENDROOT
BRANCH   1   2
HETATM    2  C           1     -21.952  -6.373  -4.671  0.00  0.00     0.197 C 
HETATM    3  O           1     -21.458  -5.766  -3.697  0.00  0.00    -0.646 OA
HETATM    4  O           1     -23.142  -6.168  -4.998  0.00  0.00    -0.646 OA
ENDBRANCH   1   2
BRANCH   1   5
HETATM    5  C           1     -20.202  -8.116  -4.502  0.00  0.00     0.074 C 
BRANCH   5   6
HETATM    6  C           1     -21.025  -9.050  -3.669  0.00  0.00    -0.056 A 
HETATM    7  C           1     -21.816 -10.020  -4.283  0.00  0.00     0.010 A 
HETATM    8  C           1     -22.584 -10.889  -3.508  0.00  0.00     0.038 A 
HETATM    9  C           1     -22.559 -10.788  -2.117  0.00  0.00     0.081 A 
HETATM   10  C           1     -21.768  -9.817  -1.502  0.00  0.00     0.038 A 
HETATM   11  C           1     -21.001  -8.948  -2.278  0.00  0.00     0.010 A 
BRANCH   9  12
HETATM   12  O           1     -23.304 -11.631  -1.363  0.00  0.00    -0.247 OA
BRANCH  12  13
HETATM   13  P           1     -22.551 -12.854  -0.624  0.00  0.00     0.411 P 
HETATM   14  O           1     -21.365 -13.254  -1.413  0.00  0.00    -0.624 OA
HETATM   15  O           1     -23.476 -14.004  -0.507  0.00  0.00    -0.624 OA
BRANCH  13  16
HETATM   16  O           1     -22.085 -12.385   0.849  0.00  0.00    -0.300 OA
HETATM   17  H           1     -22.520 -12.974   1.443  0.00  0.00     0.223 HD
ENDBRANCH  13  16
ENDBRANCH  12  13
ENDBRANCH   9  12
ENDBRANCH   5   6
ENDBRANCH   1   5
BRANCH   1  18
HETATM   18  N           1     -20.302  -6.628  -6.417  0.00  0.00    -0.344 N 
HETATM   19  C           1     -20.611  -5.333  -6.735  0.00  0.00     0.251 C 
HETATM   20  O           1     -20.130  -4.423  -6.102  0.00  0.00    -0.271 OA
HETATM   21  H           1     -19.508  -7.081  -6.852  0.00  0.00     0.163 HD
BRANCH  19  22
HETATM   22  C           1     -21.552  -5.041  -7.878  0.00  0.00     0.298 C 
BRANCH  22  23
HETATM   23  C           1     -20.830  -4.212  -8.932  0.00  0.00     0.224 C 
BRANCH  23  24
HETATM   24  O           1     -21.135  -4.710 -10.207  0.00  0.00    -0.287 OA
BRANCH  24  25
HETATM   25  P           1     -22.149  -3.816 -11.092  0.00  0.00     0.406 P 
HETATM   26  O           1     -23.312  -3.426 -10.264  0.00  0.00    -0.624 OA
HETATM   27  O           1     -21.450  -2.599 -11.564  0.00  0.00    -0.624 OA
BRANCH  25  28
HETATM   28  O           1     -22.656  -4.673 -12.363  0.00  0.00    -0.300 OA
HETATM   29  H           1     -21.906  -4.737 -12.928  0.00  0.00     0.223 HD
ENDBRANCH  25  28
ENDBRANCH  24  25
ENDBRANCH  23  24
ENDBRANCH  22  23
BRANCH  22  30
HETATM   30  N           1     -22.737  -4.276  -7.365  0.00  0.00    -0.064 N 
HETATM   31  H           1     -23.366  -4.922  -6.838  0.00  0.00     0.275 HD
HETATM   32  H           1     -22.410  -3.514  -6.730  0.00  0.00     0.275 HD
HETATM   33  H           1     -23.258  -3.861  -8.170  0.00  0.00     0.275 HD
ENDBRANCH  22  30
ENDBRANCH  19  22
ENDBRANCH   1  18
TORSDOF 13
ENDMDL
