MODEL 1
REMARK VINA RESULT:      -6.0      0.000      0.000
REMARK  8 active torsions:
REMARK  status: ('A' for Active; 'I' for Inactive)
REMARK    1  A    between atoms: C_1  and  C_14 
REMARK    2  A    between atoms: C_4  and  C_21 
REMARK    3  A    between atoms: C_7  and  C_20 
REMARK    4  A    between atoms: C_9  and  C_10 
REMARK    5  A    between atoms: C_9  and  C_20 
REMARK    6  A    between atoms: C_9  and  N_12 
REMARK       I    between atoms: C_10  and  N_11 
REMARK    7  A    between atoms: N_11  and  C_21 
REMARK    8  A    between atoms: C_14  and  C_21 
ROOT
HETATM    1  C           1     -26.368  -6.440 -18.381  0.00  0.00     0.249 C 
HETATM    2  N           1     -27.678  -6.555 -18.761  0.00  0.00    -0.344 N 
HETATM    3  O           1     -26.088  -6.307 -17.214  0.00  0.00    -0.271 OA
HETATM    4  H           1     -27.913  -6.666 -19.740  0.00  0.00     0.163 HD
ENDROOT
BRANCH   1   5
HETATM    5  C           1     -25.275  -6.478 -19.420  0.00  0.00     0.284 C 
BRANCH   5   6
HETATM    6  C           1     -25.897  -6.503 -20.811  0.00  0.00     0.155 C 
BRANCH   6   7
HETATM    7  C           1     -25.803  -7.897 -21.381  0.00  0.00     0.175 C 
HETATM    8  O           1     -26.757  -8.692 -21.247  0.00  0.00    -0.648 OA
HETATM    9  O           1     -24.771  -8.255 -21.989  0.00  0.00    -0.648 OA
ENDBRANCH   6   7
ENDBRANCH   5   6
BRANCH   5  10
HETATM   10  N           1     -24.443  -7.711 -19.224  0.00  0.00    -0.066 N 
HETATM   11  H           1     -24.926  -8.531 -19.659  0.00  0.00     0.275 HD
HETATM   12  H           1     -23.510  -7.577 -19.676  0.00  0.00     0.275 HD
HETATM   13  H           1     -24.314  -7.886 -18.202  0.00  0.00     0.275 HD
ENDBRANCH   5  10
ENDBRANCH   1   5
BRANCH   2  14
HETATM   14  C           1     -28.729  -6.518 -17.763  0.00  0.00     0.189 C 
BRANCH  14  15
HETATM   15  C           1     -29.435  -7.851 -17.729  0.00  0.00     0.197 C 
HETATM   16  O           1     -29.418  -8.541 -16.686  0.00  0.00    -0.646 OA
HETATM   17  O           1     -30.037  -8.266 -18.743  0.00  0.00    -0.646 OA
ENDBRANCH  14  15
BRANCH  14  18
HETATM   18  C           1     -29.726  -5.424 -18.118  0.00  0.00     0.014 C 
HETATM   19  C           1     -30.843  -5.400 -17.083  0.00  0.00     0.012 C 
BRANCH  18  20
HETATM   20  C           1     -29.017  -4.076 -18.133  0.00  0.00     0.002 C 
HETATM   21  C           1     -28.485  -3.766 -16.740  0.00  0.00     0.005 C 
ENDBRANCH  18  20
ENDBRANCH  14  18
ENDBRANCH   2  14
TORSDOF 8
ENDMDL
MODEL 2
REMARK VINA RESULT:      -5.5      1.599      2.276
REMARK  8 active torsions:
REMARK  status: ('A' for Active; 'I' for Inactive)
REMARK    1  A    between atoms: C_1  and  C_14 
REMARK    2  A    between atoms: C_4  and  C_21 
REMARK    3  A    between atoms: C_7  and  C_20 
REMARK    4  A    between atoms: C_9  and  C_10 
REMARK    5  A    between atoms: C_9  and  C_20 
REMARK    6  A    between atoms: C_9  and  N_12 
REMARK       I    between atoms: C_10  and  N_11 
REMARK    7  A    between atoms: N_11  and  C_21 
REMARK    8  A    between atoms: C_14  and  C_21 
ROOT
HETATM    1  C           1     -26.316  -6.380 -19.059  0.00  0.00     0.249 C 
HETATM    2  N           1     -27.497  -6.109 -18.422  0.00  0.00    -0.344 N 
HETATM    3  O           1     -25.280  -6.369 -18.439  0.00  0.00    -0.271 OA
HETATM    4  H           1     -28.366  -6.117 -18.942  0.00  0.00     0.163 HD
ENDROOT
BRANCH   1   5
HETATM    5  C           1     -26.310  -6.692 -20.536  0.00  0.00     0.284 C 
BRANCH   5   6
HETATM    6  C           1     -25.839  -8.125 -20.749  0.00  0.00     0.155 C 
BRANCH   6   7
HETATM    7  C           1     -24.494  -8.117 -21.434  0.00  0.00     0.175 C 
HETATM    8  O           1     -23.446  -8.114 -20.754  0.00  0.00    -0.648 OA
HETATM    9  O           1     -24.429  -8.114 -22.683  0.00  0.00    -0.648 OA
ENDBRANCH   6   7
ENDBRANCH   5   6
BRANCH   5  10
HETATM   10  N           1     -25.380  -5.750 -21.241  0.00  0.00    -0.066 N 
HETATM   11  H           1     -25.698  -4.766 -21.088  0.00  0.00     0.275 HD
HETATM   12  H           1     -24.413  -5.867 -20.862  0.00  0.00     0.275 HD
HETATM   13  H           1     -25.382  -5.960 -22.265  0.00  0.00     0.275 HD
ENDBRANCH   5  10
ENDBRANCH   1   5
BRANCH   2  14
HETATM   14  C           1     -27.504  -5.808 -17.004  0.00  0.00     0.189 C 
BRANCH  14  15
HETATM   15  C           1     -27.600  -7.093 -16.219  0.00  0.00     0.197 C 
HETATM   16  O           1     -28.619  -7.810 -16.317  0.00  0.00    -0.646 OA
HETATM   17  O           1     -26.661  -7.440 -15.471  0.00  0.00    -0.646 OA
ENDBRANCH  14  15
BRANCH  14  18
HETATM   18  C           1     -28.700  -4.923 -16.679  0.00  0.00     0.014 C 
HETATM   19  C           1     -28.303  -3.461 -16.826  0.00  0.00     0.012 C 
BRANCH  18  20
HETATM   20  C           1     -29.841  -5.240 -17.637  0.00  0.00     0.002 C 
HETATM   21  C           1     -31.169  -4.893 -16.978  0.00  0.00     0.005 C 
ENDBRANCH  18  20
ENDBRANCH  14  18
ENDBRANCH   2  14
TORSDOF 8
ENDMDL
MODEL 3
REMARK VINA RESULT:      -5.5     11.243     12.937
REMARK  8 active torsions:
REMARK  status: ('A' for Active; 'I' for Inactive)
REMARK    1  A    between atoms: C_1  and  C_14 
REMARK    2  A    between atoms: C_4  and  C_21 
REMARK    3  A    between atoms: C_7  and  C_20 
REMARK    4  A    between atoms: C_9  and  C_10 
REMARK    5  A    between atoms: C_9  and  C_20 
REMARK    6  A    between atoms: C_9  and  N_12 
REMARK       I    between atoms: C_10  and  N_11 
REMARK    7  A    between atoms: N_11  and  C_21 
REMARK    8  A    between atoms: C_14  and  C_21 
ROOT
HETATM    1  C           1     -21.680  -4.384  -7.080  0.00  0.00     0.249 C 
HETATM    2  N           1     -22.458  -4.859  -8.101  0.00  0.00    -0.344 N 
HETATM    3  O           1     -21.181  -3.287  -7.161  0.00  0.00    -0.271 OA
HETATM    4  H           1     -22.875  -5.779  -8.034  0.00  0.00     0.163 HD
ENDROOT
BRANCH   1   5
HETATM    5  C           1     -21.446  -5.231  -5.853  0.00  0.00     0.284 C 
BRANCH   5   6
HETATM    6  C           1     -20.396  -6.291  -6.161  0.00  0.00     0.155 C 
BRANCH   6   7
HETATM    7  C           1     -20.706  -7.547  -5.383  0.00  0.00     0.175 C 
HETATM    8  O           1     -20.494  -7.588  -4.153  0.00  0.00    -0.648 OA
HETATM    9  O           1     -21.176  -8.546  -5.970  0.00  0.00    -0.648 OA
ENDBRANCH   6   7
ENDBRANCH   5   6
BRANCH   5  10
HETATM   10  N           1     -22.729  -5.899  -5.456  0.00  0.00    -0.066 N 
HETATM   11  H           1     -23.182  -5.355  -4.686  0.00  0.00     0.275 HD
HETATM   12  H           1     -23.371  -5.936  -6.279  0.00  0.00     0.275 HD
HETATM   13  H           1     -22.529  -6.869  -5.124  0.00  0.00     0.275 HD
ENDBRANCH   5  10
ENDBRANCH   1   5
BRANCH   2  14
HETATM   14  C           1     -22.683  -4.046  -9.281  0.00  0.00     0.189 C 
BRANCH  14  15
HETATM   15  C           1     -24.164  -3.959  -9.554  0.00  0.00     0.197 C 
HETATM   16  O           1     -24.825  -5.000  -9.757  0.00  0.00    -0.646 OA
HETATM   17  O           1     -24.730  -2.844  -9.578  0.00  0.00    -0.646 OA
ENDBRANCH  14  15
BRANCH  14  18
HETATM   18  C           1     -21.982  -4.681 -10.475  0.00  0.00     0.014 C 
HETATM   19  C           1     -22.690  -4.267 -11.757  0.00  0.00     0.012 C 
BRANCH  18  20
HETATM   20  C           1     -20.533  -4.214 -10.520  0.00  0.00     0.002 C 
HETATM   21  C           1     -20.448  -2.892 -11.272  0.00  0.00     0.005 C 
ENDBRANCH  18  20
ENDBRANCH  14  18
ENDBRANCH   2  14
TORSDOF 8
ENDMDL
MODEL 4
REMARK VINA RESULT:      -5.4     13.422     14.847
REMARK  8 active torsions:
REMARK  status: ('A' for Active; 'I' for Inactive)
REMARK    1  A    between atoms: C_1  and  C_14 
REMARK    2  A    between atoms: C_4  and  C_21 
REMARK    3  A    between atoms: C_7  and  C_20 
REMARK    4  A    between atoms: C_9  and  C_10 
REMARK    5  A    between atoms: C_9  and  C_20 
REMARK    6  A    between atoms: C_9  and  N_12 
REMARK       I    between atoms: C_10  and  N_11 
REMARK    7  A    between atoms: N_11  and  C_21 
REMARK    8  A    between atoms: C_14  and  C_21 
ROOT
HETATM    1  C           1     -21.118  -5.337  -6.252  0.00  0.00     0.249 C 
HETATM    2  N           1     -21.598  -6.372  -5.495  0.00  0.00    -0.344 N 
HETATM    3  O           1     -19.942  -5.064  -6.222  0.00  0.00    -0.271 OA
HETATM    4  H           1     -22.584  -6.600  -5.519  0.00  0.00     0.163 HD
ENDROOT
BRANCH   1   5
HETATM    5  C           1     -22.057  -4.538  -7.121  0.00  0.00     0.284 C 
BRANCH   5   6
HETATM    6  C           1     -22.057  -5.113  -8.531  0.00  0.00     0.155 C 
BRANCH   6   7
HETATM    7  C           1     -21.508  -4.088  -9.493  0.00  0.00     0.175 C 
HETATM    8  O           1     -22.289  -3.353 -10.135  0.00  0.00    -0.648 OA
HETATM    9  O           1     -20.273  -3.972  -9.647  0.00  0.00    -0.648 OA
ENDBRANCH   6   7
ENDBRANCH   5   6
BRANCH   5  10
HETATM   10  N           1     -21.604  -3.109  -7.164  0.00  0.00    -0.066 N 
HETATM   11  H           1     -21.165  -2.854  -6.249  0.00  0.00     0.275 HD
HETATM   12  H           1     -20.904  -2.989  -7.931  0.00  0.00     0.275 HD
HETATM   13  H           1     -22.425  -2.487  -7.340  0.00  0.00     0.275 HD
ENDBRANCH   5  10
ENDBRANCH   1   5
BRANCH   2  14
HETATM   14  C           1     -20.697  -7.140  -4.660  0.00  0.00     0.189 C 
BRANCH  14  15
HETATM   15  C           1     -20.283  -8.395  -5.389  0.00  0.00     0.197 C 
HETATM   16  O           1     -19.082  -8.582  -5.679  0.00  0.00    -0.646 OA
HETATM   17  O           1     -21.143  -9.247  -5.703  0.00  0.00    -0.646 OA
ENDBRANCH  14  15
BRANCH  14  18
HETATM   18  C           1     -21.402  -7.514  -3.363  0.00  0.00     0.014 C 
HETATM   19  C           1     -20.425  -8.233  -2.443  0.00  0.00     0.012 C 
BRANCH  18  20
HETATM   20  C           1     -21.911  -6.252  -2.679  0.00  0.00     0.002 C 
HETATM   21  C           1     -22.288  -6.571  -1.239  0.00  0.00     0.005 C 
ENDBRANCH  18  20
ENDBRANCH  14  18
ENDBRANCH   2  14
TORSDOF 8
ENDMDL
MODEL 5
REMARK VINA RESULT:      -5.2     14.128     15.587
REMARK  8 active torsions:
REMARK  status: ('A' for Active; 'I' for Inactive)
REMARK    1  A    between atoms: C_1  and  C_14 
REMARK    2  A    between atoms: C_4  and  C_21 
REMARK    3  A    between atoms: C_7  and  C_20 
REMARK    4  A    between atoms: C_9  and  C_10 
REMARK    5  A    between atoms: C_9  and  C_20 
REMARK    6  A    between atoms: C_9  and  N_12 
REMARK       I    between atoms: C_10  and  N_11 
REMARK    7  A    between atoms: N_11  and  C_21 
REMARK    8  A    between atoms: C_14  and  C_21 
ROOT
HETATM    1  C           1     -21.373  -5.922  -5.483  0.00  0.00     0.249 C 
HETATM    2  N           1     -20.758  -6.760  -4.592  0.00  0.00    -0.344 N 
HETATM    3  O           1     -22.578  -5.851  -5.512  0.00  0.00    -0.271 OA
HETATM    4  H           1     -19.748  -6.821  -4.568  0.00  0.00     0.163 HD
ENDROOT
BRANCH   1   5
HETATM    5  C           1     -20.544  -5.088  -6.429  0.00  0.00     0.284 C 
BRANCH   5   6
HETATM    6  C           1     -21.434  -4.053  -7.106  0.00  0.00     0.155 C 
BRANCH   6   7
HETATM    7  C           1     -21.444  -4.295  -8.595  0.00  0.00     0.175 C 
HETATM    8  O           1     -20.509  -3.867  -9.304  0.00  0.00    -0.648 OA
HETATM    9  O           1     -22.388  -4.925  -9.120  0.00  0.00    -0.648 OA
ENDBRANCH   6   7
ENDBRANCH   5   6
BRANCH   5  10
HETATM   10  N           1     -19.930  -5.976  -7.470  0.00  0.00    -0.066 N 
HETATM   11  H           1     -19.140  -5.473  -7.936  0.00  0.00     0.275 HD
HETATM   12  H           1     -19.570  -6.846  -7.017  0.00  0.00     0.275 HD
HETATM   13  H           1     -20.651  -6.227  -8.184  0.00  0.00     0.275 HD
ENDBRANCH   5  10
ENDBRANCH   1   5
BRANCH   2  14
HETATM   14  C           1     -21.553  -7.562  -3.683  0.00  0.00     0.189 C 
BRANCH  14  15
HETATM   15  C           1     -21.617  -6.881  -2.338  0.00  0.00     0.197 C 
HETATM   16  O           1     -20.976  -7.347  -1.371  0.00  0.00    -0.646 OA
HETATM   17  O           1     -22.310  -5.852  -2.191  0.00  0.00    -0.646 OA
ENDBRANCH  14  15
BRANCH  14  18
HETATM   18  C           1     -20.915  -8.936  -3.528  0.00  0.00     0.014 C 
HETATM   19  C           1     -21.817  -9.988  -4.157  0.00  0.00     0.012 C 
BRANCH  18  20
HETATM   20  C           1     -19.559  -8.947  -4.222  0.00  0.00     0.002 C 
HETATM   21  C           1     -18.483  -9.369  -3.230  0.00  0.00     0.005 C 
ENDBRANCH  18  20
ENDBRANCH  14  18
ENDBRANCH   2  14
TORSDOF 8
ENDMDL
MODEL 6
REMARK VINA RESULT:      -5.2     16.595     17.823
REMARK  8 active torsions:
REMARK  status: ('A' for Active; 'I' for Inactive)
REMARK    1  A    between atoms: C_1  and  C_14 
REMARK    2  A    between atoms: C_4  and  C_21 
REMARK    3  A    between atoms: C_7  and  C_20 
REMARK    4  A    between atoms: C_9  and  C_10 
REMARK    5  A    between atoms: C_9  and  C_20 
REMARK    6  A    between atoms: C_9  and  N_12 
REMARK       I    between atoms: C_10  and  N_11 
REMARK    7  A    between atoms: N_11  and  C_21 
REMARK    8  A    between atoms: C_14  and  C_21 
ROOT
HETATM    1  C           1     -21.334  -7.823  -2.868  0.00  0.00     0.249 C 
HETATM    2  N           1     -21.566  -9.016  -2.238  0.00  0.00    -0.344 N 
HETATM    3  O           1     -20.810  -6.915  -2.268  0.00  0.00    -0.271 OA
HETATM    4  H           1     -22.006  -9.777  -2.740  0.00  0.00     0.163 HD
ENDROOT
BRANCH   1   5
HETATM    5  C           1     -21.731  -7.644  -4.313  0.00  0.00     0.284 C 
BRANCH   5   6
HETATM    6  C           1     -20.482  -7.618  -5.184  0.00  0.00     0.155 C 
BRANCH   6   7
HETATM    7  C           1     -20.503  -6.389  -6.059  0.00  0.00     0.175 C 
HETATM    8  O           1     -20.018  -5.316  -5.640  0.00  0.00    -0.648 OA
HETATM    9  O           1     -21.004  -6.444  -7.203  0.00  0.00    -0.648 OA
ENDBRANCH   6   7
ENDBRANCH   5   6
BRANCH   5  10
HETATM   10  N           1     -22.476  -6.351  -4.469  0.00  0.00    -0.066 N 
HETATM   11  H           1     -21.793  -5.569  -4.596  0.00  0.00     0.275 HD
HETATM   12  H           1     -23.100  -6.408  -5.305  0.00  0.00     0.275 HD
HETATM   13  H           1     -23.051  -6.175  -3.615  0.00  0.00     0.275 HD
ENDBRANCH   5  10
ENDBRANCH   1   5
BRANCH   2  14
HETATM   14  C           1     -21.185  -9.189  -0.849  0.00  0.00     0.189 C 
BRANCH  14  15
HETATM   15  C           1     -20.212 -10.337  -0.736  0.00  0.00     0.197 C 
HETATM   16  O           1     -20.128 -10.981   0.332  0.00  0.00    -0.646 OA
HETATM   17  O           1     -19.491 -10.643  -1.710  0.00  0.00    -0.646 OA
ENDBRANCH  14  15
BRANCH  14  18
HETATM   18  C           1     -22.424  -9.489  -0.017  0.00  0.00     0.014 C 
HETATM   19  C           1     -23.116  -8.183   0.350  0.00  0.00     0.012 C 
BRANCH  18  20
HETATM   20  C           1     -23.378 -10.362  -0.822  0.00  0.00     0.002 C 
HETATM   21  C           1     -23.797 -11.563   0.015  0.00  0.00     0.005 C 
ENDBRANCH  18  20
ENDBRANCH  14  18
ENDBRANCH   2  14
TORSDOF 8
ENDMDL
MODEL 7
REMARK VINA RESULT:      -4.9     17.094     18.170
REMARK  8 active torsions:
REMARK  status: ('A' for Active; 'I' for Inactive)
REMARK    1  A    between atoms: C_1  and  C_14 
REMARK    2  A    between atoms: C_4  and  C_21 
REMARK    3  A    between atoms: C_7  and  C_20 
REMARK    4  A    between atoms: C_9  and  C_10 
REMARK    5  A    between atoms: C_9  and  C_20 
REMARK    6  A    between atoms: C_9  and  N_12 
REMARK       I    between atoms: C_10  and  N_11 
REMARK    7  A    between atoms: N_11  and  C_21 
REMARK    8  A    between atoms: C_14  and  C_21 
ROOT
HETATM    1  C           1     -19.934 -10.631  -1.823  0.00  0.00     0.249 C 
HETATM    2  N           1     -21.114  -9.940  -1.886  0.00  0.00    -0.344 N 
HETATM    3  O           1     -19.596 -11.156  -0.789  0.00  0.00    -0.271 OA
HETATM    4  H           1     -21.397  -9.499  -2.752  0.00  0.00     0.163 HD
ENDROOT
BRANCH   1   5
HETATM    5  C           1     -19.056 -10.737  -3.046  0.00  0.00     0.284 C 
BRANCH   5   6
HETATM    6  C           1     -18.609  -9.345  -3.471  0.00  0.00     0.155 C 
BRANCH   6   7
HETATM    7  C           1     -19.338  -8.944  -4.730  0.00  0.00     0.175 C 
HETATM    8  O           1     -20.505  -8.504  -4.663  0.00  0.00    -0.648 OA
HETATM    9  O           1     -18.773  -9.050  -5.841  0.00  0.00    -0.648 OA
ENDBRANCH   6   7
ENDBRANCH   5   6
BRANCH   5  10
HETATM   10  N           1     -19.830 -11.376  -4.161  0.00  0.00    -0.066 N 
HETATM   11  H           1     -20.852 -11.207  -4.018  0.00  0.00     0.275 HD
HETATM   12  H           1     -19.533 -10.961  -5.073  0.00  0.00     0.275 HD
HETATM   13  H           1     -19.646 -12.404  -4.169  0.00  0.00     0.275 HD
ENDBRANCH   5  10
ENDBRANCH   1   5
BRANCH   2  14
HETATM   14  C           1     -21.958  -9.837  -0.711  0.00  0.00     0.189 C 
BRANCH  14  15
HETATM   15  C           1     -23.241 -10.596  -0.948  0.00  0.00     0.197 C 
HETATM   16  O           1     -24.093 -10.680  -0.037  0.00  0.00    -0.646 OA
HETATM   17  O           1     -23.451 -11.139  -2.054  0.00  0.00    -0.646 OA
ENDBRANCH  14  15
BRANCH  14  18
HETATM   18  C           1     -22.276  -8.372  -0.443  0.00  0.00     0.014 C 
HETATM   19  C           1     -21.973  -8.047   1.014  0.00  0.00     0.012 C 
BRANCH  18  20
HETATM   20  C           1     -21.423  -7.493  -1.348  0.00  0.00     0.002 C 
HETATM   21  C           1     -22.240  -6.291  -1.805  0.00  0.00     0.005 C 
ENDBRANCH  18  20
ENDBRANCH  14  18
ENDBRANCH   2  14
TORSDOF 8
ENDMDL
MODEL 8
REMARK VINA RESULT:      -4.9     15.995     17.265
REMARK  8 active torsions:
REMARK  status: ('A' for Active; 'I' for Inactive)
REMARK    1  A    between atoms: C_1  and  C_14 
REMARK    2  A    between atoms: C_4  and  C_21 
REMARK    3  A    between atoms: C_7  and  C_20 
REMARK    4  A    between atoms: C_9  and  C_10 
REMARK    5  A    between atoms: C_9  and  C_20 
REMARK    6  A    between atoms: C_9  and  N_12 
REMARK       I    between atoms: C_10  and  N_11 
REMARK    7  A    between atoms: N_11  and  C_21 
REMARK    8  A    between atoms: C_14  and  C_21 
ROOT
HETATM    1  C           1     -19.881  -8.320  -4.037  0.00  0.00     0.249 C 
HETATM    2  N           1     -20.863  -8.263  -3.084  0.00  0.00    -0.344 N 
HETATM    3  O           1     -18.840  -8.883  -3.798  0.00  0.00    -0.271 OA
HETATM    4  H           1     -21.735  -7.791  -3.284  0.00  0.00     0.163 HD
ENDROOT
BRANCH   1   5
HETATM    5  C           1     -20.101  -7.680  -5.385  0.00  0.00     0.284 C 
BRANCH   5   6
HETATM    6  C           1     -20.364  -6.190  -5.203  0.00  0.00     0.155 C 
BRANCH   6   7
HETATM    7  C           1     -21.803  -5.887  -5.541  0.00  0.00     0.175 C 
HETATM    8  O           1     -22.716  -6.247  -4.767  0.00  0.00    -0.648 OA
HETATM    9  O           1     -22.082  -5.275  -6.594  0.00  0.00    -0.648 OA
ENDBRANCH   6   7
ENDBRANCH   5   6
BRANCH   5  10
HETATM   10  N           1     -21.283  -8.317  -6.053  0.00  0.00    -0.066 N 
HETATM   11  H           1     -20.990  -8.717  -6.974  0.00  0.00     0.275 HD
HETATM   12  H           1     -21.657  -9.081  -5.446  0.00  0.00     0.275 HD
HETATM   13  H           1     -22.026  -7.598  -6.208  0.00  0.00     0.275 HD
ENDBRANCH   5  10
ENDBRANCH   1   5
BRANCH   2  14
HETATM   14  C           1     -20.652  -8.878  -1.788  0.00  0.00     0.189 C 
BRANCH  14  15
HETATM   15  C           1     -21.393 -10.191  -1.729  0.00  0.00     0.197 C 
HETATM   16  O           1     -20.887 -11.168  -1.136  0.00  0.00    -0.646 OA
HETATM   17  O           1     -22.513 -10.301  -2.274  0.00  0.00    -0.646 OA
ENDBRANCH  14  15
BRANCH  14  18
HETATM   18  C           1     -21.172  -7.951  -0.697  0.00  0.00     0.014 C 
HETATM   19  C           1     -22.150  -6.954  -1.303  0.00  0.00     0.012 C 
BRANCH  18  20
HETATM   20  C           1     -21.879  -8.773   0.373  0.00  0.00     0.002 C 
HETATM   21  C           1     -23.250  -8.171   0.653  0.00  0.00     0.005 C 
ENDBRANCH  18  20
ENDBRANCH  14  18
ENDBRANCH   2  14
TORSDOF 8
ENDMDL
MODEL 9
REMARK VINA RESULT:      -4.7     17.891     19.347
REMARK  8 active torsions:
REMARK  status: ('A' for Active; 'I' for Inactive)
REMARK    1  A    between atoms: C_1  and  C_14 
REMARK    2  A    between atoms: C_4  and  C_21 
REMARK    3  A    between atoms: C_7  and  C_20 
REMARK    4  A    between atoms: C_9  and  C_10 
REMARK    5  A    between atoms: C_9  and  C_20 
REMARK    6  A    between atoms: C_9  and  N_12 
REMARK       I    between atoms: C_10  and  N_11 
REMARK    7  A    between atoms: N_11  and  C_21 
REMARK    8  A    between atoms: C_14  and  C_21 
ROOT
HETATM    1  C           1     -22.659 -11.015  -2.314  0.00  0.00     0.249 C 
HETATM    2  N           1     -21.878 -10.189  -1.551  0.00  0.00    -0.344 N 
HETATM    3  O           1     -22.896 -10.730  -3.463  0.00  0.00    -0.271 OA
HETATM    4  H           1     -21.680 -10.427  -0.587  0.00  0.00     0.163 HD
ENDROOT
BRANCH   1   5
HETATM    5  C           1     -23.222 -12.282  -1.719  0.00  0.00     0.284 C 
BRANCH   5   6
HETATM    6  C           1     -23.775 -11.988  -0.330  0.00  0.00     0.155 C 
BRANCH   6   7
HETATM    7  C           1     -22.875 -12.607   0.712  0.00  0.00     0.175 C 
HETATM    8  O           1     -23.233 -13.643   1.310  0.00  0.00    -0.648 OA
HETATM    9  O           1     -21.771 -12.083   0.974  0.00  0.00    -0.648 OA
ENDBRANCH   6   7
ENDBRANCH   5   6
BRANCH   5  10
HETATM   10  N           1     -22.135 -13.311  -1.616  0.00  0.00    -0.066 N 
HETATM   11  H           1     -21.378 -13.088  -2.302  0.00  0.00     0.275 HD
HETATM   12  H           1     -21.741 -13.305  -0.649  0.00  0.00     0.275 HD
HETATM   13  H           1     -22.528 -14.256  -1.828  0.00  0.00     0.275 HD
ENDBRANCH   5  10
ENDBRANCH   1   5
BRANCH   2  14
HETATM   14  C           1     -21.337  -8.971  -2.122  0.00  0.00     0.189 C 
BRANCH  14  15
HETATM   15  C           1     -19.940  -9.232  -2.628  0.00  0.00     0.197 C 
HETATM   16  O           1     -19.537  -8.670  -3.669  0.00  0.00    -0.646 OA
HETATM   17  O           1     -19.185 -10.010  -2.005  0.00  0.00    -0.646 OA
ENDBRANCH  14  15
BRANCH  14  18
HETATM   18  C           1     -21.297  -7.885  -1.055  0.00  0.00     0.014 C 
HETATM   19  C           1     -22.221  -6.744  -1.457  0.00  0.00     0.012 C 
BRANCH  18  20
HETATM   20  C           1     -21.755  -8.466   0.277  0.00  0.00     0.002 C 
HETATM   21  C           1     -23.122  -7.898   0.636  0.00  0.00     0.005 C 
ENDBRANCH  18  20
ENDBRANCH  14  18
ENDBRANCH   2  14
TORSDOF 8
ENDMDL
