MODEL 1
REMARK VINA RESULT:      -6.2      0.000      0.000
REMARK  10 active torsions:
REMARK  status: ('A' for Active; 'I' for Inactive)
REMARK    1  A    between atoms: C_1  and  C_22 
REMARK    2  A    between atoms: C_1  and  C_2 
REMARK    3  A    between atoms: C_1  and  N_6 
REMARK    4  A    between atoms: C_2  and  C_3 
REMARK    5  A    between atoms: C_3  and  Se_4 
REMARK    6  A    between atoms: C_10  and  C_12 
REMARK    7  A    between atoms: C_12  and  C_13 
REMARK    8  A    between atoms: C_13  and  C_14 
REMARK    9  A    between atoms: C_14  and  C_18 
REMARK   10  A    between atoms: C_14  and  N_21 
REMARK       I    between atoms: N_21  and  C_22 
ROOT
HETATM    1  O           1     -33.881  -1.707 -11.239  0.00  0.00    -0.271 OA
HETATM    2  H           1     -36.058  -2.164 -13.451  0.00  0.00     0.163 HD
HETATM    3  N           1     -35.518  -1.663 -12.757  0.00  0.00    -0.345 N 
HETATM    4  C           1     -34.525  -2.305 -12.068  0.00  0.00     0.249 C 
ENDROOT
BRANCH   3   5
HETATM    5  C           1     -35.798  -0.265 -12.492  0.00  0.00     0.186 C 
BRANCH   5   6
HETATM    6  C           1     -36.335   0.393 -13.756  0.00  0.00     0.046 C 
BRANCH   6   7
HETATM    7  C           1     -35.264   0.370 -14.837  0.00  0.00     0.116 C 
BRANCH   7   8
HETATM    8  C           1     -35.600  -0.689 -15.858  0.00  0.00     0.172 C 
HETATM    9  O           1     -36.316  -0.403 -16.842  0.00  0.00    -0.648 OA
HETATM   10  O           1     -35.164  -1.851 -15.719  0.00  0.00    -0.648 OA
ENDBRANCH   7   8
ENDBRANCH   6   7
ENDBRANCH   5   6
BRANCH   5  11
HETATM   11  C           1     -36.825  -0.157 -11.392  0.00  0.00     0.196 C 
HETATM   12  O           1     -36.584   0.535 -10.378  0.00  0.00    -0.646 OA
HETATM   13  O           1     -37.915  -0.759 -11.493  0.00  0.00    -0.646 OA
ENDBRANCH   5  11
ENDBRANCH   3   5
BRANCH   4  14
HETATM   14  C           1     -34.234  -3.759 -12.343  0.00  0.00     0.274 C 
BRANCH  14  15
HETATM   15  C           1     -33.045  -4.208 -11.505  0.00  0.00     0.042 C 
BRANCH  15  16
HETATM   16  C           1     -33.152  -5.702 -11.230  0.00  0.00     0.003 C 
BRANCH  16  17
HETATM   17 Se           1     -34.826  -6.074 -10.302  0.00  0.00     0.000 Se
HETATM   18  C           1     -34.461  -7.974 -10.063  0.00  0.00     0.000 C 
ENDBRANCH  16  17
ENDBRANCH  15  16
ENDBRANCH  14  15
BRANCH  14  19
HETATM   19  N           1     -33.916  -3.939 -13.798  0.00  0.00    -0.067 N 
HETATM   20  H           1     -34.804  -3.984 -14.347  0.00  0.00     0.275 HD
HETATM   21  H           1     -33.342  -3.132 -14.131  0.00  0.00     0.275 HD
HETATM   22  H           1     -33.380  -4.827 -13.930  0.00  0.00     0.275 HD
ENDBRANCH  14  19
ENDBRANCH   4  14
TORSDOF 10
ENDMDL
MODEL 2
REMARK VINA RESULT:      -5.6     13.393     15.460
REMARK  10 active torsions:
REMARK  status: ('A' for Active; 'I' for Inactive)
REMARK    1  A    between atoms: C_1  and  C_22 
REMARK    2  A    between atoms: C_1  and  C_2 
REMARK    3  A    between atoms: C_1  and  N_6 
REMARK    4  A    between atoms: C_2  and  C_3 
REMARK    5  A    between atoms: C_3  and  Se_4 
REMARK    6  A    between atoms: C_10  and  C_12 
REMARK    7  A    between atoms: C_12  and  C_13 
REMARK    8  A    between atoms: C_13  and  C_14 
REMARK    9  A    between atoms: C_14  and  C_18 
REMARK   10  A    between atoms: C_14  and  N_21 
REMARK       I    between atoms: N_21  and  C_22 
ROOT
HETATM    1  O           1     -21.186  -7.302  -6.623  0.00  0.00    -0.271 OA
HETATM    2  H           1     -21.378  -4.234  -5.997  0.00  0.00     0.163 HD
HETATM    3  N           1     -21.365  -5.077  -6.556  0.00  0.00    -0.345 N 
HETATM    4  C           1     -21.202  -6.295  -5.955  0.00  0.00     0.249 C 
ENDROOT
BRANCH   3   5
HETATM    5  C           1     -21.517  -4.993  -7.996  0.00  0.00     0.186 C 
BRANCH   5   6
HETATM    6  C           1     -22.587  -3.963  -8.334  0.00  0.00     0.046 C 
BRANCH   6   7
HETATM    7  C           1     -23.567  -4.558  -9.336  0.00  0.00     0.116 C 
BRANCH   7   8
HETATM    8  C           1     -23.821  -3.564 -10.443  0.00  0.00     0.172 C 
HETATM    9  O           1     -24.994  -3.266 -10.757  0.00  0.00    -0.648 OA
HETATM   10  O           1     -22.860  -3.040 -11.045  0.00  0.00    -0.648 OA
ENDBRANCH   7   8
ENDBRANCH   6   7
ENDBRANCH   5   6
BRANCH   5  11
HETATM   11  C           1     -20.206  -4.581  -8.618  0.00  0.00     0.196 C 
HETATM   12  O           1     -19.288  -4.129  -7.899  0.00  0.00    -0.646 OA
HETATM   13  O           1     -20.038  -4.689  -9.851  0.00  0.00    -0.646 OA
ENDBRANCH   5  11
ENDBRANCH   3   5
BRANCH   4  14
HETATM   14  C           1     -21.042  -6.382  -4.457  0.00  0.00     0.274 C 
BRANCH  14  15
HETATM   15  C           1     -20.539  -7.768  -4.078  0.00  0.00     0.042 C 
BRANCH  15  16
HETATM   16  C           1     -21.490  -8.395  -3.067  0.00  0.00     0.003 C 
BRANCH  16  17
HETATM   17 Se           1     -20.733  -8.237  -1.277  0.00  0.00     0.000 Se
HETATM   18  C           1     -22.318  -7.409  -0.503  0.00  0.00     0.000 C 
ENDBRANCH  16  17
ENDBRANCH  15  16
ENDBRANCH  14  15
BRANCH  14  19
HETATM   19  N           1     -22.367  -6.135  -3.798  0.00  0.00    -0.067 N 
HETATM   20  H           1     -22.241  -6.107  -2.761  0.00  0.00     0.275 HD
HETATM   21  H           1     -22.753  -5.221  -4.126  0.00  0.00     0.275 HD
HETATM   22  H           1     -23.029  -6.904  -4.049  0.00  0.00     0.275 HD
ENDBRANCH  14  19
ENDBRANCH   4  14
TORSDOF 10
ENDMDL
MODEL 3
REMARK VINA RESULT:      -5.5      4.473      6.339
REMARK  10 active torsions:
REMARK  status: ('A' for Active; 'I' for Inactive)
REMARK    1  A    between atoms: C_1  and  C_22 
REMARK    2  A    between atoms: C_1  and  C_2 
REMARK    3  A    between atoms: C_1  and  N_6 
REMARK    4  A    between atoms: C_2  and  C_3 
REMARK    5  A    between atoms: C_3  and  Se_4 
REMARK    6  A    between atoms: C_10  and  C_12 
REMARK    7  A    between atoms: C_12  and  C_13 
REMARK    8  A    between atoms: C_13  and  C_14 
REMARK    9  A    between atoms: C_14  and  C_18 
REMARK   10  A    between atoms: C_14  and  N_21 
REMARK       I    between atoms: N_21  and  C_22 
ROOT
HETATM    1  O           1     -34.976  -4.732 -15.616  0.00  0.00    -0.271 OA
HETATM    2  H           1     -32.356  -3.824 -14.149  0.00  0.00     0.163 HD
HETATM    3  N           1     -33.334  -4.058 -14.261  0.00  0.00    -0.345 N 
HETATM    4  C           1     -33.808  -4.453 -15.482  0.00  0.00     0.249 C 
ENDROOT
BRANCH   3   5
HETATM    5  C           1     -34.233  -3.972 -13.127  0.00  0.00     0.186 C 
BRANCH   5   6
HETATM    6  C           1     -33.568  -4.590 -11.904  0.00  0.00     0.046 C 
BRANCH   6   7
HETATM    7  C           1     -34.638  -5.082 -10.938  0.00  0.00     0.116 C 
BRANCH   7   8
HETATM    8  C           1     -34.278  -6.464 -10.449  0.00  0.00     0.172 C 
HETATM    9  O           1     -35.077  -7.098  -9.727  0.00  0.00    -0.648 OA
HETATM   10  O           1     -33.182  -6.973 -10.765  0.00  0.00    -0.648 OA
ENDBRANCH   7   8
ENDBRANCH   6   7
ENDBRANCH   5   6
BRANCH   5  11
HETATM   11  C           1     -34.555  -2.524 -12.847  0.00  0.00     0.196 C 
HETATM   12  O           1     -34.214  -2.007 -11.762  0.00  0.00    -0.646 OA
HETATM   13  O           1     -35.162  -1.844 -13.701  0.00  0.00    -0.646 OA
ENDBRANCH   5  11
ENDBRANCH   3   5
BRANCH   4  14
HETATM   14  C           1     -32.873  -4.541 -16.663  0.00  0.00     0.274 C 
BRANCH  14  15
HETATM   15  C           1     -31.447  -4.744 -16.170  0.00  0.00     0.042 C 
BRANCH  15  16
HETATM   16  C           1     -30.679  -5.597 -17.171  0.00  0.00     0.003 C 
BRANCH  16  17
HETATM   17 Se           1     -29.328  -4.505 -18.055  0.00  0.00     0.000 Se
HETATM   18  C           1     -28.202  -6.015 -18.557  0.00  0.00     0.000 C 
ENDBRANCH  16  17
ENDBRANCH  15  16
ENDBRANCH  14  15
BRANCH  14  19
HETATM   19  N           1     -32.950  -3.271 -17.457  0.00  0.00    -0.067 N 
HETATM   20  H           1     -32.933  -2.452 -16.808  0.00  0.00     0.275 HD
HETATM   21  H           1     -32.133  -3.216 -18.107  0.00  0.00     0.275 HD
HETATM   22  H           1     -33.837  -3.259 -18.010  0.00  0.00     0.275 HD
ENDBRANCH  14  19
ENDBRANCH   4  14
TORSDOF 10
ENDMDL
MODEL 4
REMARK VINA RESULT:      -5.2      6.732      9.283
REMARK  10 active torsions:
REMARK  status: ('A' for Active; 'I' for Inactive)
REMARK    1  A    between atoms: C_1  and  C_22 
REMARK    2  A    between atoms: C_1  and  C_2 
REMARK    3  A    between atoms: C_1  and  N_6 
REMARK    4  A    between atoms: C_2  and  C_3 
REMARK    5  A    between atoms: C_3  and  Se_4 
REMARK    6  A    between atoms: C_10  and  C_12 
REMARK    7  A    between atoms: C_12  and  C_13 
REMARK    8  A    between atoms: C_13  and  C_14 
REMARK    9  A    between atoms: C_14  and  C_18 
REMARK   10  A    between atoms: C_14  and  N_21 
REMARK       I    between atoms: N_21  and  C_22 
ROOT
HETATM    1  O           1     -31.166  -2.924 -17.651  0.00  0.00    -0.271 OA
HETATM    2  H           1     -30.973  -5.936 -16.793  0.00  0.00     0.163 HD
HETATM    3  N           1     -30.661  -5.040 -17.144  0.00  0.00    -0.345 N 
HETATM    4  C           1     -31.539  -3.994 -17.231  0.00  0.00     0.249 C 
ENDROOT
BRANCH   3   5
HETATM    5  C           1     -29.282  -4.864 -17.557  0.00  0.00     0.186 C 
BRANCH   5   6
HETATM    6  C           1     -28.388  -4.800 -16.326  0.00  0.00     0.046 C 
BRANCH   6   7
HETATM    7  C           1     -28.095  -6.212 -15.836  0.00  0.00     0.116 C 
BRANCH   7   8
HETATM    8  C           1     -26.606  -6.455 -15.858  0.00  0.00     0.172 C 
HETATM    9  O           1     -26.135  -7.493 -15.345  0.00  0.00    -0.648 OA
HETATM   10  O           1     -25.845  -5.619 -16.389  0.00  0.00    -0.648 OA
ENDBRANCH   7   8
ENDBRANCH   6   7
ENDBRANCH   5   6
BRANCH   5  11
HETATM   11  C           1     -28.864  -6.027 -18.423  0.00  0.00     0.196 C 
HETATM   12  O           1     -29.544  -7.076 -18.432  0.00  0.00    -0.646 OA
HETATM   13  O           1     -27.838  -5.942 -19.131  0.00  0.00    -0.646 OA
ENDBRANCH   5  11
ENDBRANCH   3   5
BRANCH   4  14
HETATM   14  C           1     -32.975  -4.177 -16.802  0.00  0.00     0.274 C 
BRANCH  14  15
HETATM   15  C           1     -33.794  -2.969 -17.237  0.00  0.00     0.042 C 
BRANCH  15  16
HETATM   16  C           1     -34.886  -2.700 -16.211  0.00  0.00     0.003 C 
BRANCH  16  17
HETATM   17 Se           1     -35.832  -1.062 -16.683  0.00  0.00     0.000 Se
HETATM   18  C           1     -35.586  -0.224 -14.940  0.00  0.00     0.000 C 
ENDBRANCH  16  17
ENDBRANCH  15  16
ENDBRANCH  14  15
BRANCH  14  19
HETATM   19  N           1     -33.036  -4.310 -15.309  0.00  0.00    -0.067 N 
HETATM   20  H           1     -32.900  -3.372 -14.869  0.00  0.00     0.275 HD
HETATM   21  H           1     -33.969  -4.692 -15.032  0.00  0.00     0.275 HD
HETATM   22  H           1     -32.283  -4.959 -14.986  0.00  0.00     0.275 HD
ENDBRANCH  14  19
ENDBRANCH   4  14
TORSDOF 10
ENDMDL
MODEL 5
REMARK VINA RESULT:      -5.2     15.826     17.674
REMARK  10 active torsions:
REMARK  status: ('A' for Active; 'I' for Inactive)
REMARK    1  A    between atoms: C_1  and  C_22 
REMARK    2  A    between atoms: C_1  and  C_2 
REMARK    3  A    between atoms: C_1  and  N_6 
REMARK    4  A    between atoms: C_2  and  C_3 
REMARK    5  A    between atoms: C_3  and  Se_4 
REMARK    6  A    between atoms: C_10  and  C_12 
REMARK    7  A    between atoms: C_12  and  C_13 
REMARK    8  A    between atoms: C_13  and  C_14 
REMARK    9  A    between atoms: C_14  and  C_18 
REMARK   10  A    between atoms: C_14  and  N_21 
REMARK       I    between atoms: N_21  and  C_22 
ROOT
HETATM    1  O           1     -19.595  -7.305  -5.953  0.00  0.00    -0.271 OA
HETATM    2  H           1     -22.487  -7.558  -4.764  0.00  0.00     0.163 HD
HETATM    3  N           1     -21.513  -7.786  -4.915  0.00  0.00    -0.345 N 
HETATM    4  C           1     -20.759  -7.033  -5.773  0.00  0.00     0.249 C 
ENDROOT
BRANCH   3   5
HETATM    5  C           1     -20.917  -8.912  -4.223  0.00  0.00     0.186 C 
BRANCH   5   6
HETATM    6  C           1     -21.383  -8.922  -2.773  0.00  0.00     0.046 C 
BRANCH   6   7
HETATM    7  C           1     -20.903  -7.657  -2.076  0.00  0.00     0.116 C 
BRANCH   7   8
HETATM    8  C           1     -22.076  -6.742  -1.824  0.00  0.00     0.172 C 
HETATM    9  O           1     -22.435  -5.930  -2.703  0.00  0.00    -0.648 OA
HETATM   10  O           1     -22.690  -6.798  -0.737  0.00  0.00    -0.648 OA
ENDBRANCH   7   8
ENDBRANCH   6   7
ENDBRANCH   5   6
BRANCH   5  11
HETATM   11  C           1     -21.337 -10.196  -4.896  0.00  0.00     0.196 C 
HETATM   12  O           1     -22.088 -10.998  -4.299  0.00  0.00    -0.646 OA
HETATM   13  O           1     -20.934 -10.458  -6.049  0.00  0.00    -0.646 OA
ENDBRANCH   5  11
ENDBRANCH   3   5
BRANCH   4  14
HETATM   14  C           1     -21.378  -5.861  -6.494  0.00  0.00     0.274 C 
BRANCH  14  15
HETATM   15  C           1     -20.396  -4.698  -6.515  0.00  0.00     0.042 C 
BRANCH  15  16
HETATM   16  C           1     -19.919  -4.462  -7.941  0.00  0.00     0.003 C 
BRANCH  16  17
HETATM   17 Se           1     -21.460  -4.256  -9.117  0.00  0.00     0.000 Se
HETATM   18  C           1     -20.423  -4.352 -10.764  0.00  0.00     0.000 C 
ENDBRANCH  16  17
ENDBRANCH  15  16
ENDBRANCH  14  15
BRANCH  14  19
HETATM   19  N           1     -22.631  -5.443  -5.782  0.00  0.00    -0.067 N 
HETATM   20  H           1     -22.452  -4.565  -5.246  0.00  0.00     0.275 HD
HETATM   21  H           1     -23.389  -5.275  -6.482  0.00  0.00     0.275 HD
HETATM   22  H           1     -22.926  -6.200  -5.124  0.00  0.00     0.275 HD
ENDBRANCH  14  19
ENDBRANCH   4  14
TORSDOF 10
ENDMDL
MODEL 6
REMARK VINA RESULT:      -5.1     15.307     17.258
REMARK  10 active torsions:
REMARK  status: ('A' for Active; 'I' for Inactive)
REMARK    1  A    between atoms: C_1  and  C_22 
REMARK    2  A    between atoms: C_1  and  C_2 
REMARK    3  A    between atoms: C_1  and  N_6 
REMARK    4  A    between atoms: C_2  and  C_3 
REMARK    5  A    between atoms: C_3  and  Se_4 
REMARK    6  A    between atoms: C_10  and  C_12 
REMARK    7  A    between atoms: C_12  and  C_13 
REMARK    8  A    between atoms: C_13  and  C_14 
REMARK    9  A    between atoms: C_14  and  C_18 
REMARK   10  A    between atoms: C_14  and  N_21 
REMARK       I    between atoms: N_21  and  C_22 
ROOT
HETATM    1  O           1     -19.687  -4.442  -5.162  0.00  0.00    -0.271 OA
HETATM    2  H           1     -22.074  -6.112  -6.327  0.00  0.00     0.163 HD
HETATM    3  N           1     -21.330  -5.860  -5.689  0.00  0.00    -0.345 N 
HETATM    4  C           1     -20.576  -4.742  -5.923  0.00  0.00     0.249 C 
ENDROOT
BRANCH   3   5
HETATM    5  C           1     -21.061  -6.686  -4.528  0.00  0.00     0.186 C 
BRANCH   5   6
HETATM    6  C           1     -22.256  -6.642  -3.586  0.00  0.00     0.046 C 
BRANCH   6   7
HETATM    7  C           1     -21.823  -6.075  -2.240  0.00  0.00     0.116 C 
BRANCH   7   8
HETATM    8  C           1     -21.959  -7.138  -1.178  0.00  0.00     0.172 C 
HETATM    9  O           1     -21.070  -8.006  -1.045  0.00  0.00    -0.648 OA
HETATM   10  O           1     -22.961  -7.150  -0.432  0.00  0.00    -0.648 OA
ENDBRANCH   7   8
ENDBRANCH   6   7
ENDBRANCH   5   6
BRANCH   5  11
HETATM   11  C           1     -20.818  -8.110  -4.968  0.00  0.00     0.196 C 
HETATM   12  O           1     -21.180  -8.482  -6.105  0.00  0.00    -0.646 OA
HETATM   13  O           1     -20.257  -8.915  -4.195  0.00  0.00    -0.646 OA
ENDBRANCH   5  11
ENDBRANCH   3   5
BRANCH   4  14
HETATM   14  C           1     -20.855  -3.883  -7.132  0.00  0.00     0.274 C 
BRANCH  14  15
HETATM   15  C           1     -22.258  -4.171  -7.649  0.00  0.00     0.042 C 
BRANCH  15  16
HETATM   16  C           1     -22.170  -4.816  -9.025  0.00  0.00     0.003 C 
BRANCH  16  17
HETATM   17 Se           1     -22.954  -3.625 -10.354  0.00  0.00     0.000 Se
HETATM   18  C           1     -21.389  -3.626 -11.516  0.00  0.00     0.000 C 
ENDBRANCH  16  17
ENDBRANCH  15  16
ENDBRANCH  14  15
BRANCH  14  19
HETATM   19  N           1     -19.855  -4.192  -8.206  0.00  0.00    -0.067 N 
HETATM   20  H           1     -18.964  -3.682  -8.011  0.00  0.00     0.275 HD
HETATM   21  H           1     -19.669  -5.220  -8.223  0.00  0.00     0.275 HD
HETATM   22  H           1     -20.234  -3.890  -9.132  0.00  0.00     0.275 HD
ENDBRANCH  14  19
ENDBRANCH   4  14
TORSDOF 10
ENDMDL
MODEL 7
REMARK VINA RESULT:      -4.9     13.379     16.282
REMARK  10 active torsions:
REMARK  status: ('A' for Active; 'I' for Inactive)
REMARK    1  A    between atoms: C_1  and  C_22 
REMARK    2  A    between atoms: C_1  and  C_2 
REMARK    3  A    between atoms: C_1  and  N_6 
REMARK    4  A    between atoms: C_2  and  C_3 
REMARK    5  A    between atoms: C_3  and  Se_4 
REMARK    6  A    between atoms: C_10  and  C_12 
REMARK    7  A    between atoms: C_12  and  C_13 
REMARK    8  A    between atoms: C_13  and  C_14 
REMARK    9  A    between atoms: C_14  and  C_18 
REMARK   10  A    between atoms: C_14  and  N_21 
REMARK       I    between atoms: N_21  and  C_22 
ROOT
HETATM    1  O           1     -22.014  -3.344  -7.479  0.00  0.00    -0.271 OA
HETATM    2  H           1     -22.839  -6.345  -7.078  0.00  0.00     0.163 HD
HETATM    3  N           1     -22.342  -5.479  -6.911  0.00  0.00    -0.345 N 
HETATM    4  C           1     -22.608  -4.378  -7.679  0.00  0.00     0.249 C 
ENDROOT
BRANCH   3   5
HETATM    5  C           1     -21.348  -5.407  -5.859  0.00  0.00     0.186 C 
BRANCH   5   6
HETATM    6  C           1     -21.712  -6.383  -4.748  0.00  0.00     0.046 C 
BRANCH   6   7
HETATM    7  C           1     -21.125  -5.896  -3.430  0.00  0.00     0.116 C 
BRANCH   7   8
HETATM    8  C           1     -21.675  -6.726  -2.296  0.00  0.00     0.172 C 
HETATM    9  O           1     -21.227  -7.874  -2.088  0.00  0.00    -0.648 OA
HETATM   10  O           1     -22.577  -6.265  -1.565  0.00  0.00    -0.648 OA
ENDBRANCH   7   8
ENDBRANCH   6   7
ENDBRANCH   5   6
BRANCH   5  11
HETATM   11  C           1     -19.993  -5.766  -6.420  0.00  0.00     0.196 C 
HETATM   12  O           1     -19.169  -4.865  -6.687  0.00  0.00    -0.646 OA
HETATM   13  O           1     -19.697  -6.964  -6.618  0.00  0.00    -0.646 OA
ENDBRANCH   5  11
ENDBRANCH   3   5
BRANCH   4  14
HETATM   14  C           1     -23.642  -4.453  -8.774  0.00  0.00     0.274 C 
BRANCH  14  15
HETATM   15  C           1     -22.970  -4.842 -10.084  0.00  0.00     0.042 C 
BRANCH  15  16
HETATM   16  C           1     -22.970  -3.648 -11.030  0.00  0.00     0.003 C 
BRANCH  16  17
HETATM   17 Se           1     -21.140  -3.035 -11.305  0.00  0.00     0.000 Se
HETATM   18  C           1     -20.318  -4.617 -10.517  0.00  0.00     0.000 C 
ENDBRANCH  16  17
ENDBRANCH  15  16
ENDBRANCH  14  15
BRANCH  14  19
HETATM   19  N           1     -24.301  -3.115  -8.930  0.00  0.00    -0.067 N 
HETATM   20  H           1     -25.162  -3.215  -9.515  0.00  0.00     0.275 HD
HETATM   21  H           1     -24.562  -2.743  -7.989  0.00  0.00     0.275 HD
HETATM   22  H           1     -23.639  -2.452  -9.396  0.00  0.00     0.275 HD
ENDBRANCH  14  19
ENDBRANCH   4  14
TORSDOF 10
ENDMDL
MODEL 8
REMARK VINA RESULT:      -4.8      6.045      8.213
REMARK  10 active torsions:
REMARK  status: ('A' for Active; 'I' for Inactive)
REMARK    1  A    between atoms: C_1  and  C_22 
REMARK    2  A    between atoms: C_1  and  C_2 
REMARK    3  A    between atoms: C_1  and  N_6 
REMARK    4  A    between atoms: C_2  and  C_3 
REMARK    5  A    between atoms: C_3  and  Se_4 
REMARK    6  A    between atoms: C_10  and  C_12 
REMARK    7  A    between atoms: C_12  and  C_13 
REMARK    8  A    between atoms: C_13  and  C_14 
REMARK    9  A    between atoms: C_14  and  C_18 
REMARK   10  A    between atoms: C_14  and  N_21 
REMARK       I    between atoms: N_21  and  C_22 
ROOT
HETATM    1  O           1     -31.956  -3.624 -17.221  0.00  0.00    -0.271 OA
HETATM    2  H           1     -32.498  -6.596 -16.376  0.00  0.00     0.163 HD
HETATM    3  N           1     -31.988  -5.807 -16.751  0.00  0.00    -0.345 N 
HETATM    4  C           1     -32.565  -4.567 -16.772  0.00  0.00     0.249 C 
ENDROOT
BRANCH   3   5
HETATM    5  C           1     -30.646  -5.991 -17.267  0.00  0.00     0.186 C 
BRANCH   5   6
HETATM    6  C           1     -29.639  -5.815 -16.139  0.00  0.00     0.046 C 
BRANCH   6   7
HETATM    7  C           1     -28.362  -5.192 -16.688  0.00  0.00     0.116 C 
BRANCH   7   8
HETATM    8  C           1     -27.168  -5.973 -16.198  0.00  0.00     0.172 C 
HETATM    9  O           1     -27.334  -7.067 -15.616  0.00  0.00    -0.648 OA
HETATM   10  O           1     -26.014  -5.527 -16.375  0.00  0.00    -0.648 OA
ENDBRANCH   7   8
ENDBRANCH   6   7
ENDBRANCH   5   6
BRANCH   5  11
HETATM   11  C           1     -30.515  -7.379 -17.847  0.00  0.00     0.196 C 
HETATM   12  O           1     -29.736  -8.204 -17.323  0.00  0.00    -0.646 OA
HETATM   13  O           1     -31.185  -7.702 -18.851  0.00  0.00    -0.646 OA
ENDBRANCH   5  11
ENDBRANCH   3   5
BRANCH   4  14
HETATM   14  C           1     -33.962  -4.375 -16.235  0.00  0.00     0.274 C 
BRANCH  14  15
HETATM   15  C           1     -33.903  -3.598 -14.927  0.00  0.00     0.042 C 
BRANCH  15  16
HETATM   16  C           1     -34.237  -4.527 -13.768  0.00  0.00     0.003 C 
BRANCH  16  17
HETATM   17 Se           1     -33.869  -3.622 -12.082  0.00  0.00     0.000 Se
HETATM   18  C           1     -33.600  -5.265 -11.069  0.00  0.00     0.000 C 
ENDBRANCH  16  17
ENDBRANCH  15  16
ENDBRANCH  14  15
BRANCH  14  19
HETATM   19  N           1     -34.592  -5.714 -15.991  0.00  0.00    -0.067 N 
HETATM   20  H           1     -34.114  -6.437 -16.576  0.00  0.00     0.275 HD
HETATM   21  H           1     -34.496  -5.966 -14.982  0.00  0.00     0.275 HD
HETATM   22  H           1     -35.605  -5.674 -16.247  0.00  0.00     0.275 HD
ENDBRANCH  14  19
ENDBRANCH   4  14
TORSDOF 10
ENDMDL
MODEL 9
REMARK VINA RESULT:      -4.5     16.647     19.102
REMARK  10 active torsions:
REMARK  status: ('A' for Active; 'I' for Inactive)
REMARK    1  A    between atoms: C_1  and  C_22 
REMARK    2  A    between atoms: C_1  and  C_2 
REMARK    3  A    between atoms: C_1  and  N_6 
REMARK    4  A    between atoms: C_2  and  C_3 
REMARK    5  A    between atoms: C_3  and  Se_4 
REMARK    6  A    between atoms: C_10  and  C_12 
REMARK    7  A    between atoms: C_12  and  C_13 
REMARK    8  A    between atoms: C_13  and  C_14 
REMARK    9  A    between atoms: C_14  and  C_18 
REMARK   10  A    between atoms: C_14  and  N_21 
REMARK       I    between atoms: N_21  and  C_22 
ROOT
HETATM    1  O           1     -19.949  -9.741  -5.709  0.00  0.00    -0.271 OA
HETATM    2  H           1     -19.487  -7.017  -4.224  0.00  0.00     0.163 HD
HETATM    3  N           1     -19.941  -7.689  -4.828  0.00  0.00    -0.345 N 
HETATM    4  C           1     -19.406  -8.938  -4.987  0.00  0.00     0.249 C 
ENDROOT
BRANCH   3   5
HETATM    5  C           1     -21.159  -7.327  -5.527  0.00  0.00     0.186 C 
BRANCH   5   6
HETATM    6  C           1     -22.161  -6.750  -4.536  0.00  0.00     0.046 C 
BRANCH   6   7
HETATM    7  C           1     -21.415  -6.120  -3.367  0.00  0.00     0.116 C 
BRANCH   7   8
HETATM    8  C           1     -21.717  -6.887  -2.103  0.00  0.00     0.172 C 
HETATM    9  O           1     -21.071  -7.922  -1.832  0.00  0.00    -0.648 OA
HETATM   10  O           1     -22.612  -6.488  -1.329  0.00  0.00    -0.648 OA
ENDBRANCH   7   8
ENDBRANCH   6   7
ENDBRANCH   5   6
BRANCH   5  11
HETATM   11  C           1     -20.846  -6.297  -6.584  0.00  0.00     0.196 C 
HETATM   12  O           1     -21.639  -5.352  -6.790  0.00  0.00    -0.646 OA
HETATM   13  O           1     -19.795  -6.388  -7.253  0.00  0.00    -0.646 OA
ENDBRANCH   5  11
ENDBRANCH   3   5
BRANCH   4  14
HETATM   14  C           1     -18.139  -9.315  -4.261  0.00  0.00     0.274 C 
BRANCH  14  15
HETATM   15  C           1     -17.622 -10.644  -4.792  0.00  0.00     0.042 C 
BRANCH  15  16
HETATM   16  C           1     -16.103 -10.600  -4.884  0.00  0.00     0.003 C 
BRANCH  16  17
HETATM   17 Se           1     -15.503 -11.767  -6.326  0.00  0.00     0.000 Se
HETATM   18  C           1     -13.781 -12.167  -5.506  0.00  0.00     0.000 C 
ENDBRANCH  16  17
ENDBRANCH  15  16
ENDBRANCH  14  15
BRANCH  14  19
HETATM   19  N           1     -18.423  -9.441  -2.793  0.00  0.00    -0.067 N 
HETATM   20  H           1     -19.347  -9.907  -2.655  0.00  0.00     0.275 HD
HETATM   21  H           1     -17.674 -10.013  -2.341  0.00  0.00     0.275 HD
HETATM   22  H           1     -18.444  -8.489  -2.360  0.00  0.00     0.275 HD
ENDBRANCH  14  19
ENDBRANCH   4  14
TORSDOF 10
ENDMDL
