MODEL 1
REMARK VINA RESULT:      -5.4      0.000      0.000
REMARK  7 active torsions:
REMARK  status: ('A' for Active; 'I' for Inactive)
REMARK    1  A    between atoms: Se_2  and  C_3 
REMARK    2  A    between atoms: C_3  and  C_17 
REMARK    3  A    between atoms: C_4  and  C_18 
REMARK    4  A    between atoms: N_7  and  C_18 
REMARK       I    between atoms: N_7  and  C_8 
REMARK    5  A    between atoms: C_8  and  C_9 
REMARK    6  A    between atoms: C_9  and  N_11 
REMARK    7  A    between atoms: C_17  and  C_18 
ROOT
HETATM    1  N           1     -36.121  -0.342 -12.571  0.00  0.00    -0.345 N 
HETATM    2  C           1     -36.880  -0.283 -13.709  0.00  0.00     0.248 C 
HETATM    3  O           1     -38.015  -0.697 -13.699  0.00  0.00    -0.271 OA
HETATM    4  H           1     -35.170   0.005 -12.579  0.00  0.00     0.163 HD
ENDROOT
BRANCH   1   5
HETATM    5  C           1     -36.680  -0.898 -11.354  0.00  0.00     0.185 C 
BRANCH   5   6
HETATM    6  C           1     -37.001   0.220 -10.392  0.00  0.00     0.196 C 
HETATM    7  O           1     -36.192   0.516  -9.487  0.00  0.00    -0.646 OA
HETATM    8  O           1     -38.075   0.850 -10.502  0.00  0.00    -0.646 OA
ENDBRANCH   5   6
BRANCH   5   9
HETATM    9  C           1     -35.669  -1.843 -10.718  0.00  0.00     0.036 C 
BRANCH   9  10
HETATM   10  C           1     -34.361  -1.788 -11.498  0.00  0.00     0.003 C 
BRANCH  10  11
HETATM   11 Se           1     -33.377  -3.449 -11.234  0.00  0.00     0.000 Se
HETATM   12  C           1     -34.971  -4.562 -11.089  0.00  0.00     0.000 C 
ENDBRANCH  10  11
ENDBRANCH   9  10
ENDBRANCH   5   9
ENDBRANCH   1   5
BRANCH   2  13
HETATM   13  C           1     -36.298   0.296 -14.975  0.00  0.00     0.270 C 
HETATM   14  C           1     -35.088   1.155 -14.632  0.00  0.00     0.050 C 
BRANCH  13  15
HETATM   15  N           1     -37.332   1.139 -15.660  0.00  0.00    -0.067 N 
HETATM   16  H           1     -37.488   2.015 -15.110  0.00  0.00     0.275 HD
HETATM   17  H           1     -36.999   1.386 -16.620  0.00  0.00     0.275 HD
HETATM   18  H           1     -38.228   0.606 -15.728  0.00  0.00     0.275 HD
ENDBRANCH  13  15
ENDBRANCH   2  13
TORSDOF 7
ENDMDL
MODEL 2
REMARK VINA RESULT:      -5.3      3.032      5.174
REMARK  7 active torsions:
REMARK  status: ('A' for Active; 'I' for Inactive)
REMARK    1  A    between atoms: Se_2  and  C_3 
REMARK    2  A    between atoms: C_3  and  C_17 
REMARK    3  A    between atoms: C_4  and  C_18 
REMARK    4  A    between atoms: N_7  and  C_18 
REMARK       I    between atoms: N_7  and  C_8 
REMARK    5  A    between atoms: C_8  and  C_9 
REMARK    6  A    between atoms: C_9  and  N_11 
REMARK    7  A    between atoms: C_17  and  C_18 
ROOT
HETATM    1  N           1     -34.690  -1.988 -12.022  0.00  0.00    -0.345 N 
HETATM    2  C           1     -34.936  -3.084 -11.240  0.00  0.00     0.248 C 
HETATM    3  O           1     -36.074  -3.384 -10.962  0.00  0.00    -0.271 OA
HETATM    4  H           1     -33.737  -1.736 -12.255  0.00  0.00     0.163 HD
ENDROOT
BRANCH   1   5
HETATM    5  C           1     -35.793  -1.189 -12.519  0.00  0.00     0.185 C 
BRANCH   5   6
HETATM    6  C           1     -35.485  -0.724 -13.921  0.00  0.00     0.196 C 
HETATM    7  O           1     -35.502   0.496 -14.192  0.00  0.00    -0.646 OA
HETATM    8  O           1     -35.213  -1.559 -14.811  0.00  0.00    -0.646 OA
ENDBRANCH   5   6
BRANCH   5   9
HETATM    9  C           1     -35.991   0.020 -11.613  0.00  0.00     0.036 C 
BRANCH   9  10
HETATM   10  C           1     -37.377  -0.038 -10.983  0.00  0.00     0.003 C 
BRANCH  10  11
HETATM   11 Se           1     -37.205  -0.143  -9.045  0.00  0.00     0.000 Se
HETATM   12  C           1     -37.895   1.651  -8.723  0.00  0.00     0.000 C 
ENDBRANCH  10  11
ENDBRANCH   9  10
ENDBRANCH   5   9
ENDBRANCH   1   5
BRANCH   2  13
HETATM   13  C           1     -33.788  -3.916 -10.723  0.00  0.00     0.270 C 
HETATM   14  C           1     -32.684  -3.965 -11.772  0.00  0.00     0.050 C 
BRANCH  13  15
HETATM   15  N           1     -34.268  -5.308 -10.437  0.00  0.00    -0.067 N 
HETATM   16  H           1     -35.307  -5.302 -10.323  0.00  0.00     0.275 HD
HETATM   17  H           1     -34.008  -5.935 -11.232  0.00  0.00     0.275 HD
HETATM   18  H           1     -33.823  -5.655  -9.558  0.00  0.00     0.275 HD
ENDBRANCH  13  15
ENDBRANCH   2  13
TORSDOF 7
ENDMDL
MODEL 3
REMARK VINA RESULT:      -4.8     15.611     17.627
REMARK  7 active torsions:
REMARK  status: ('A' for Active; 'I' for Inactive)
REMARK    1  A    between atoms: Se_2  and  C_3 
REMARK    2  A    between atoms: C_3  and  C_17 
REMARK    3  A    between atoms: C_4  and  C_18 
REMARK    4  A    between atoms: N_7  and  C_18 
REMARK       I    between atoms: N_7  and  C_8 
REMARK    5  A    between atoms: C_8  and  C_9 
REMARK    6  A    between atoms: C_9  and  N_11 
REMARK    7  A    between atoms: C_17  and  C_18 
ROOT
HETATM    1  N           1     -21.023  -5.349  -5.026  0.00  0.00    -0.345 N 
HETATM    2  C           1     -21.403  -6.428  -4.275  0.00  0.00     0.248 C 
HETATM    3  O           1     -21.870  -7.404  -4.813  0.00  0.00    -0.271 OA
HETATM    4  H           1     -20.632  -4.531  -4.575  0.00  0.00     0.163 HD
ENDROOT
BRANCH   1   5
HETATM    5  C           1     -21.179  -5.378  -6.467  0.00  0.00     0.185 C 
BRANCH   5   6
HETATM    6  C           1     -19.840  -5.639  -7.112  0.00  0.00     0.196 C 
HETATM    7  O           1     -19.180  -4.690  -7.586  0.00  0.00    -0.646 OA
HETATM    8  O           1     -19.392  -6.805  -7.172  0.00  0.00    -0.646 OA
ENDBRANCH   5   6
BRANCH   5   9
HETATM    9  C           1     -21.721  -4.036  -6.945  0.00  0.00     0.036 C 
BRANCH   9  10
HETATM   10  C           1     -22.837  -4.270  -7.955  0.00  0.00     0.003 C 
BRANCH  10  11
HETATM   11 Se           1     -22.115  -4.147  -9.761  0.00  0.00     0.000 Se
HETATM   12  C           1     -23.736  -4.792 -10.630  0.00  0.00     0.000 C 
ENDBRANCH  10  11
ENDBRANCH   9  10
ENDBRANCH   5   9
ENDBRANCH   1   5
BRANCH   2  13
HETATM   13  C           1     -21.241  -6.398  -2.775  0.00  0.00     0.270 C 
HETATM   14  C           1     -20.952  -7.805  -2.267  0.00  0.00     0.050 C 
BRANCH  13  15
HETATM   15  N           1     -22.504  -5.890  -2.146  0.00  0.00    -0.067 N 
HETATM   16  H           1     -22.357  -4.912  -1.808  0.00  0.00     0.275 HD
HETATM   17  H           1     -23.274  -5.902  -2.853  0.00  0.00     0.275 HD
HETATM   18  H           1     -22.761  -6.502  -1.339  0.00  0.00     0.275 HD
ENDBRANCH  13  15
ENDBRANCH   2  13
TORSDOF 7
ENDMDL
MODEL 4
REMARK VINA RESULT:      -4.7     14.994     16.521
REMARK  7 active torsions:
REMARK  status: ('A' for Active; 'I' for Inactive)
REMARK    1  A    between atoms: Se_2  and  C_3 
REMARK    2  A    between atoms: C_3  and  C_17 
REMARK    3  A    between atoms: C_4  and  C_18 
REMARK    4  A    between atoms: N_7  and  C_18 
REMARK       I    between atoms: N_7  and  C_8 
REMARK    5  A    between atoms: C_8  and  C_9 
REMARK    6  A    between atoms: C_9  and  N_11 
REMARK    7  A    between atoms: C_17  and  C_18 
ROOT
HETATM    1  N           1     -22.151  -5.360  -7.394  0.00  0.00    -0.345 N 
HETATM    2  C           1     -22.370  -4.185  -8.061  0.00  0.00     0.248 C 
HETATM    3  O           1     -21.833  -3.169  -7.686  0.00  0.00    -0.271 OA
HETATM    4  H           1     -22.600  -6.212  -7.708  0.00  0.00     0.163 HD
ENDROOT
BRANCH   1   5
HETATM    5  C           1     -21.272  -5.387  -6.241  0.00  0.00     0.185 C 
BRANCH   5   6
HETATM    6  C           1     -19.880  -5.772  -6.678  0.00  0.00     0.196 C 
HETATM    7  O           1     -19.053  -4.885  -6.979  0.00  0.00    -0.646 OA
HETATM    8  O           1     -19.555  -6.977  -6.737  0.00  0.00    -0.646 OA
ENDBRANCH   5   6
BRANCH   5   9
HETATM    9  C           1     -21.790  -6.406  -5.234  0.00  0.00     0.036 C 
BRANCH   9  10
HETATM   10  C           1     -21.313  -6.027  -3.837  0.00  0.00     0.003 C 
BRANCH  10  11
HETATM   11 Se           1     -21.311  -7.609  -2.700  0.00  0.00     0.000 Se
HETATM   12  C           1     -22.280  -6.760  -1.237  0.00  0.00     0.000 C 
ENDBRANCH  10  11
ENDBRANCH   9  10
ENDBRANCH   5   9
ENDBRANCH   1   5
BRANCH   2  13
HETATM   13  C           1     -23.284  -4.158  -9.261  0.00  0.00     0.270 C 
HETATM   14  C           1     -22.540  -3.566 -10.452  0.00  0.00     0.050 C 
BRANCH  13  15
HETATM   15  N           1     -24.486  -3.315  -8.955  0.00  0.00    -0.067 N 
HETATM   16  H           1     -25.180  -3.402  -9.732  0.00  0.00     0.275 HD
HETATM   17  H           1     -24.921  -3.642  -8.062  0.00  0.00     0.275 HD
HETATM   18  H           1     -24.196  -2.317  -8.857  0.00  0.00     0.275 HD
ENDBRANCH  13  15
ENDBRANCH   2  13
TORSDOF 7
ENDMDL
MODEL 5
REMARK VINA RESULT:      -4.5     16.390     17.907
REMARK  7 active torsions:
REMARK  status: ('A' for Active; 'I' for Inactive)
REMARK    1  A    between atoms: Se_2  and  C_3 
REMARK    2  A    between atoms: C_3  and  C_17 
REMARK    3  A    between atoms: C_4  and  C_18 
REMARK    4  A    between atoms: N_7  and  C_18 
REMARK       I    between atoms: N_7  and  C_8 
REMARK    5  A    between atoms: C_8  and  C_9 
REMARK    6  A    between atoms: C_9  and  N_11 
REMARK    7  A    between atoms: C_17  and  C_18 
ROOT
HETATM    1  N           1     -21.212  -6.478  -6.248  0.00  0.00    -0.345 N 
HETATM    2  C           1     -21.009  -5.185  -6.649  0.00  0.00     0.248 C 
HETATM    3  O           1     -20.453  -4.405  -5.912  0.00  0.00    -0.271 OA
HETATM    4  H           1     -21.678  -7.132  -6.865  0.00  0.00     0.163 HD
ENDROOT
BRANCH   1   5
HETATM    5  C           1     -20.756  -6.912  -4.942  0.00  0.00     0.185 C 
BRANCH   5   6
HETATM    6  C           1     -20.234  -8.325  -5.036  0.00  0.00     0.196 C 
HETATM    7  O           1     -19.216  -8.658  -4.393  0.00  0.00    -0.646 OA
HETATM    8  O           1     -20.821  -9.162  -5.756  0.00  0.00    -0.646 OA
ENDBRANCH   5   6
BRANCH   5   9
HETATM    9  C           1     -21.918  -6.863  -3.958  0.00  0.00     0.036 C 
BRANCH   9  10
HETATM   10  C           1     -21.509  -6.063  -2.728  0.00  0.00     0.003 C 
BRANCH  10  11
HETATM   11 Se           1     -22.210  -6.927  -1.128  0.00  0.00     0.000 Se
HETATM   12  C           1     -20.995  -8.449  -1.220  0.00  0.00     0.000 C 
ENDBRANCH  10  11
ENDBRANCH   9  10
ENDBRANCH   5   9
ENDBRANCH   1   5
BRANCH   2  13
HETATM   13  C           1     -21.483  -4.733  -8.008  0.00  0.00     0.270 C 
HETATM   14  C           1     -20.286  -4.307  -8.848  0.00  0.00     0.050 C 
BRANCH  13  15
HETATM   15  N           1     -22.421  -3.572  -7.850  0.00  0.00    -0.067 N 
HETATM   16  H           1     -22.721  -3.499  -6.852  0.00  0.00     0.275 HD
HETATM   17  H           1     -21.933  -2.691  -8.133  0.00  0.00     0.275 HD
HETATM   18  H           1     -23.259  -3.717  -8.457  0.00  0.00     0.275 HD
ENDBRANCH  13  15
ENDBRANCH   2  13
TORSDOF 7
ENDMDL
MODEL 6
REMARK VINA RESULT:      -4.3      2.954      4.795
REMARK  7 active torsions:
REMARK  status: ('A' for Active; 'I' for Inactive)
REMARK    1  A    between atoms: Se_2  and  C_3 
REMARK    2  A    between atoms: C_3  and  C_17 
REMARK    3  A    between atoms: C_4  and  C_18 
REMARK    4  A    between atoms: N_7  and  C_18 
REMARK       I    between atoms: N_7  and  C_8 
REMARK    5  A    between atoms: C_8  and  C_9 
REMARK    6  A    between atoms: C_9  and  N_11 
REMARK    7  A    between atoms: C_17  and  C_18 
ROOT
HETATM    1  N           1     -34.294  -1.674 -11.092  0.00  0.00    -0.345 N 
HETATM    2  C           1     -34.507  -3.006 -11.321  0.00  0.00     0.248 C 
HETATM    3  O           1     -35.514  -3.368 -11.883  0.00  0.00    -0.271 OA
HETATM    4  H           1     -33.450  -1.370 -10.621  0.00  0.00     0.163 HD
ENDROOT
BRANCH   1   5
HETATM    5  C           1     -35.274  -0.697 -11.525  0.00  0.00     0.185 C 
BRANCH   5   6
HETATM    6  C           1     -36.493  -0.782 -10.640  0.00  0.00     0.196 C 
HETATM    7  O           1     -37.605  -1.071 -11.133  0.00  0.00    -0.646 OA
HETATM    8  O           1     -36.392  -0.565  -9.413  0.00  0.00    -0.646 OA
ENDBRANCH   5   6
BRANCH   5   9
HETATM    9  C           1     -35.672  -0.984 -12.967  0.00  0.00     0.036 C 
BRANCH   9  10
HETATM   10  C           1     -35.282   0.198 -13.846  0.00  0.00     0.003 C 
BRANCH  10  11
HETATM   11 Se           1     -36.424   0.238 -15.425  0.00  0.00     0.000 Se
HETATM   12  C           1     -38.074  -0.096 -14.441  0.00  0.00     0.000 C 
ENDBRANCH  10  11
ENDBRANCH   9  10
ENDBRANCH   5   9
ENDBRANCH   1   5
BRANCH   2  13
HETATM   13  C           1     -33.487  -4.022 -10.871  0.00  0.00     0.270 C 
HETATM   14  C           1     -32.542  -4.338 -12.023  0.00  0.00     0.050 C 
BRANCH  13  15
HETATM   15  N           1     -34.187  -5.278 -10.441  0.00  0.00    -0.067 N 
HETATM   16  H           1     -34.763  -5.644 -11.233  0.00  0.00     0.275 HD
HETATM   17  H           1     -33.478  -5.995 -10.166  0.00  0.00     0.275 HD
HETATM   18  H           1     -34.807  -5.069  -9.627  0.00  0.00     0.275 HD
ENDBRANCH  13  15
ENDBRANCH   2  13
TORSDOF 7
ENDMDL
MODEL 7
REMARK VINA RESULT:      -4.3     16.758     18.331
REMARK  7 active torsions:
REMARK  status: ('A' for Active; 'I' for Inactive)
REMARK    1  A    between atoms: Se_2  and  C_3 
REMARK    2  A    between atoms: C_3  and  C_17 
REMARK    3  A    between atoms: C_4  and  C_18 
REMARK    4  A    between atoms: N_7  and  C_18 
REMARK       I    between atoms: N_7  and  C_8 
REMARK    5  A    between atoms: C_8  and  C_9 
REMARK    6  A    between atoms: C_9  and  N_11 
REMARK    7  A    between atoms: C_17  and  C_18 
ROOT
HETATM    1  N           1     -20.823  -6.685  -4.826  0.00  0.00    -0.345 N 
HETATM    2  C           1     -21.392  -5.775  -5.675  0.00  0.00     0.248 C 
HETATM    3  O           1     -22.593  -5.633  -5.691  0.00  0.00    -0.271 OA
HETATM    4  H           1     -19.817  -6.804  -4.813  0.00  0.00     0.163 HD
ENDROOT
BRANCH   1   5
HETATM    5  C           1     -21.658  -7.476  -3.944  0.00  0.00     0.185 C 
BRANCH   5   6
HETATM    6  C           1     -21.637  -6.875  -2.560  0.00  0.00     0.196 C 
HETATM    7  O           1     -20.881  -7.350  -1.685  0.00  0.00    -0.646 OA
HETATM    8  O           1     -22.375  -5.903  -2.289  0.00  0.00    -0.646 OA
ENDBRANCH   5   6
BRANCH   5   9
HETATM    9  C           1     -21.127  -8.903  -3.888  0.00  0.00     0.036 C 
BRANCH   9  10
HETATM   10  C           1     -19.798  -8.980  -4.629  0.00  0.00     0.003 C 
BRANCH  10  11
HETATM   11 Se           1     -18.389  -9.488  -3.383  0.00  0.00     0.000 Se
HETATM   12  C           1     -19.554 -10.560  -2.246  0.00  0.00     0.000 C 
ENDBRANCH  10  11
ENDBRANCH   9  10
ENDBRANCH   5   9
ENDBRANCH   1   5
BRANCH   2  13
HETATM   13  C           1     -20.523  -4.952  -6.593  0.00  0.00     0.270 C 
HETATM   14  C           1     -21.341  -3.805  -7.174  0.00  0.00     0.050 C 
BRANCH  13  15
HETATM   15  N           1     -20.014  -5.817  -7.708  0.00  0.00    -0.067 N 
HETATM   16  H           1     -18.994  -5.638  -7.850  0.00  0.00     0.275 HD
HETATM   17  H           1     -20.161  -6.823  -7.463  0.00  0.00     0.275 HD
HETATM   18  H           1     -20.532  -5.592  -8.587  0.00  0.00     0.275 HD
ENDBRANCH  13  15
ENDBRANCH   2  13
TORSDOF 7
ENDMDL
MODEL 8
REMARK VINA RESULT:      -4.3     18.801     20.379
REMARK  7 active torsions:
REMARK  status: ('A' for Active; 'I' for Inactive)
REMARK    1  A    between atoms: Se_2  and  C_3 
REMARK    2  A    between atoms: C_3  and  C_17 
REMARK    3  A    between atoms: C_4  and  C_18 
REMARK    4  A    between atoms: N_7  and  C_18 
REMARK       I    between atoms: N_7  and  C_8 
REMARK    5  A    between atoms: C_8  and  C_9 
REMARK    6  A    between atoms: C_9  and  N_11 
REMARK    7  A    between atoms: C_17  and  C_18 
ROOT
HETATM    1  N           1     -21.872  -9.463  -1.063  0.00  0.00    -0.345 N 
HETATM    2  C           1     -21.669 -10.337  -0.029  0.00  0.00     0.248 C 
HETATM    3  O           1     -21.013  -9.998   0.928  0.00  0.00    -0.271 OA
HETATM    4  H           1     -22.422  -9.747  -1.865  0.00  0.00     0.163 HD
ENDROOT
BRANCH   1   5
HETATM    5  C           1     -21.303  -8.131  -1.009  0.00  0.00     0.185 C 
BRANCH   5   6
HETATM    6  C           1     -22.402  -7.124  -0.769  0.00  0.00     0.196 C 
HETATM    7  O           1     -22.396  -6.036  -1.384  0.00  0.00    -0.646 OA
HETATM    8  O           1     -23.318  -7.380   0.042  0.00  0.00    -0.646 OA
ENDBRANCH   5   6
BRANCH   5   9
HETATM    9  C           1     -20.609  -7.822  -2.330  0.00  0.00     0.036 C 
BRANCH   9  10
HETATM   10  C           1     -21.335  -8.537  -3.463  0.00  0.00     0.003 C 
BRANCH  10  11
HETATM   11 Se           1     -21.919  -7.230  -4.785  0.00  0.00     0.000 Se
HETATM   12  C           1     -20.163  -7.032  -5.607  0.00  0.00     0.000 C 
ENDBRANCH  10  11
ENDBRANCH   9  10
ENDBRANCH   5   9
ENDBRANCH   1   5
BRANCH   2  13
HETATM   13  C           1     -22.261 -11.723  -0.085  0.00  0.00     0.270 C 
HETATM   14  C           1     -23.778 -11.633   0.032  0.00  0.00     0.050 C 
BRANCH  13  15
HETATM   15  N           1     -21.721 -12.544   1.048  0.00  0.00    -0.067 N 
HETATM   16  H           1     -20.701 -12.716   0.900  0.00  0.00     0.275 HD
HETATM   17  H           1     -21.860 -12.029   1.948  0.00  0.00     0.275 HD
HETATM   18  H           1     -22.226 -13.458   1.088  0.00  0.00     0.275 HD
ENDBRANCH  13  15
ENDBRANCH   2  13
TORSDOF 7
ENDMDL
MODEL 9
REMARK VINA RESULT:      -4.3     17.833     18.689
REMARK  7 active torsions:
REMARK  status: ('A' for Active; 'I' for Inactive)
REMARK    1  A    between atoms: Se_2  and  C_3 
REMARK    2  A    between atoms: C_3  and  C_17 
REMARK    3  A    between atoms: C_4  and  C_18 
REMARK    4  A    between atoms: N_7  and  C_18 
REMARK       I    between atoms: N_7  and  C_8 
REMARK    5  A    between atoms: C_8  and  C_9 
REMARK    6  A    between atoms: C_9  and  N_11 
REMARK    7  A    between atoms: C_17  and  C_18 
ROOT
HETATM    1  N           1     -20.583  -6.944  -3.679  0.00  0.00    -0.345 N 
HETATM    2  C           1     -20.893  -7.070  -5.006  0.00  0.00     0.248 C 
HETATM    3  O           1     -21.719  -7.878  -5.359  0.00  0.00    -0.271 OA
HETATM    4  H           1     -19.891  -6.267  -3.382  0.00  0.00     0.163 HD
ENDROOT
BRANCH   1   5
HETATM    5  C           1     -21.248  -7.779  -2.696  0.00  0.00     0.185 C 
BRANCH   5   6
HETATM    6  C           1     -22.056  -6.910  -1.764  0.00  0.00     0.196 C 
HETATM    7  O           1     -22.419  -5.771  -2.129  0.00  0.00    -0.646 OA
HETATM    8  O           1     -22.365  -7.331  -0.628  0.00  0.00    -0.646 OA
ENDBRANCH   5   6
BRANCH   5   9
HETATM    9  C           1     -20.204  -8.549  -1.897  0.00  0.00     0.036 C 
BRANCH   9  10
HETATM   10  C           1     -20.285 -10.029  -2.251  0.00  0.00     0.003 C 
BRANCH  10  11
HETATM   11 Se           1     -22.062 -10.437  -2.938  0.00  0.00     0.000 Se
HETATM   12  C           1     -22.829 -10.820  -1.188  0.00  0.00     0.000 C 
ENDBRANCH  10  11
ENDBRANCH   9  10
ENDBRANCH   5   9
ENDBRANCH   1   5
BRANCH   2  13
HETATM   13  C           1     -20.202  -6.202  -6.028  0.00  0.00     0.270 C 
HETATM   14  C           1     -20.195  -4.757  -5.545  0.00  0.00     0.050 C 
BRANCH  13  15
HETATM   15  N           1     -20.933  -6.288  -7.334  0.00  0.00    -0.067 N 
HETATM   16  H           1     -20.912  -5.357  -7.808  0.00  0.00     0.275 HD
HETATM   17  H           1     -20.471  -7.000  -7.945  0.00  0.00     0.275 HD
HETATM   18  H           1     -21.924  -6.568  -7.160  0.00  0.00     0.275 HD
ENDBRANCH  13  15
ENDBRANCH   2  13
TORSDOF 7
ENDMDL
