MODEL 1
REMARK VINA RESULT:      -7.5      0.000      0.000
REMARK  11 active torsions:
REMARK  status: ('A' for Active; 'I' for Inactive)
REMARK    1  A    between atoms: C_2  and  C_9 
REMARK    2  A    between atoms: C_5  and  C_9 
REMARK    3  A    between atoms: C_5  and  C_28 
REMARK    4  A    between atoms: O_6  and  C_12 
REMARK    5  A    between atoms: O_6  and  P_7 
REMARK    6  A    between atoms: P_7  and  O_19 
REMARK    7  A    between atoms: C_8  and  C_24 
REMARK    8  A    between atoms: C_8  and  C_11 
REMARK    9  A    between atoms: C_8  and  N_16 
REMARK   10  A    between atoms: C_9  and  N_14 
REMARK   11  A    between atoms: C_11  and  O_15 
REMARK       I    between atoms: N_14  and  C_24 
ROOT
HETATM    1  C           1     -36.472  -0.685 -12.330  0.00  0.00     0.189 C 
ENDROOT
BRANCH   1   2
HETATM    2  C           1     -36.949  -0.220 -10.976  0.00  0.00     0.197 C 
HETATM    3  O           1     -36.482   0.826 -10.475  0.00  0.00    -0.646 OA
HETATM    4  O           1     -37.810  -0.880 -10.356  0.00  0.00    -0.646 OA
ENDBRANCH   1   2
BRANCH   1   5
HETATM    5  C           1     -34.949  -0.726 -12.347  0.00  0.00     0.074 C 
BRANCH   5   6
HETATM    6  C           1     -34.484  -2.113 -12.035  0.00  0.00    -0.056 A 
HETATM    7  C           1     -34.531  -3.103 -13.016  0.00  0.00     0.010 A 
HETATM    8  C           1     -34.096  -4.396 -12.726  0.00  0.00     0.038 A 
HETATM    9  C           1     -33.614  -4.700 -11.452  0.00  0.00     0.081 A 
HETATM   10  C           1     -33.566  -3.710 -10.471  0.00  0.00     0.038 A 
HETATM   11  C           1     -34.000  -2.417 -10.762  0.00  0.00     0.010 A 
BRANCH   9  12
HETATM   12  O           1     -33.191  -5.955 -11.170  0.00  0.00    -0.247 OA
BRANCH  12  13
HETATM   13  P           1     -34.286  -7.028 -10.660  0.00  0.00     0.411 P 
HETATM   14  O           1     -33.596  -8.237 -10.160  0.00  0.00    -0.624 OA
HETATM   15  O           1     -35.091  -6.433  -9.570  0.00  0.00    -0.624 OA
BRANCH  13  16
HETATM   16  O           1     -35.256  -7.429 -11.887  0.00  0.00    -0.300 OA
HETATM   17  H           1     -34.776  -7.196 -12.664  0.00  0.00     0.223 HD
ENDBRANCH  13  16
ENDBRANCH  12  13
ENDBRANCH   9  12
ENDBRANCH   5   6
ENDBRANCH   1   5
BRANCH   1  18
HETATM   18  N           1     -36.941   0.233 -13.350  0.00  0.00    -0.344 N 
HETATM   19  C           1     -37.045  -0.181 -14.650  0.00  0.00     0.251 C 
HETATM   20  O           1     -38.075  -0.671 -15.048  0.00  0.00    -0.271 OA
HETATM   21  H           1     -37.192   1.181 -13.099  0.00  0.00     0.163 HD
BRANCH  19  22
HETATM   22  C           1     -35.873  -0.026 -15.588  0.00  0.00     0.297 C 
BRANCH  22  23
HETATM   23  C           1     -35.584   1.453 -15.802  0.00  0.00     0.206 C 
BRANCH  23  24
HETATM   24  O           1     -36.772   2.120 -16.135  0.00  0.00    -0.398 OA
HETATM   25  H           1     -36.593   3.043 -16.078  0.00  0.00     0.209 HD
ENDBRANCH  23  24
ENDBRANCH  22  23
BRANCH  22  26
HETATM   26  N           1     -36.200  -0.666 -16.905  0.00  0.00    -0.064 N 
HETATM   27  H           1     -36.308  -1.698 -16.775  0.00  0.00     0.275 HD
HETATM   28  H           1     -37.092  -0.268 -17.273  0.00  0.00     0.275 HD
HETATM   29  H           1     -35.428  -0.480 -17.584  0.00  0.00     0.275 HD
ENDBRANCH  22  26
ENDBRANCH  19  22
ENDBRANCH   1  18
TORSDOF 11
ENDMDL
MODEL 2
REMARK VINA RESULT:      -7.4      6.364      8.056
REMARK  11 active torsions:
REMARK  status: ('A' for Active; 'I' for Inactive)
REMARK    1  A    between atoms: C_2  and  C_9 
REMARK    2  A    between atoms: C_5  and  C_9 
REMARK    3  A    between atoms: C_5  and  C_28 
REMARK    4  A    between atoms: O_6  and  C_12 
REMARK    5  A    between atoms: O_6  and  P_7 
REMARK    6  A    between atoms: P_7  and  O_19 
REMARK    7  A    between atoms: C_8  and  C_24 
REMARK    8  A    between atoms: C_8  and  C_11 
REMARK    9  A    between atoms: C_8  and  N_16 
REMARK   10  A    between atoms: C_9  and  N_14 
REMARK   11  A    between atoms: C_11  and  O_15 
REMARK       I    between atoms: N_14  and  C_24 
ROOT
HETATM    1  C           1     -32.448  -4.337 -16.192  0.00  0.00     0.189 C 
ENDROOT
BRANCH   1   2
HETATM    2  C           1     -32.653  -3.300 -17.269  0.00  0.00     0.197 C 
HETATM    3  O           1     -31.695  -2.953 -17.993  0.00  0.00    -0.646 OA
HETATM    4  O           1     -33.781  -2.789 -17.437  0.00  0.00    -0.646 OA
ENDBRANCH   1   2
BRANCH   1   5
HETATM    5  C           1     -31.941  -5.629 -16.821  0.00  0.00     0.074 C 
BRANCH   5   6
HETATM    6  C           1     -30.445  -5.630 -16.824  0.00  0.00    -0.056 A 
HETATM    7  C           1     -29.750  -6.083 -17.945  0.00  0.00     0.010 A 
HETATM    8  C           1     -28.355  -6.084 -17.949  0.00  0.00     0.038 A 
HETATM    9  C           1     -27.654  -5.631 -16.830  0.00  0.00     0.081 A 
HETATM   10  C           1     -28.350  -5.178 -15.709  0.00  0.00     0.038 A 
HETATM   11  C           1     -29.744  -5.177 -15.706  0.00  0.00     0.010 A 
BRANCH   9  12
HETATM   12  O           1     -26.300  -5.631 -16.834  0.00  0.00    -0.247 OA
BRANCH  12  13
HETATM   13  P           1     -25.539  -6.705 -15.899  0.00  0.00     0.411 P 
HETATM   14  O           1     -26.524  -7.659 -15.340  0.00  0.00    -0.624 OA
HETATM   15  O           1     -24.541  -7.443 -16.704  0.00  0.00    -0.624 OA
BRANCH  13  16
HETATM   16  O           1     -24.793  -5.934 -14.692  0.00  0.00    -0.300 OA
HETATM   17  H           1     -25.376  -5.233 -14.453  0.00  0.00     0.223 HD
ENDBRANCH  13  16
ENDBRANCH  12  13
ENDBRANCH   9  12
ENDBRANCH   5   6
ENDBRANCH   1   5
BRANCH   1  18
HETATM   18  N           1     -33.706  -4.590 -15.518  0.00  0.00    -0.344 N 
HETATM   19  C           1     -34.036  -3.880 -14.396  0.00  0.00     0.251 C 
HETATM   20  O           1     -34.646  -2.842 -14.495  0.00  0.00    -0.271 OA
HETATM   21  H           1     -34.340  -5.292 -15.877  0.00  0.00     0.163 HD
BRANCH  19  22
HETATM   22  C           1     -33.639  -4.392 -13.033  0.00  0.00     0.297 C 
BRANCH  22  23
HETATM   23  C           1     -34.718  -5.327 -12.505  0.00  0.00     0.206 C 
BRANCH  23  24
HETATM   24  O           1     -35.355  -5.963 -13.581  0.00  0.00    -0.398 OA
HETATM   25  H           1     -35.764  -6.739 -13.237  0.00  0.00     0.209 HD
ENDBRANCH  23  24
ENDBRANCH  22  23
BRANCH  22  26
HETATM   26  N           1     -33.478  -3.234 -12.092  0.00  0.00    -0.064 N 
HETATM   27  H           1     -33.644  -2.340 -12.607  0.00  0.00     0.275 HD
HETATM   28  H           1     -34.169  -3.320 -11.314  0.00  0.00     0.275 HD
HETATM   29  H           1     -32.509  -3.236 -11.701  0.00  0.00     0.275 HD
ENDBRANCH  22  26
ENDBRANCH  19  22
ENDBRANCH   1  18
TORSDOF 11
ENDMDL
MODEL 3
REMARK VINA RESULT:      -6.7     13.804     17.057
REMARK  11 active torsions:
REMARK  status: ('A' for Active; 'I' for Inactive)
REMARK    1  A    between atoms: C_2  and  C_9 
REMARK    2  A    between atoms: C_5  and  C_9 
REMARK    3  A    between atoms: C_5  and  C_28 
REMARK    4  A    between atoms: O_6  and  C_12 
REMARK    5  A    between atoms: O_6  and  P_7 
REMARK    6  A    between atoms: P_7  and  O_19 
REMARK    7  A    between atoms: C_8  and  C_24 
REMARK    8  A    between atoms: C_8  and  C_11 
REMARK    9  A    between atoms: C_8  and  N_16 
REMARK   10  A    between atoms: C_9  and  N_14 
REMARK   11  A    between atoms: C_11  and  O_15 
REMARK       I    between atoms: N_14  and  C_24 
ROOT
HETATM    1  C           1     -20.646  -7.568  -5.669  0.00  0.00     0.189 C 
ENDROOT
BRANCH   1   2
HETATM    2  C           1     -19.390  -8.347  -5.368  0.00  0.00     0.197 C 
HETATM    3  O           1     -19.123  -8.673  -4.191  0.00  0.00    -0.646 OA
HETATM    4  O           1     -18.615  -8.667  -6.295  0.00  0.00    -0.646 OA
ENDBRANCH   1   2
BRANCH   1   5
HETATM    5  C           1     -20.351  -6.076  -5.589  0.00  0.00     0.074 C 
BRANCH   5   6
HETATM    6  C           1     -20.889  -5.394  -6.808  0.00  0.00    -0.056 A 
HETATM    7  C           1     -22.114  -4.730  -6.753  0.00  0.00     0.010 A 
HETATM    8  C           1     -22.616  -4.094  -7.889  0.00  0.00     0.038 A 
HETATM    9  C           1     -21.891  -4.123  -9.081  0.00  0.00     0.081 A 
HETATM   10  C           1     -20.666  -4.787  -9.136  0.00  0.00     0.038 A 
HETATM   11  C           1     -20.165  -5.422  -8.000  0.00  0.00     0.010 A 
BRANCH   9  12
HETATM   12  O           1     -22.378  -3.506 -10.184  0.00  0.00    -0.247 OA
BRANCH  12  13
HETATM   13  P           1     -23.592  -4.215 -10.977  0.00  0.00     0.411 P 
HETATM   14  O           1     -23.951  -5.481 -10.300  0.00  0.00    -0.624 OA
HETATM   15  O           1     -24.767  -3.315 -10.993  0.00  0.00    -0.624 OA
BRANCH  13  16
HETATM   16  O           1     -23.133  -4.527 -12.494  0.00  0.00    -0.300 OA
HETATM   17  H           1     -23.208  -5.462 -12.584  0.00  0.00     0.223 HD
ENDBRANCH  13  16
ENDBRANCH  12  13
ENDBRANCH   9  12
ENDBRANCH   5   6
ENDBRANCH   1   5
BRANCH   1  18
HETATM   18  N           1     -21.670  -7.909  -4.701  0.00  0.00    -0.344 N 
HETATM   19  C           1     -22.138  -6.959  -3.835  0.00  0.00     0.251 C 
HETATM   20  O           1     -23.086  -6.275  -4.142  0.00  0.00    -0.271 OA
HETATM   21  H           1     -22.039  -8.851  -4.665  0.00  0.00     0.163 HD
BRANCH  19  22
HETATM   22  C           1     -21.472  -6.764  -2.495  0.00  0.00     0.297 C 
BRANCH  22  23
HETATM   23  C           1     -21.659  -8.014  -1.646  0.00  0.00     0.206 C 
BRANCH  23  24
HETATM   24  O           1     -20.957  -9.082  -2.223  0.00  0.00    -0.398 OA
HETATM   25  H           1     -21.061  -9.005  -3.157  0.00  0.00     0.209 HD
ENDBRANCH  23  24
ENDBRANCH  22  23
BRANCH  22  26
HETATM   26  N           1     -22.091  -5.589  -1.796  0.00  0.00    -0.064 N 
HETATM   27  H           1     -22.760  -5.929  -1.068  0.00  0.00     0.275 HD
HETATM   28  H           1     -21.342  -5.021  -1.342  0.00  0.00     0.275 HD
HETATM   29  H           1     -22.603  -5.000  -2.491  0.00  0.00     0.275 HD
ENDBRANCH  22  26
ENDBRANCH  19  22
ENDBRANCH   1  18
TORSDOF 11
ENDMDL
MODEL 4
REMARK VINA RESULT:      -6.4     14.424     17.633
REMARK  11 active torsions:
REMARK  status: ('A' for Active; 'I' for Inactive)
REMARK    1  A    between atoms: C_2  and  C_9 
REMARK    2  A    between atoms: C_5  and  C_9 
REMARK    3  A    between atoms: C_5  and  C_28 
REMARK    4  A    between atoms: O_6  and  C_12 
REMARK    5  A    between atoms: O_6  and  P_7 
REMARK    6  A    between atoms: P_7  and  O_19 
REMARK    7  A    between atoms: C_8  and  C_24 
REMARK    8  A    between atoms: C_8  and  C_11 
REMARK    9  A    between atoms: C_8  and  N_16 
REMARK   10  A    between atoms: C_9  and  N_14 
REMARK   11  A    between atoms: C_11  and  O_15 
REMARK       I    between atoms: N_14  and  C_24 
ROOT
HETATM    1  C           1     -20.793  -8.292  -4.617  0.00  0.00     0.189 C 
ENDROOT
BRANCH   1   2
HETATM    2  C           1     -20.927  -9.665  -5.229  0.00  0.00     0.197 C 
HETATM    3  O           1     -20.492 -10.665  -4.619  0.00  0.00    -0.646 OA
HETATM    4  O           1     -21.473  -9.801  -6.344  0.00  0.00    -0.646 OA
ENDBRANCH   1   2
BRANCH   1   5
HETATM    5  C           1     -19.719  -7.507  -5.359  0.00  0.00     0.074 C 
BRANCH   5   6
HETATM    6  C           1     -20.360  -6.416  -6.158  0.00  0.00    -0.056 A 
HETATM    7  C           1     -21.665  -6.016  -5.871  0.00  0.00     0.010 A 
HETATM    8  C           1     -22.263  -4.998  -6.615  0.00  0.00     0.038 A 
HETATM    9  C           1     -21.555  -4.381  -7.647  0.00  0.00     0.081 A 
HETATM   10  C           1     -20.249  -4.780  -7.933  0.00  0.00     0.038 A 
HETATM   11  C           1     -19.652  -5.797  -7.188  0.00  0.00     0.010 A 
BRANCH   9  12
HETATM   12  O           1     -22.135  -3.393  -8.369  0.00  0.00    -0.247 OA
BRANCH  12  13
HETATM   13  P           1     -23.238  -3.807  -9.473  0.00  0.00     0.411 P 
HETATM   14  O           1     -23.051  -2.986 -10.690  0.00  0.00    -0.624 OA
HETATM   15  O           1     -23.081  -5.239  -9.815  0.00  0.00    -0.624 OA
BRANCH  13  16
HETATM   16  O           1     -24.717  -3.555  -8.875  0.00  0.00    -0.300 OA
HETATM   17  H           1     -24.643  -3.742  -7.954  0.00  0.00     0.223 HD
ENDBRANCH  13  16
ENDBRANCH  12  13
ENDBRANCH   9  12
ENDBRANCH   5   6
ENDBRANCH   1   5
BRANCH   1  18
HETATM   18  N           1     -20.420  -8.419  -3.222  0.00  0.00    -0.344 N 
HETATM   19  C           1     -21.372  -8.308  -2.245  0.00  0.00     0.251 C 
HETATM   20  O           1     -21.963  -9.290  -1.862  0.00  0.00    -0.271 OA
HETATM   21  H           1     -19.455  -8.590  -2.970  0.00  0.00     0.163 HD
BRANCH  19  22
HETATM   22  C           1     -21.685  -6.959  -1.646  0.00  0.00     0.297 C 
BRANCH  22  23
HETATM   23  C           1     -22.498  -7.144  -0.372  0.00  0.00     0.206 C 
BRANCH  23  24
HETATM   24  O           1     -21.756  -7.891   0.554  0.00  0.00    -0.398 OA
HETATM   25  H           1     -21.717  -7.384   1.347  0.00  0.00     0.209 HD
ENDBRANCH  23  24
ENDBRANCH  22  23
BRANCH  22  26
HETATM   26  N           1     -22.478  -6.148  -2.629  0.00  0.00    -0.064 N 
HETATM   27  H           1     -23.200  -6.754  -3.080  0.00  0.00     0.275 HD
HETATM   28  H           1     -22.947  -5.359  -2.131  0.00  0.00     0.275 HD
HETATM   29  H           1     -21.837  -5.766  -3.361  0.00  0.00     0.275 HD
ENDBRANCH  22  26
ENDBRANCH  19  22
ENDBRANCH   1  18
TORSDOF 11
ENDMDL
MODEL 5
REMARK VINA RESULT:      -6.1     15.310     18.096
REMARK  11 active torsions:
REMARK  status: ('A' for Active; 'I' for Inactive)
REMARK    1  A    between atoms: C_2  and  C_9 
REMARK    2  A    between atoms: C_5  and  C_9 
REMARK    3  A    between atoms: C_5  and  C_28 
REMARK    4  A    between atoms: O_6  and  C_12 
REMARK    5  A    between atoms: O_6  and  P_7 
REMARK    6  A    between atoms: P_7  and  O_19 
REMARK    7  A    between atoms: C_8  and  C_24 
REMARK    8  A    between atoms: C_8  and  C_11 
REMARK    9  A    between atoms: C_8  and  N_16 
REMARK   10  A    between atoms: C_9  and  N_14 
REMARK   11  A    between atoms: C_11  and  O_15 
REMARK       I    between atoms: N_14  and  C_24 
ROOT
HETATM    1  C           1     -21.021  -7.350  -3.651  0.00  0.00     0.189 C 
ENDROOT
BRANCH   1   2
HETATM    2  C           1     -21.571  -6.829  -2.346  0.00  0.00     0.197 C 
HETATM    3  O           1     -21.410  -7.485  -1.294  0.00  0.00    -0.646 OA
HETATM    4  O           1     -22.186  -5.742  -2.316  0.00  0.00    -0.646 OA
ENDBRANCH   1   2
BRANCH   1   5
HETATM    5  C           1     -22.089  -7.246  -4.731  0.00  0.00     0.074 C 
BRANCH   5   6
HETATM    6  C           1     -21.627  -6.307  -5.801  0.00  0.00    -0.056 A 
HETATM    7  C           1     -20.358  -6.456  -6.359  0.00  0.00     0.010 A 
HETATM    8  C           1     -19.927  -5.581  -7.357  0.00  0.00     0.038 A 
HETATM    9  C           1     -20.767  -4.557  -7.797  0.00  0.00     0.081 A 
HETATM   10  C           1     -22.037  -4.410  -7.240  0.00  0.00     0.038 A 
HETATM   11  C           1     -22.467  -5.284  -6.242  0.00  0.00     0.010 A 
BRANCH   9  12
HETATM   12  O           1     -20.349  -3.709  -8.766  0.00  0.00    -0.247 OA
BRANCH  12  13
HETATM   13  P           1     -20.700  -4.076 -10.299  0.00  0.00     0.411 P 
HETATM   14  O           1     -20.553  -2.868 -11.142  0.00  0.00    -0.624 OA
HETATM   15  O           1     -19.777  -5.128 -10.781  0.00  0.00    -0.624 OA
BRANCH  13  16
HETATM   16  O           1     -22.221  -4.613 -10.388  0.00  0.00    -0.300 OA
HETATM   17  H           1     -22.663  -4.002 -10.953  0.00  0.00     0.223 HD
ENDBRANCH  13  16
ENDBRANCH  12  13
ENDBRANCH   9  12
ENDBRANCH   5   6
ENDBRANCH   1   5
BRANCH   1  18
HETATM   18  N           1     -20.630  -8.738  -3.491  0.00  0.00    -0.344 N 
HETATM   19  C           1     -19.321  -9.103  -3.646  0.00  0.00     0.251 C 
HETATM   20  O           1     -18.576  -9.100  -2.695  0.00  0.00    -0.271 OA
HETATM   21  H           1     -21.327  -9.436  -3.265  0.00  0.00     0.163 HD
BRANCH  19  22
HETATM   22  C           1     -18.805  -9.509  -5.005  0.00  0.00     0.297 C 
BRANCH  22  23
HETATM   23  C           1     -19.595 -10.709  -5.511  0.00  0.00     0.206 C 
BRANCH  23  24
HETATM   24  O           1     -20.826 -10.276  -6.025  0.00  0.00    -0.398 OA
HETATM   25  H           1     -20.641  -9.574  -6.625  0.00  0.00     0.209 HD
ENDBRANCH  23  24
ENDBRANCH  22  23
BRANCH  22  26
HETATM   26  N           1     -17.354  -9.876  -4.898  0.00  0.00    -0.064 N 
HETATM   27  H           1     -16.773  -9.140  -5.360  0.00  0.00     0.275 HD
HETATM   28  H           1     -17.087  -9.949  -3.891  0.00  0.00     0.275 HD
HETATM   29  H           1     -17.192 -10.794  -5.370  0.00  0.00     0.275 HD
ENDBRANCH  22  26
ENDBRANCH  19  22
ENDBRANCH   1  18
TORSDOF 11
ENDMDL
MODEL 6
REMARK VINA RESULT:      -5.9     14.249     17.445
REMARK  11 active torsions:
REMARK  status: ('A' for Active; 'I' for Inactive)
REMARK    1  A    between atoms: C_2  and  C_9 
REMARK    2  A    between atoms: C_5  and  C_9 
REMARK    3  A    between atoms: C_5  and  C_28 
REMARK    4  A    between atoms: O_6  and  C_12 
REMARK    5  A    between atoms: O_6  and  P_7 
REMARK    6  A    between atoms: P_7  and  O_19 
REMARK    7  A    between atoms: C_8  and  C_24 
REMARK    8  A    between atoms: C_8  and  C_11 
REMARK    9  A    between atoms: C_8  and  N_16 
REMARK   10  A    between atoms: C_9  and  N_14 
REMARK   11  A    between atoms: C_11  and  O_15 
REMARK       I    between atoms: N_14  and  C_24 
ROOT
HETATM    1  C           1     -20.854  -7.116  -3.900  0.00  0.00     0.189 C 
ENDROOT
BRANCH   1   2
HETATM    2  C           1     -21.482  -6.839  -2.557  0.00  0.00     0.197 C 
HETATM    3  O           1     -21.132  -7.500  -1.555  0.00  0.00    -0.646 OA
HETATM    4  O           1     -22.351  -5.948  -2.444  0.00  0.00    -0.646 OA
ENDBRANCH   1   2
BRANCH   1   5
HETATM    5  C           1     -21.943  -7.457  -4.910  0.00  0.00     0.074 C 
BRANCH   5   6
HETATM    6  C           1     -22.007  -6.390  -5.956  0.00  0.00    -0.056 A 
HETATM    7  C           1     -23.146  -5.594  -6.072  0.00  0.00     0.010 A 
HETATM    8  C           1     -23.206  -4.598  -7.047  0.00  0.00     0.038 A 
HETATM    9  C           1     -22.125  -4.398  -7.907  0.00  0.00     0.081 A 
HETATM   10  C           1     -20.986  -5.194  -7.790  0.00  0.00     0.038 A 
HETATM   11  C           1     -20.926  -6.189  -6.815  0.00  0.00     0.010 A 
BRANCH   9  12
HETATM   12  O           1     -22.183  -3.431  -8.854  0.00  0.00    -0.247 OA
BRANCH  12  13
HETATM   13  P           1     -23.140  -3.677 -10.131  0.00  0.00     0.411 P 
HETATM   14  O           1     -22.519  -3.079 -11.335  0.00  0.00    -0.624 OA
HETATM   15  O           1     -23.323  -5.130 -10.341  0.00  0.00    -0.624 OA
BRANCH  13  16
HETATM   16  O           1     -24.576  -2.986  -9.867  0.00  0.00    -0.300 OA
HETATM   17  H           1     -25.204  -3.576 -10.249  0.00  0.00     0.223 HD
ENDBRANCH  13  16
ENDBRANCH  12  13
ENDBRANCH   9  12
ENDBRANCH   5   6
ENDBRANCH   1   5
BRANCH   1  18
HETATM   18  N           1     -19.937  -8.232  -3.784  0.00  0.00    -0.344 N 
HETATM   19  C           1     -19.823  -9.135  -4.807  0.00  0.00     0.251 C 
HETATM   20  O           1     -19.014  -8.954  -5.686  0.00  0.00    -0.271 OA
HETATM   21  H           1     -19.380  -8.345  -2.947  0.00  0.00     0.163 HD
BRANCH  19  22
HETATM   22  C           1     -20.708 -10.357  -4.838  0.00  0.00     0.297 C 
BRANCH  22  23
HETATM   23  C           1     -20.076 -11.465  -4.008  0.00  0.00     0.206 C 
BRANCH  23  24
HETATM   24  O           1     -18.776 -11.092  -3.639  0.00  0.00    -0.398 OA
HETATM   25  H           1     -18.242 -11.159  -4.412  0.00  0.00     0.209 HD
ENDBRANCH  23  24
ENDBRANCH  22  23
BRANCH  22  26
HETATM   26  N           1     -20.866 -10.823  -6.256  0.00  0.00    -0.064 N 
HETATM   27  H           1     -20.890 -11.868  -6.279  0.00  0.00     0.275 HD
HETATM   28  H           1     -21.756 -10.446  -6.649  0.00  0.00     0.275 HD
HETATM   29  H           1     -20.060 -10.481  -6.826  0.00  0.00     0.275 HD
ENDBRANCH  22  26
ENDBRANCH  19  22
ENDBRANCH   1  18
TORSDOF 11
ENDMDL
MODEL 7
REMARK VINA RESULT:      -5.8     16.534     19.292
REMARK  11 active torsions:
REMARK  status: ('A' for Active; 'I' for Inactive)
REMARK    1  A    between atoms: C_2  and  C_9 
REMARK    2  A    between atoms: C_5  and  C_9 
REMARK    3  A    between atoms: C_5  and  C_28 
REMARK    4  A    between atoms: O_6  and  C_12 
REMARK    5  A    between atoms: O_6  and  P_7 
REMARK    6  A    between atoms: P_7  and  O_19 
REMARK    7  A    between atoms: C_8  and  C_24 
REMARK    8  A    between atoms: C_8  and  C_11 
REMARK    9  A    between atoms: C_8  and  N_16 
REMARK   10  A    between atoms: C_9  and  N_14 
REMARK   11  A    between atoms: C_11  and  O_15 
REMARK       I    between atoms: N_14  and  C_24 
ROOT
HETATM    1  C           1     -21.242  -9.363  -0.657  0.00  0.00     0.189 C 
ENDROOT
BRANCH   1   2
HETATM    2  C           1     -20.927  -9.671   0.786  0.00  0.00     0.197 C 
HETATM    3  O           1     -20.484 -10.797   1.102  0.00  0.00    -0.646 OA
HETATM    4  O           1     -21.108  -8.801   1.665  0.00  0.00    -0.646 OA
ENDBRANCH   1   2
BRANCH   1   5
HETATM    5  C           1     -20.858  -7.921  -0.965  0.00  0.00     0.074 C 
BRANCH   5   6
HETATM    6  C           1     -20.931  -7.689  -2.441  0.00  0.00    -0.056 A 
HETATM    7  C           1     -20.089  -8.393  -3.301  0.00  0.00     0.010 A 
HETATM    8  C           1     -20.157  -8.177  -4.678  0.00  0.00     0.038 A 
HETATM    9  C           1     -21.070  -7.257  -5.194  0.00  0.00     0.081 A 
HETATM   10  C           1     -21.913  -6.553  -4.334  0.00  0.00     0.038 A 
HETATM   11  C           1     -21.844  -6.770  -2.958  0.00  0.00     0.010 A 
BRANCH   9  12
HETATM   12  O           1     -21.137  -7.047  -6.531  0.00  0.00    -0.247 OA
BRANCH  12  13
HETATM   13  P           1     -20.732  -5.588  -7.091  0.00  0.00     0.411 P 
HETATM   14  O           1     -20.055  -5.733  -8.399  0.00  0.00    -0.624 OA
HETATM   15  O           1     -21.951  -4.765  -7.256  0.00  0.00    -0.624 OA
BRANCH  13  16
HETATM   16  O           1     -19.734  -4.869  -6.045  0.00  0.00    -0.300 OA
HETATM   17  H           1     -18.895  -4.859  -6.474  0.00  0.00     0.223 HD
ENDBRANCH  13  16
ENDBRANCH  12  13
ENDBRANCH   9  12
ENDBRANCH   5   6
ENDBRANCH   1   5
BRANCH   1  18
HETATM   18  N           1     -22.662  -9.544  -0.891  0.00  0.00    -0.344 N 
HETATM   19  C           1     -23.205 -10.799  -0.867  0.00  0.00     0.251 C 
HETATM   20  O           1     -23.627 -11.256   0.169  0.00  0.00    -0.271 OA
HETATM   21  H           1     -23.251  -8.741  -1.072  0.00  0.00     0.163 HD
BRANCH  19  22
HETATM   22  C           1     -23.278 -11.615  -2.134  0.00  0.00     0.297 C 
BRANCH  22  23
HETATM   23  C           1     -22.457 -12.887  -1.970  0.00  0.00     0.206 C 
BRANCH  23  24
HETATM   24  O           1     -21.419 -12.659  -1.056  0.00  0.00    -0.398 OA
HETATM   25  H           1     -20.673 -13.147  -1.361  0.00  0.00     0.209 HD
ENDBRANCH  23  24
ENDBRANCH  22  23
BRANCH  22  26
HETATM   26  N           1     -22.729 -10.811  -3.277  0.00  0.00    -0.064 N 
HETATM   27  H           1     -22.316 -11.455  -3.989  0.00  0.00     0.275 HD
HETATM   28  H           1     -23.500 -10.258  -3.715  0.00  0.00     0.275 HD
HETATM   29  H           1     -21.991 -10.162  -2.923  0.00  0.00     0.275 HD
ENDBRANCH  22  26
ENDBRANCH  19  22
ENDBRANCH   1  18
TORSDOF 11
ENDMDL
MODEL 8
REMARK VINA RESULT:      -5.8      8.962     11.165
REMARK  11 active torsions:
REMARK  status: ('A' for Active; 'I' for Inactive)
REMARK    1  A    between atoms: C_2  and  C_9 
REMARK    2  A    between atoms: C_5  and  C_9 
REMARK    3  A    between atoms: C_5  and  C_28 
REMARK    4  A    between atoms: O_6  and  C_12 
REMARK    5  A    between atoms: O_6  and  P_7 
REMARK    6  A    between atoms: P_7  and  O_19 
REMARK    7  A    between atoms: C_8  and  C_24 
REMARK    8  A    between atoms: C_8  and  C_11 
REMARK    9  A    between atoms: C_8  and  N_16 
REMARK   10  A    between atoms: C_9  and  N_14 
REMARK   11  A    between atoms: C_11  and  O_15 
REMARK       I    between atoms: N_14  and  C_24 
ROOT
HETATM    1  C           1     -26.848  -6.206 -17.741  0.00  0.00     0.189 C 
ENDROOT
BRANCH   1   2
HETATM    2  C           1     -27.077  -6.202 -16.250  0.00  0.00     0.197 C 
HETATM    3  O           1     -27.347  -5.132 -15.662  0.00  0.00    -0.646 OA
HETATM    4  O           1     -26.997  -7.268 -15.602  0.00  0.00    -0.646 OA
ENDBRANCH   1   2
BRANCH   1   5
HETATM    5  C           1     -28.115  -6.667 -18.449  0.00  0.00     0.074 C 
BRANCH   5   6
HETATM    6  C           1     -29.267  -5.813 -18.018  0.00  0.00    -0.056 A 
HETATM    7  C           1     -30.314  -6.373 -17.286  0.00  0.00     0.010 A 
HETATM    8  C           1     -31.387  -5.578 -16.884  0.00  0.00     0.038 A 
HETATM    9  C           1     -31.413  -4.222 -17.214  0.00  0.00     0.081 A 
HETATM   10  C           1     -30.365  -3.663 -17.945  0.00  0.00     0.038 A 
HETATM   11  C           1     -29.292  -4.458 -18.347  0.00  0.00     0.010 A 
BRANCH   9  12
HETATM   12  O           1     -32.455  -3.450 -16.823  0.00  0.00    -0.247 OA
BRANCH  12  13
HETATM   13  P           1     -33.605  -4.131 -15.917  0.00  0.00     0.411 P 
HETATM   14  O           1     -33.167  -4.160 -14.504  0.00  0.00    -0.624 OA
HETATM   15  O           1     -34.854  -3.344 -16.030  0.00  0.00    -0.624 OA
BRANCH  13  16
HETATM   16  O           1     -33.871  -5.639 -16.430  0.00  0.00    -0.300 OA
HETATM   17  H           1     -34.809  -5.725 -16.459  0.00  0.00     0.223 HD
ENDBRANCH  13  16
ENDBRANCH  12  13
ENDBRANCH   9  12
ENDBRANCH   5   6
ENDBRANCH   1   5
BRANCH   1  18
HETATM   18  N           1     -25.761  -7.110 -18.061  0.00  0.00    -0.344 N 
HETATM   19  C           1     -24.871  -6.789 -19.050  0.00  0.00     0.251 C 
HETATM   20  O           1     -23.871  -6.166 -18.785  0.00  0.00    -0.271 OA
HETATM   21  H           1     -25.659  -7.979 -17.552  0.00  0.00     0.163 HD
BRANCH  19  22
HETATM   22  C           1     -25.139  -7.214 -20.473  0.00  0.00     0.297 C 
BRANCH  22  23
HETATM   23  C           1     -24.023  -8.134 -20.949  0.00  0.00     0.206 C 
BRANCH  23  24
HETATM   24  O           1     -24.293  -8.561 -22.257  0.00  0.00    -0.398 OA
HETATM   25  H           1     -23.948  -7.903 -22.836  0.00  0.00     0.209 HD
ENDBRANCH  23  24
ENDBRANCH  22  23
BRANCH  22  26
HETATM   26  N           1     -25.194  -6.000 -21.354  0.00  0.00    -0.064 N 
HETATM   27  H           1     -24.763  -5.188 -20.856  0.00  0.00     0.275 HD
HETATM   28  H           1     -24.666  -6.186 -22.236  0.00  0.00     0.275 HD
HETATM   29  H           1     -26.189  -5.780 -21.583  0.00  0.00     0.275 HD
ENDBRANCH  22  26
ENDBRANCH  19  22
ENDBRANCH   1  18
TORSDOF 11
ENDMDL
MODEL 9
REMARK VINA RESULT:      -5.7      8.404     10.734
REMARK  11 active torsions:
REMARK  status: ('A' for Active; 'I' for Inactive)
REMARK    1  A    between atoms: C_2  and  C_9 
REMARK    2  A    between atoms: C_5  and  C_9 
REMARK    3  A    between atoms: C_5  and  C_28 
REMARK    4  A    between atoms: O_6  and  C_12 
REMARK    5  A    between atoms: O_6  and  P_7 
REMARK    6  A    between atoms: P_7  and  O_19 
REMARK    7  A    between atoms: C_8  and  C_24 
REMARK    8  A    between atoms: C_8  and  C_11 
REMARK    9  A    between atoms: C_8  and  N_16 
REMARK   10  A    between atoms: C_9  and  N_14 
REMARK   11  A    between atoms: C_11  and  O_15 
REMARK       I    between atoms: N_14  and  C_24 
ROOT
HETATM    1  C           1     -27.193  -5.922 -17.169  0.00  0.00     0.189 C 
ENDROOT
BRANCH   1   2
HETATM    2  C           1     -26.273  -6.650 -16.221  0.00  0.00     0.197 C 
HETATM    3  O           1     -26.742  -7.469 -15.401  0.00  0.00    -0.646 OA
HETATM    4  O           1     -25.042  -6.437 -16.257  0.00  0.00    -0.646 OA
ENDBRANCH   1   2
BRANCH   1   5
HETATM    5  C           1     -28.406  -6.793 -17.472  0.00  0.00     0.074 C 
BRANCH   5   6
HETATM    6  C           1     -29.652  -5.973 -17.352  0.00  0.00    -0.056 A 
HETATM    7  C           1     -29.578  -4.581 -17.390  0.00  0.00     0.010 A 
HETATM    8  C           1     -30.740  -3.817 -17.279  0.00  0.00     0.038 A 
HETATM    9  C           1     -31.976  -4.445 -17.130  0.00  0.00     0.081 A 
HETATM   10  C           1     -32.050  -5.838 -17.094  0.00  0.00     0.038 A 
HETATM   11  C           1     -30.889  -6.601 -17.205  0.00  0.00     0.010 A 
BRANCH   9  12
HETATM   12  O           1     -33.104  -3.704 -17.024  0.00  0.00    -0.247 OA
BRANCH  12  13
HETATM   13  P           1     -34.030  -3.915 -15.718  0.00  0.00     0.411 P 
HETATM   14  O           1     -33.171  -4.073 -14.523  0.00  0.00    -0.624 OA
HETATM   15  O           1     -34.911  -2.739 -15.539  0.00  0.00    -0.624 OA
BRANCH  13  16
HETATM   16  O           1     -34.935  -5.239 -15.909  0.00  0.00    -0.300 OA
HETATM   17  H           1     -35.784  -5.006 -15.574  0.00  0.00     0.223 HD
ENDBRANCH  13  16
ENDBRANCH  12  13
ENDBRANCH   9  12
ENDBRANCH   5   6
ENDBRANCH   1   5
BRANCH   1  18
HETATM   18  N           1     -26.487  -5.633 -18.402  0.00  0.00    -0.344 N 
HETATM   19  C           1     -26.750  -6.362 -19.529  0.00  0.00     0.251 C 
HETATM   20  O           1     -27.613  -6.003 -20.295  0.00  0.00    -0.271 OA
HETATM   21  H           1     -25.800  -4.891 -18.429  0.00  0.00     0.163 HD
BRANCH  19  22
HETATM   22  C           1     -25.963  -7.617 -19.817  0.00  0.00     0.297 C 
BRANCH  22  23
HETATM   23  C           1     -24.484  -7.275 -19.935  0.00  0.00     0.206 C 
BRANCH  23  24
HETATM   24  O           1     -23.864  -7.437 -18.688  0.00  0.00    -0.398 OA
HETATM   25  H           1     -24.527  -7.299 -18.033  0.00  0.00     0.209 HD
ENDBRANCH  23  24
ENDBRANCH  22  23
BRANCH  22  26
HETATM   26  N           1     -26.440  -8.221 -21.106  0.00  0.00    -0.064 N 
HETATM   27  H           1     -26.955  -9.108 -20.906  0.00  0.00     0.275 HD
HETATM   28  H           1     -27.078  -7.550 -21.589  0.00  0.00     0.275 HD
HETATM   29  H           1     -25.619  -8.425 -21.719  0.00  0.00     0.275 HD
ENDBRANCH  22  26
ENDBRANCH  19  22
ENDBRANCH   1  18
TORSDOF 11
ENDMDL
