MODEL 1
REMARK VINA RESULT:      -6.2      0.000      0.000
REMARK  11 active torsions:
REMARK  status: ('A' for Active; 'I' for Inactive)
REMARK    1  A    between atoms: N_4  and  C_9 
REMARK    2  A    between atoms: N_7  and  C_16 
REMARK       I    between atoms: N_7  and  C_8 
REMARK    3  A    between atoms: C_8  and  C_9 
REMARK    4  A    between atoms: C_9  and  C_10 
REMARK    5  A    between atoms: C_10  and  C_11 
REMARK    6  A    between atoms: C_11  and  C_12 
REMARK    7  A    between atoms: C_14  and  C_15 
REMARK    8  A    between atoms: C_14  and  C_16 
REMARK    9  A    between atoms: C_15  and  C_24 
REMARK   10  A    between atoms: C_16  and  C_23 
REMARK   11  A    between atoms: C_24  and  N_25 
ROOT
HETATM    1  H           1     -27.550  -8.124 -18.789  0.00  0.00     0.163 HD
HETATM    2  O           1     -28.618  -5.201 -19.181  0.00  0.00    -0.271 OA
HETATM    3  N           1     -27.655  -7.215 -19.222  0.00  0.00    -0.345 N 
HETATM    4  C           1     -28.491  -6.286 -18.665  0.00  0.00     0.249 C 
ENDROOT
BRANCH   3   5
HETATM    5  C           1     -26.921  -6.898 -20.431  0.00  0.00     0.185 C 
BRANCH   5   6
HETATM    6  C           1     -25.550  -6.347 -20.062  0.00  0.00     0.038 C 
BRANCH   6   7
HETATM    7  C           1     -25.041  -7.048 -18.809  0.00  0.00     0.030 C 
BRANCH   7   8
HETATM    8  C           1     -23.519  -7.082 -18.827  0.00  0.00     0.230 C 
BRANCH   8   9
HETATM    9  N           1     -23.011  -7.489 -17.476  0.00  0.00    -0.079 N 
HETATM   10  H           1     -23.407  -8.422 -17.222  0.00  0.00     0.274 HD
HETATM   11  H           1     -23.303  -6.780 -16.766  0.00  0.00     0.274 HD
HETATM   12  H           1     -21.968  -7.549 -17.499  0.00  0.00     0.274 HD
ENDBRANCH   8   9
ENDBRANCH   7   8
ENDBRANCH   6   7
ENDBRANCH   5   6
BRANCH   5  13
HETATM   13  C           1     -26.755  -8.148 -21.260  0.00  0.00     0.196 C 
HETATM   14  O           1     -25.642  -8.425 -21.758  0.00  0.00    -0.646 OA
HETATM   15  O           1     -27.731  -8.907 -21.449  0.00  0.00    -0.646 OA
ENDBRANCH   5  13
ENDBRANCH   3   5
BRANCH   4  16
HETATM   16  C           1     -29.255  -6.616 -17.406  0.00  0.00     0.275 C 
BRANCH  16  17
HETATM   17  N           1     -29.359  -8.106 -17.261  0.00  0.00    -0.066 N 
HETATM   18  H           1     -29.978  -8.486 -18.013  0.00  0.00     0.275 HD
HETATM   19  H           1     -28.408  -8.531 -17.344  0.00  0.00     0.275 HD
HETATM   20  H           1     -29.764  -8.338 -16.327  0.00  0.00     0.275 HD
ENDBRANCH  16  17
BRANCH  16  21
HETATM   21  C           1     -28.523  -6.040 -16.201  0.00  0.00     0.053 C 
BRANCH  21  22
HETATM   22  C           1     -27.638  -7.114 -15.583  0.00  0.00     0.115 C 
BRANCH  22  23
HETATM   23  C           1     -26.193  -6.684 -15.664  0.00  0.00     0.172 C 
HETATM   24  O           1     -25.906  -5.527 -16.039  0.00  0.00    -0.648 OA
HETATM   25  O           1     -25.285  -7.484 -15.354  0.00  0.00    -0.648 OA
ENDBRANCH  22  23
ENDBRANCH  21  22
ENDBRANCH  16  21
ENDBRANCH   4  16
TORSDOF 11
ENDMDL
MODEL 2
REMARK VINA RESULT:      -6.1      2.355      5.845
REMARK  11 active torsions:
REMARK  status: ('A' for Active; 'I' for Inactive)
REMARK    1  A    between atoms: N_4  and  C_9 
REMARK    2  A    between atoms: N_7  and  C_16 
REMARK       I    between atoms: N_7  and  C_8 
REMARK    3  A    between atoms: C_8  and  C_9 
REMARK    4  A    between atoms: C_9  and  C_10 
REMARK    5  A    between atoms: C_10  and  C_11 
REMARK    6  A    between atoms: C_11  and  C_12 
REMARK    7  A    between atoms: C_14  and  C_15 
REMARK    8  A    between atoms: C_14  and  C_16 
REMARK    9  A    between atoms: C_15  and  C_24 
REMARK   10  A    between atoms: C_16  and  C_23 
REMARK   11  A    between atoms: C_24  and  N_25 
ROOT
HETATM    1  H           1     -27.055  -7.370 -18.690  0.00  0.00     0.163 HD
HETATM    2  O           1     -24.066  -6.419 -18.725  0.00  0.00    -0.271 OA
HETATM    3  N           1     -26.219  -6.897 -18.373  0.00  0.00    -0.345 N 
HETATM    4  C           1     -25.065  -6.982 -19.104  0.00  0.00     0.249 C 
ENDROOT
BRANCH   3   5
HETATM    5  C           1     -26.242  -6.130 -17.142  0.00  0.00     0.185 C 
BRANCH   5   6
HETATM    6  C           1     -27.561  -5.375 -17.040  0.00  0.00     0.038 C 
BRANCH   6   7
HETATM    7  C           1     -28.500  -5.841 -18.146  0.00  0.00     0.030 C 
BRANCH   7   8
HETATM    8  C           1     -29.704  -6.540 -17.530  0.00  0.00     0.230 C 
BRANCH   8   9
HETATM    9  N           1     -29.408  -8.002 -17.374  0.00  0.00    -0.079 N 
HETATM   10  H           1     -29.374  -8.244 -16.358  0.00  0.00     0.274 HD
HETATM   11  H           1     -28.486  -8.220 -17.816  0.00  0.00     0.274 HD
HETATM   12  H           1     -30.157  -8.562 -17.839  0.00  0.00     0.274 HD
ENDBRANCH   8   9
ENDBRANCH   7   8
ENDBRANCH   6   7
ENDBRANCH   5   6
BRANCH   5  13
HETATM   13  C           1     -26.104  -7.064 -15.966  0.00  0.00     0.196 C 
HETATM   14  O           1     -27.121  -7.441 -15.344  0.00  0.00    -0.646 OA
HETATM   15  O           1     -24.972  -7.462 -15.612  0.00  0.00    -0.646 OA
ENDBRANCH   5  13
ENDBRANCH   3   5
BRANCH   4  16
HETATM   16  C           1     -25.041  -7.781 -20.385  0.00  0.00     0.275 C 
BRANCH  16  17
HETATM   17  N           1     -26.448  -8.032 -20.843  0.00  0.00    -0.066 N 
HETATM   18  H           1     -27.088  -7.337 -20.396  0.00  0.00     0.275 HD
HETATM   19  H           1     -26.498  -7.936 -21.882  0.00  0.00     0.275 HD
HETATM   20  H           1     -26.736  -8.998 -20.568  0.00  0.00     0.275 HD
ENDBRANCH  16  17
BRANCH  16  21
HETATM   21  C           1     -24.291  -7.000 -21.456  0.00  0.00     0.053 C 
BRANCH  21  22
HETATM   22  C           1     -23.842  -7.951 -22.557  0.00  0.00     0.115 C 
BRANCH  22  23
HETATM   23  C           1     -22.553  -8.621 -22.149  0.00  0.00     0.172 C 
HETATM   24  O           1     -22.013  -8.327 -21.062  0.00  0.00    -0.648 OA
HETATM   25  O           1     -22.027  -9.472 -22.899  0.00  0.00    -0.648 OA
ENDBRANCH  22  23
ENDBRANCH  21  22
ENDBRANCH  16  21
ENDBRANCH   4  16
TORSDOF 11
ENDMDL
MODEL 3
REMARK VINA RESULT:      -6.1     10.109     11.987
REMARK  11 active torsions:
REMARK  status: ('A' for Active; 'I' for Inactive)
REMARK    1  A    between atoms: N_4  and  C_9 
REMARK    2  A    between atoms: N_7  and  C_16 
REMARK       I    between atoms: N_7  and  C_8 
REMARK    3  A    between atoms: C_8  and  C_9 
REMARK    4  A    between atoms: C_9  and  C_10 
REMARK    5  A    between atoms: C_10  and  C_11 
REMARK    6  A    between atoms: C_11  and  C_12 
REMARK    7  A    between atoms: C_14  and  C_15 
REMARK    8  A    between atoms: C_14  and  C_16 
REMARK    9  A    between atoms: C_15  and  C_24 
REMARK   10  A    between atoms: C_16  and  C_23 
REMARK   11  A    between atoms: C_24  and  N_25 
ROOT
HETATM    1  H           1     -36.578  -3.438 -11.137  0.00  0.00     0.163 HD
HETATM    2  O           1     -34.079  -1.587 -10.728  0.00  0.00    -0.271 OA
HETATM    3  N           1     -35.601  -3.189 -11.050  0.00  0.00    -0.345 N 
HETATM    4  C           1     -35.245  -1.886 -10.831  0.00  0.00     0.249 C 
ENDROOT
BRANCH   3   5
HETATM    5  C           1     -34.579  -4.211 -11.159  0.00  0.00     0.185 C 
BRANCH   5   6
HETATM    6  C           1     -35.055  -5.480 -10.463  0.00  0.00     0.038 C 
BRANCH   6   7
HETATM    7  C           1     -33.971  -6.547 -10.554  0.00  0.00     0.030 C 
BRANCH   7   8
HETATM    8  C           1     -34.541  -7.889 -10.118  0.00  0.00     0.230 C 
BRANCH   8   9
HETATM    9  N           1     -33.491  -8.950 -10.263  0.00  0.00    -0.079 N 
HETATM   10  H           1     -33.830  -9.837  -9.828  0.00  0.00     0.274 HD
HETATM   11  H           1     -32.614  -8.640  -9.787  0.00  0.00     0.274 HD
HETATM   12  H           1     -33.297  -9.113 -11.277  0.00  0.00     0.274 HD
ENDBRANCH   8   9
ENDBRANCH   7   8
ENDBRANCH   6   7
ENDBRANCH   5   6
BRANCH   5  13
HETATM   13  C           1     -34.315  -4.505 -12.615  0.00  0.00     0.196 C 
HETATM   14  O           1     -33.307  -4.025 -13.178  0.00  0.00    -0.646 OA
HETATM   15  O           1     -35.106  -5.228 -13.261  0.00  0.00    -0.646 OA
ENDBRANCH   5  13
ENDBRANCH   3   5
BRANCH   4  16
HETATM   16  C           1     -36.309  -0.822 -10.718  0.00  0.00     0.275 C 
BRANCH  16  17
HETATM   17  N           1     -36.268  -0.218  -9.344  0.00  0.00    -0.066 N 
HETATM   18  H           1     -35.334  -0.402  -8.912  0.00  0.00     0.275 HD
HETATM   19  H           1     -36.424   0.813  -9.413  0.00  0.00     0.275 HD
HETATM   20  H           1     -37.015  -0.645  -8.753  0.00  0.00     0.275 HD
ENDBRANCH  16  17
BRANCH  16  21
HETATM   21  C           1     -36.055   0.263 -11.756  0.00  0.00     0.053 C 
BRANCH  21  22
HETATM   22  C           1     -36.566  -0.203 -13.113  0.00  0.00     0.115 C 
BRANCH  22  23
HETATM   23  C           1     -35.394  -0.519 -14.011  0.00  0.00     0.172 C 
HETATM   24  O           1     -34.614   0.392 -14.363  0.00  0.00    -0.648 OA
HETATM   25  O           1     -35.205  -1.691 -14.400  0.00  0.00    -0.648 OA
ENDBRANCH  22  23
ENDBRANCH  21  22
ENDBRANCH  16  21
ENDBRANCH   4  16
TORSDOF 11
ENDMDL
MODEL 4
REMARK VINA RESULT:      -6.1     10.755     12.785
REMARK  11 active torsions:
REMARK  status: ('A' for Active; 'I' for Inactive)
REMARK    1  A    between atoms: N_4  and  C_9 
REMARK    2  A    between atoms: N_7  and  C_16 
REMARK       I    between atoms: N_7  and  C_8 
REMARK    3  A    between atoms: C_8  and  C_9 
REMARK    4  A    between atoms: C_9  and  C_10 
REMARK    5  A    between atoms: C_10  and  C_11 
REMARK    6  A    between atoms: C_11  and  C_12 
REMARK    7  A    between atoms: C_14  and  C_15 
REMARK    8  A    between atoms: C_14  and  C_16 
REMARK    9  A    between atoms: C_15  and  C_24 
REMARK   10  A    between atoms: C_16  and  C_23 
REMARK   11  A    between atoms: C_24  and  N_25 
ROOT
HETATM    1  H           1     -35.174  -0.431 -11.267  0.00  0.00     0.163 HD
HETATM    2  O           1     -34.663  -2.705 -13.367  0.00  0.00    -0.271 OA
HETATM    3  N           1     -35.311  -0.979 -12.106  0.00  0.00    -0.345 N 
HETATM    4  C           1     -34.500  -2.051 -12.364  0.00  0.00     0.249 C 
ENDROOT
BRANCH   3   5
HETATM    5  C           1     -36.367  -0.628 -13.037  0.00  0.00     0.185 C 
BRANCH   5   6
HETATM    6  C           1     -37.571  -0.105 -12.264  0.00  0.00     0.038 C 
BRANCH   6   7
HETATM    7  C           1     -37.445  -0.502 -10.799  0.00  0.00     0.030 C 
BRANCH   7   8
HETATM    8  C           1     -37.721   0.710  -9.919  0.00  0.00     0.230 C 
BRANCH   8   9
HETATM    9  N           1     -36.440   1.173  -9.289  0.00  0.00    -0.079 N 
HETATM   10  H           1     -35.631   0.833  -9.855  0.00  0.00     0.274 HD
HETATM   11  H           1     -36.373   0.791  -8.318  0.00  0.00     0.274 HD
HETATM   12  H           1     -36.426   2.217  -9.254  0.00  0.00     0.274 HD
ENDBRANCH   8   9
ENDBRANCH   7   8
ENDBRANCH   6   7
ENDBRANCH   5   6
BRANCH   5  13
HETATM   13  C           1     -35.870   0.442 -13.979  0.00  0.00     0.196 C 
HETATM   14  O           1     -36.441   0.624 -15.076  0.00  0.00    -0.646 OA
HETATM   15  O           1     -34.887   1.146 -13.661  0.00  0.00    -0.646 OA
ENDBRANCH   5  13
ENDBRANCH   3   5
BRANCH   4  16
HETATM   16  C           1     -33.402  -2.416 -11.395  0.00  0.00     0.275 C 
BRANCH  16  17
HETATM   17  N           1     -33.836  -2.080  -9.998  0.00  0.00    -0.066 N 
HETATM   18  H           1     -33.665  -2.901  -9.375  0.00  0.00     0.275 HD
HETATM   19  H           1     -33.291  -1.259  -9.653  0.00  0.00     0.275 HD
HETATM   20  H           1     -34.855  -1.848  -9.997  0.00  0.00     0.275 HD
ENDBRANCH  16  17
BRANCH  16  21
HETATM   21  C           1     -33.115  -3.909 -11.492  0.00  0.00     0.053 C 
BRANCH  21  22
HETATM   22  C           1     -34.034  -4.665 -10.542  0.00  0.00     0.115 C 
BRANCH  22  23
HETATM   23  C           1     -34.602  -5.874 -11.246  0.00  0.00     0.172 C 
HETATM   24  O           1     -34.582  -6.990 -10.685  0.00  0.00    -0.648 OA
HETATM   25  O           1     -35.092  -5.757 -12.389  0.00  0.00    -0.648 OA
ENDBRANCH  22  23
ENDBRANCH  21  22
ENDBRANCH  16  21
ENDBRANCH   4  16
TORSDOF 11
ENDMDL
MODEL 5
REMARK VINA RESULT:      -6.1      2.282      5.618
REMARK  11 active torsions:
REMARK  status: ('A' for Active; 'I' for Inactive)
REMARK    1  A    between atoms: N_4  and  C_9 
REMARK    2  A    between atoms: N_7  and  C_16 
REMARK       I    between atoms: N_7  and  C_8 
REMARK    3  A    between atoms: C_8  and  C_9 
REMARK    4  A    between atoms: C_9  and  C_10 
REMARK    5  A    between atoms: C_10  and  C_11 
REMARK    6  A    between atoms: C_11  and  C_12 
REMARK    7  A    between atoms: C_14  and  C_15 
REMARK    8  A    between atoms: C_14  and  C_16 
REMARK    9  A    between atoms: C_15  and  C_24 
REMARK   10  A    between atoms: C_16  and  C_23 
REMARK   11  A    between atoms: C_24  and  N_25 
ROOT
HETATM    1  H           1     -27.499  -6.971 -19.208  0.00  0.00     0.163 HD
HETATM    2  O           1     -26.452  -5.603 -16.587  0.00  0.00    -0.271 OA
HETATM    3  N           1     -27.546  -6.483 -18.323  0.00  0.00    -0.345 N 
HETATM    4  C           1     -26.396  -6.184 -17.644  0.00  0.00     0.249 C 
ENDROOT
BRANCH   3   5
HETATM    5  C           1     -28.833  -6.102 -17.772  0.00  0.00     0.185 C 
BRANCH   5   6
HETATM    6  C           1     -29.333  -4.848 -18.477  0.00  0.00     0.038 C 
BRANCH   6   7
HETATM    7  C           1     -29.804  -3.835 -17.440  0.00  0.00     0.030 C 
BRANCH   7   8
HETATM    8  C           1     -31.321  -3.727 -17.488  0.00  0.00     0.230 C 
BRANCH   8   9
HETATM    9  N           1     -31.914  -4.500 -16.347  0.00  0.00    -0.079 N 
HETATM   10  H           1     -32.925  -4.680 -16.537  0.00  0.00     0.274 HD
HETATM   11  H           1     -31.817  -3.948 -15.465  0.00  0.00     0.274 HD
HETATM   12  H           1     -31.412  -5.410 -16.244  0.00  0.00     0.274 HD
ENDBRANCH   8   9
ENDBRANCH   7   8
ENDBRANCH   6   7
ENDBRANCH   5   6
BRANCH   5  13
HETATM   13  C           1     -29.820  -7.224 -17.979  0.00  0.00     0.196 C 
HETATM   14  O           1     -30.898  -7.233 -17.346  0.00  0.00    -0.646 OA
HETATM   15  O           1     -29.560  -8.145 -18.784  0.00  0.00    -0.646 OA
ENDBRANCH   5  13
ENDBRANCH   3   5
BRANCH   4  16
HETATM   16  C           1     -25.057  -6.582 -18.217  0.00  0.00     0.275 C 
BRANCH  16  17
HETATM   17  N           1     -24.474  -7.695 -17.397  0.00  0.00    -0.066 N 
HETATM   18  H           1     -25.224  -8.382 -17.161  0.00  0.00     0.275 HD
HETATM   19  H           1     -23.722  -8.172 -17.943  0.00  0.00     0.275 HD
HETATM   20  H           1     -24.070  -7.304 -16.517  0.00  0.00     0.275 HD
ENDBRANCH  16  17
BRANCH  16  21
HETATM   21  C           1     -25.240  -7.052 -19.654  0.00  0.00     0.053 C 
BRANCH  21  22
HETATM   22  C           1     -23.948  -7.691 -20.147  0.00  0.00     0.115 C 
BRANCH  22  23
HETATM   23  C           1     -24.106  -8.096 -21.593  0.00  0.00     0.172 C 
HETATM   24  O           1     -25.247  -8.277 -22.069  0.00  0.00    -0.648 OA
HETATM   25  O           1     -23.097  -8.249 -22.312  0.00  0.00    -0.648 OA
ENDBRANCH  22  23
ENDBRANCH  21  22
ENDBRANCH  16  21
ENDBRANCH   4  16
TORSDOF 11
ENDMDL
MODEL 6
REMARK VINA RESULT:      -6.0     10.492     12.333
REMARK  11 active torsions:
REMARK  status: ('A' for Active; 'I' for Inactive)
REMARK    1  A    between atoms: N_4  and  C_9 
REMARK    2  A    between atoms: N_7  and  C_16 
REMARK       I    between atoms: N_7  and  C_8 
REMARK    3  A    between atoms: C_8  and  C_9 
REMARK    4  A    between atoms: C_9  and  C_10 
REMARK    5  A    between atoms: C_10  and  C_11 
REMARK    6  A    between atoms: C_11  and  C_12 
REMARK    7  A    between atoms: C_14  and  C_15 
REMARK    8  A    between atoms: C_14  and  C_16 
REMARK    9  A    between atoms: C_15  and  C_24 
REMARK   10  A    between atoms: C_16  and  C_23 
REMARK   11  A    between atoms: C_24  and  N_25 
ROOT
HETATM    1  H           1     -35.384  -2.182 -13.476  0.00  0.00     0.163 HD
HETATM    2  O           1     -33.711  -2.222 -10.823  0.00  0.00    -0.271 OA
HETATM    3  N           1     -34.939  -1.817 -12.643  0.00  0.00    -0.345 N 
HETATM    4  C           1     -34.242  -2.657 -11.817  0.00  0.00     0.249 C 
ENDROOT
BRANCH   3   5
HETATM    5  C           1     -35.040  -0.406 -12.325  0.00  0.00     0.185 C 
BRANCH   5   6
HETATM    6  C           1     -35.061   0.404 -13.615  0.00  0.00     0.038 C 
BRANCH   6   7
HETATM    7  C           1     -35.565  -0.471 -14.756  0.00  0.00     0.030 C 
BRANCH   7   8
HETATM    8  C           1     -36.813   0.155 -15.363  0.00  0.00     0.230 C 
BRANCH   8   9
HETATM    9  N           1     -36.483   1.519 -15.891  0.00  0.00    -0.079 N 
HETATM   10  H           1     -36.535   2.216 -15.115  0.00  0.00     0.274 HD
HETATM   11  H           1     -37.166   1.777 -16.639  0.00  0.00     0.274 HD
HETATM   12  H           1     -35.517   1.515 -16.290  0.00  0.00     0.274 HD
ENDBRANCH   8   9
ENDBRANCH   7   8
ENDBRANCH   6   7
ENDBRANCH   5   6
BRANCH   5  13
HETATM   13  C           1     -36.313  -0.156 -11.553  0.00  0.00     0.196 C 
HETATM   14  O           1     -36.298   0.583 -10.545  0.00  0.00    -0.646 OA
HETATM   15  O           1     -37.382  -0.689 -11.922  0.00  0.00    -0.646 OA
ENDBRANCH   5  13
ENDBRANCH   3   5
BRANCH   4  16
HETATM   16  C           1     -34.136  -4.126 -12.149  0.00  0.00     0.275 C 
BRANCH  16  17
HETATM   17  N           1     -32.737  -4.438 -12.591  0.00  0.00    -0.066 N 
HETATM   18  H           1     -32.737  -4.666 -13.610  0.00  0.00     0.275 HD
HETATM   19  H           1     -32.124  -3.610 -12.418  0.00  0.00     0.275 HD
HETATM   20  H           1     -32.376  -5.257 -12.051  0.00  0.00     0.275 HD
ENDBRANCH  16  17
BRANCH  16  21
HETATM   21  C           1     -34.474  -4.951 -10.914  0.00  0.00     0.053 C 
BRANCH  21  22
HETATM   22  C           1     -33.669  -6.242 -10.930  0.00  0.00     0.115 C 
BRANCH  22  23
HETATM   23  C           1     -34.407  -7.306 -10.154  0.00  0.00     0.172 C 
HETATM   24  O           1     -35.449  -7.014  -9.528  0.00  0.00    -0.648 OA
HETATM   25  O           1     -33.977  -8.479 -10.138  0.00  0.00    -0.648 OA
ENDBRANCH  22  23
ENDBRANCH  21  22
ENDBRANCH  16  21
ENDBRANCH   4  16
TORSDOF 11
ENDMDL
MODEL 7
REMARK VINA RESULT:      -5.9      6.423      9.464
REMARK  11 active torsions:
REMARK  status: ('A' for Active; 'I' for Inactive)
REMARK    1  A    between atoms: N_4  and  C_9 
REMARK    2  A    between atoms: N_7  and  C_16 
REMARK       I    between atoms: N_7  and  C_8 
REMARK    3  A    between atoms: C_8  and  C_9 
REMARK    4  A    between atoms: C_9  and  C_10 
REMARK    5  A    between atoms: C_10  and  C_11 
REMARK    6  A    between atoms: C_11  and  C_12 
REMARK    7  A    between atoms: C_14  and  C_15 
REMARK    8  A    between atoms: C_14  and  C_16 
REMARK    9  A    between atoms: C_15  and  C_24 
REMARK   10  A    between atoms: C_16  and  C_23 
REMARK   11  A    between atoms: C_24  and  N_25 
ROOT
HETATM    1  H           1     -32.478  -3.466 -14.414  0.00  0.00     0.163 HD
HETATM    2  O           1     -35.020  -5.038 -15.366  0.00  0.00    -0.271 OA
HETATM    3  N           1     -33.375  -3.928 -14.342  0.00  0.00    -0.345 N 
HETATM    4  C           1     -33.948  -4.487 -15.452  0.00  0.00     0.249 C 
ENDROOT
BRANCH   3   5
HETATM    5  C           1     -34.054  -3.997 -13.062  0.00  0.00     0.185 C 
BRANCH   5   6
HETATM    6  C           1     -33.022  -4.084 -11.945  0.00  0.00     0.038 C 
BRANCH   6   7
HETATM    7  C           1     -33.034  -5.487 -11.350  0.00  0.00     0.030 C 
BRANCH   7   8
HETATM    8  C           1     -34.430  -5.808 -10.835  0.00  0.00     0.230 C 
BRANCH   8   9
HETATM    9  N           1     -34.656  -7.290 -10.892  0.00  0.00    -0.079 N 
HETATM   10  H           1     -35.177  -7.529 -11.765  0.00  0.00     0.274 HD
HETATM   11  H           1     -35.213  -7.589 -10.059  0.00  0.00     0.274 HD
HETATM   12  H           1     -33.735  -7.784 -10.890  0.00  0.00     0.274 HD
ENDBRANCH   8   9
ENDBRANCH   7   8
ENDBRANCH   6   7
ENDBRANCH   5   6
BRANCH   5  13
HETATM   13  C           1     -34.897  -2.760 -12.874  0.00  0.00     0.196 C 
HETATM   14  O           1     -34.824  -1.822 -13.697  0.00  0.00    -0.646 OA
HETATM   15  O           1     -35.669  -2.673 -11.894  0.00  0.00    -0.646 OA
ENDBRANCH   5  13
ENDBRANCH   3   5
BRANCH   4  16
HETATM   16  C           1     -33.241  -4.414 -16.783  0.00  0.00     0.275 C 
BRANCH  16  17
HETATM   17  N           1     -33.482  -3.069 -17.404  0.00  0.00    -0.066 N 
HETATM   18  H           1     -32.604  -2.736 -17.862  0.00  0.00     0.275 HD
HETATM   19  H           1     -34.241  -3.147 -18.118  0.00  0.00     0.275 HD
HETATM   20  H           1     -33.768  -2.390 -16.664  0.00  0.00     0.275 HD
ENDBRANCH  16  17
BRANCH  16  21
HETATM   21  C           1     -31.746  -4.616 -16.576  0.00  0.00     0.053 C 
BRANCH  21  22
HETATM   22  C           1     -30.974  -3.687 -17.503  0.00  0.00     0.115 C 
BRANCH  22  23
HETATM   23  C           1     -29.601  -4.259 -17.762  0.00  0.00     0.172 C 
HETATM   24  O           1     -28.587  -3.668 -17.333  0.00  0.00    -0.648 OA
HETATM   25  O           1     -29.480  -5.324 -18.403  0.00  0.00    -0.648 OA
ENDBRANCH  22  23
ENDBRANCH  21  22
ENDBRANCH  16  21
ENDBRANCH   4  16
TORSDOF 11
ENDMDL
MODEL 8
REMARK VINA RESULT:      -5.8     11.289     14.355
REMARK  11 active torsions:
REMARK  status: ('A' for Active; 'I' for Inactive)
REMARK    1  A    between atoms: N_4  and  C_9 
REMARK    2  A    between atoms: N_7  and  C_16 
REMARK       I    between atoms: N_7  and  C_8 
REMARK    3  A    between atoms: C_8  and  C_9 
REMARK    4  A    between atoms: C_9  and  C_10 
REMARK    5  A    between atoms: C_10  and  C_11 
REMARK    6  A    between atoms: C_11  and  C_12 
REMARK    7  A    between atoms: C_14  and  C_15 
REMARK    8  A    between atoms: C_14  and  C_16 
REMARK    9  A    between atoms: C_15  and  C_24 
REMARK   10  A    between atoms: C_16  and  C_23 
REMARK   11  A    between atoms: C_24  and  N_25 
ROOT
HETATM    1  H           1     -22.424  -6.949  -6.223  0.00  0.00     0.163 HD
HETATM    2  O           1     -20.644  -4.375  -6.004  0.00  0.00    -0.271 OA
HETATM    3  N           1     -21.755  -6.303  -5.823  0.00  0.00    -0.345 N 
HETATM    4  C           1     -21.444  -5.145  -6.481  0.00  0.00     0.249 C 
ENDROOT
BRANCH   3   5
HETATM    5  C           1     -21.126  -6.607  -4.552  0.00  0.00     0.185 C 
BRANCH   5   6
HETATM    6  C           1     -22.200  -6.826  -3.494  0.00  0.00     0.038 C 
BRANCH   6   7
HETATM    7  C           1     -21.835  -6.054  -2.232  0.00  0.00     0.030 C 
BRANCH   7   8
HETATM    8  C           1     -22.284  -6.840  -1.008  0.00  0.00     0.230 C 
BRANCH   8   9
HETATM    9  N           1     -21.875  -8.275  -1.157  0.00  0.00    -0.079 N 
HETATM   10  H           1     -21.216  -8.367  -1.962  0.00  0.00     0.274 HD
HETATM   11  H           1     -22.722  -8.862  -1.330  0.00  0.00     0.274 HD
HETATM   12  H           1     -21.403  -8.596  -0.282  0.00  0.00     0.274 HD
ENDBRANCH   8   9
ENDBRANCH   7   8
ENDBRANCH   6   7
ENDBRANCH   5   6
BRANCH   5  13
HETATM   13  C           1     -20.293  -7.858  -4.690  0.00  0.00     0.196 C 
HETATM   14  O           1     -20.299  -8.717  -3.782  0.00  0.00    -0.646 OA
HETATM   15  O           1     -19.597  -8.035  -5.714  0.00  0.00    -0.646 OA
ENDBRANCH   5  13
ENDBRANCH   3   5
BRANCH   4  16
HETATM   16  C           1     -22.099  -4.829  -7.804  0.00  0.00     0.275 C 
BRANCH  16  17
HETATM   17  N           1     -23.439  -4.200  -7.560  0.00  0.00    -0.066 N 
HETATM   18  H           1     -23.791  -3.777  -8.448  0.00  0.00     0.275 HD
HETATM   19  H           1     -24.111  -4.929  -7.230  0.00  0.00     0.275 HD
HETATM   20  H           1     -23.347  -3.457  -6.832  0.00  0.00     0.275 HD
ENDBRANCH  16  17
BRANCH  16  21
HETATM   21  C           1     -21.220  -3.863  -8.588  0.00  0.00     0.053 C 
BRANCH  21  22
HETATM   22  C           1     -21.185  -4.282 -10.052  0.00  0.00     0.115 C 
BRANCH  22  23
HETATM   23  C           1     -22.086  -3.376 -10.856  0.00  0.00     0.172 C 
HETATM   24  O           1     -23.318  -3.375 -10.649  0.00  0.00    -0.648 OA
HETATM   25  O           1     -21.598  -2.625 -11.728  0.00  0.00    -0.648 OA
ENDBRANCH  22  23
ENDBRANCH  21  22
ENDBRANCH  16  21
ENDBRANCH   4  16
TORSDOF 11
ENDMDL
MODEL 9
REMARK VINA RESULT:      -5.6      2.904      5.873
REMARK  11 active torsions:
REMARK  status: ('A' for Active; 'I' for Inactive)
REMARK    1  A    between atoms: N_4  and  C_9 
REMARK    2  A    between atoms: N_7  and  C_16 
REMARK       I    between atoms: N_7  and  C_8 
REMARK    3  A    between atoms: C_8  and  C_9 
REMARK    4  A    between atoms: C_9  and  C_10 
REMARK    5  A    between atoms: C_10  and  C_11 
REMARK    6  A    between atoms: C_11  and  C_12 
REMARK    7  A    between atoms: C_14  and  C_15 
REMARK    8  A    between atoms: C_14  and  C_16 
REMARK    9  A    between atoms: C_15  and  C_24 
REMARK   10  A    between atoms: C_16  and  C_23 
REMARK   11  A    between atoms: C_24  and  N_25 
ROOT
HETATM    1  H           1     -28.121  -7.075 -20.273  0.00  0.00     0.163 HD
HETATM    2  O           1     -25.628  -6.426 -18.484  0.00  0.00    -0.271 OA
HETATM    3  N           1     -27.608  -6.810 -19.442  0.00  0.00    -0.345 N 
HETATM    4  C           1     -26.241  -6.741 -19.476  0.00  0.00     0.249 C 
ENDROOT
BRANCH   3   5
HETATM    5  C           1     -28.320  -6.505 -18.216  0.00  0.00     0.185 C 
BRANCH   5   6
HETATM    6  C           1     -28.933  -5.115 -18.319  0.00  0.00     0.038 C 
BRANCH   6   7
HETATM    7  C           1     -29.526  -4.721 -16.972  0.00  0.00     0.030 C 
BRANCH   7   8
HETATM    8  C           1     -30.989  -4.340 -17.153  0.00  0.00     0.230 C 
BRANCH   8   9
HETATM    9  N           1     -31.079  -2.973 -17.763  0.00  0.00    -0.079 N 
HETATM   10  H           1     -30.185  -2.459 -17.599  0.00  0.00     0.274 HD
HETATM   11  H           1     -31.870  -2.448 -17.326  0.00  0.00     0.274 HD
HETATM   12  H           1     -31.246  -3.060 -18.791  0.00  0.00     0.274 HD
ENDBRANCH   8   9
ENDBRANCH   7   8
ENDBRANCH   6   7
ENDBRANCH   5   6
BRANCH   5  13
HETATM   13  C           1     -29.413  -7.523 -18.004  0.00  0.00     0.196 C 
HETATM   14  O           1     -30.330  -7.641 -18.846  0.00  0.00    -0.646 OA
HETATM   15  O           1     -29.402  -8.250 -16.986  0.00  0.00    -0.646 OA
ENDBRANCH   5  13
ENDBRANCH   3   5
BRANCH   4  16
HETATM   16  C           1     -25.501  -7.058 -20.752  0.00  0.00     0.275 C 
BRANCH  16  17
HETATM   17  N           1     -25.156  -5.781 -21.460  0.00  0.00    -0.066 N 
HETATM   18  H           1     -25.926  -5.531 -22.120  0.00  0.00     0.275 HD
HETATM   19  H           1     -25.035  -5.016 -20.759  0.00  0.00     0.275 HD
HETATM   20  H           1     -24.267  -5.908 -21.994  0.00  0.00     0.275 HD
ENDBRANCH  16  17
BRANCH  16  21
HETATM   21  C           1     -24.222  -7.817 -20.422  0.00  0.00     0.053 C 
BRANCH  21  22
HETATM   22  C           1     -23.571  -8.301 -21.711  0.00  0.00     0.115 C 
BRANCH  22  23
HETATM   23  C           1     -22.127  -8.653 -21.445  0.00  0.00     0.172 C 
HETATM   24  O           1     -21.501  -9.372 -22.252  0.00  0.00    -0.648 OA
HETATM   25  O           1     -21.559  -8.223 -20.418  0.00  0.00    -0.648 OA
ENDBRANCH  22  23
ENDBRANCH  21  22
ENDBRANCH  16  21
ENDBRANCH   4  16
TORSDOF 11
ENDMDL
