MODEL 1
REMARK VINA RESULT:      -7.2      0.000      0.000
REMARK  11 active torsions:
REMARK  status: ('A' for Active; 'I' for Inactive)
REMARK    1  A    between atoms: C_1  and  C_16 
REMARK    2  A    between atoms: C_1  and  C_2 
REMARK    3  A    between atoms: C_1  and  N_21 
REMARK    4  A    between atoms: C_2  and  C_25 
REMARK    5  A    between atoms: C_6  and  C_9 
REMARK    6  A    between atoms: C_6  and  C_7 
REMARK    7  A    between atoms: C_6  and  N_17 
REMARK    8  A    between atoms: C_7  and  O_24 
REMARK    9  A    between atoms: C_11  and  C_25 
REMARK       I    between atoms: C_11  and  N_12 
REMARK   10  A    between atoms: P_14  and  O_24 
REMARK   11  A    between atoms: P_14  and  O_19 
REMARK       I    between atoms: C_16  and  N_17 
ROOT
HETATM    1  H           1     -35.392  -2.266 -13.531  0.00  0.00     0.163 HD
HETATM    2  O           1     -33.585  -2.234 -10.967  0.00  0.00    -0.271 OA
HETATM    3  C           1     -34.162  -2.695 -11.924  0.00  0.00     0.249 C 
HETATM    4  N           1     -34.909  -1.881 -12.730  0.00  0.00    -0.343 N 
ENDROOT
BRANCH   3   5
HETATM    5  C           1     -34.058  -4.170 -12.228  0.00  0.00     0.275 C 
BRANCH   5   6
HETATM    6  C           1     -34.454  -4.973 -10.996  0.00  0.00     0.052 C 
BRANCH   6   7
HETATM    7  C           1     -33.603  -6.232 -10.915  0.00  0.00     0.105 C 
BRANCH   7   8
HETATM    8  C           1     -34.377  -7.319 -10.209  0.00  0.00     0.215 C 
HETATM    9  N           1     -33.956  -8.619 -10.284  0.00  0.00    -0.370 N 
HETATM   10  H           1     -34.476  -9.347  -9.810  0.00  0.00     0.159 HD
HETATM   11  H           1     -33.125  -8.852 -10.813  0.00  0.00     0.159 HD
HETATM   12  O           1     -35.369  -7.040  -9.577  0.00  0.00    -0.274 OA
ENDBRANCH   7   8
ENDBRANCH   6   7
ENDBRANCH   5   6
BRANCH   5  13
HETATM   13  N           1     -32.645  -4.503 -12.608  0.00  0.00    -0.066 N 
HETATM   14  H           1     -32.367  -3.942 -13.444  0.00  0.00     0.275 HD
HETATM   15  H           1     -32.009  -4.278 -11.810  0.00  0.00     0.275 HD
HETATM   16  H           1     -32.576  -5.521 -12.831  0.00  0.00     0.275 HD
ENDBRANCH   5  13
ENDBRANCH   3   5
BRANCH   4  17
HETATM   17  C           1     -35.009  -0.464 -12.437  0.00  0.00     0.210 C 
BRANCH  17  18
HETATM   18  C           1     -36.274  -0.200 -11.658  0.00  0.00     0.198 C 
HETATM   19  O           1     -37.367  -0.645 -12.071  0.00  0.00    -0.646 OA
HETATM   20  O           1     -36.230   0.464 -10.600  0.00  0.00    -0.646 OA
ENDBRANCH  17  18
BRANCH  17  21
HETATM   21  C           1     -35.042   0.322 -13.741  0.00  0.00     0.217 C 
BRANCH  21  22
HETATM   22  O           1     -35.204  -0.563 -14.817  0.00  0.00    -0.287 OA
BRANCH  22  23
HETATM   23  P           1     -36.412  -0.226 -15.835  0.00  0.00     0.406 P 
HETATM   24  O           1     -36.538   1.241 -15.982  0.00  0.00    -0.624 OA
HETATM   25  O           1     -37.676  -0.778 -15.301  0.00  0.00    -0.624 OA
BRANCH  23  26
HETATM   26  O           1     -36.100  -0.886 -17.276  0.00  0.00    -0.300 OA
HETATM   27  H           1     -35.678  -1.706 -17.081  0.00  0.00     0.223 HD
ENDBRANCH  23  26
ENDBRANCH  22  23
ENDBRANCH  21  22
ENDBRANCH  17  21
ENDBRANCH   4  17
TORSDOF 11
ENDMDL
MODEL 2
REMARK VINA RESULT:      -6.6      3.939      5.684
REMARK  11 active torsions:
REMARK  status: ('A' for Active; 'I' for Inactive)
REMARK    1  A    between atoms: C_1  and  C_16 
REMARK    2  A    between atoms: C_1  and  C_2 
REMARK    3  A    between atoms: C_1  and  N_21 
REMARK    4  A    between atoms: C_2  and  C_25 
REMARK    5  A    between atoms: C_6  and  C_9 
REMARK    6  A    between atoms: C_6  and  C_7 
REMARK    7  A    between atoms: C_6  and  N_17 
REMARK    8  A    between atoms: C_7  and  O_24 
REMARK    9  A    between atoms: C_11  and  C_25 
REMARK       I    between atoms: C_11  and  N_12 
REMARK   10  A    between atoms: P_14  and  O_24 
REMARK   11  A    between atoms: P_14  and  O_19 
REMARK       I    between atoms: C_16  and  N_17 
ROOT
HETATM    1  H           1     -35.473   0.633 -11.858  0.00  0.00     0.163 HD
HETATM    2  O           1     -37.882  -0.821 -13.244  0.00  0.00    -0.271 OA
HETATM    3  C           1     -36.871  -0.165 -13.157  0.00  0.00     0.249 C 
HETATM    4  N           1     -36.320   0.084 -11.930  0.00  0.00    -0.343 N 
ENDROOT
BRANCH   3   5
HETATM    5  C           1     -36.215   0.378 -14.404  0.00  0.00     0.275 C 
BRANCH   5   6
HETATM    6  C           1     -36.596  -0.489 -15.597  0.00  0.00     0.052 C 
BRANCH   6   7
HETATM    7  C           1     -35.400  -0.626 -16.528  0.00  0.00     0.105 C 
BRANCH   7   8
HETATM    8  C           1     -34.826  -2.017 -16.411  0.00  0.00     0.215 C 
HETATM    9  N           1     -34.169  -2.580 -17.472  0.00  0.00    -0.370 N 
HETATM   10  H           1     -33.785  -3.513 -17.392  0.00  0.00     0.159 HD
HETATM   11  H           1     -34.069  -2.063 -18.337  0.00  0.00     0.159 HD
HETATM   12  O           1     -34.945  -2.633 -15.378  0.00  0.00    -0.274 OA
ENDBRANCH   7   8
ENDBRANCH   6   7
ENDBRANCH   5   6
BRANCH   5  13
HETATM   13  N           1     -34.725   0.363 -14.231  0.00  0.00    -0.066 N 
HETATM   14  H           1     -34.469  -0.304 -13.469  0.00  0.00     0.275 HD
HETATM   15  H           1     -34.275   0.060 -15.125  0.00  0.00     0.275 HD
HETATM   16  H           1     -34.394   1.322 -13.982  0.00  0.00     0.275 HD
ENDBRANCH   5  13
ENDBRANCH   3   5
BRANCH   4  17
HETATM   17  C           1     -36.950  -0.437 -10.732  0.00  0.00     0.210 C 
BRANCH  17  18
HETATM   18  C           1     -37.103   0.672  -9.721  0.00  0.00     0.198 C 
HETATM   19  O           1     -38.075   1.455  -9.795  0.00  0.00    -0.646 OA
HETATM   20  O           1     -36.258   0.809  -8.811  0.00  0.00    -0.646 OA
ENDBRANCH  17  18
BRANCH  17  21
HETATM   21  C           1     -36.085  -1.545 -10.146  0.00  0.00     0.217 C 
BRANCH  21  22
HETATM   22  O           1     -36.202  -2.697 -10.936  0.00  0.00    -0.287 OA
BRANCH  22  23
HETATM   23  P           1     -34.821  -3.295 -11.524  0.00  0.00     0.406 P 
HETATM   24  O           1     -35.049  -4.671 -12.016  0.00  0.00    -0.624 OA
HETATM   25  O           1     -33.797  -3.316 -10.456  0.00  0.00    -0.624 OA
BRANCH  23  26
HETATM   26  O           1     -34.310  -2.365 -12.743  0.00  0.00    -0.300 OA
HETATM   27  H           1     -33.587  -2.836 -13.121  0.00  0.00     0.223 HD
ENDBRANCH  23  26
ENDBRANCH  22  23
ENDBRANCH  21  22
ENDBRANCH  17  21
ENDBRANCH   4  17
TORSDOF 11
ENDMDL
MODEL 3
REMARK VINA RESULT:      -6.6      2.701      4.654
REMARK  11 active torsions:
REMARK  status: ('A' for Active; 'I' for Inactive)
REMARK    1  A    between atoms: C_1  and  C_16 
REMARK    2  A    between atoms: C_1  and  C_2 
REMARK    3  A    between atoms: C_1  and  N_21 
REMARK    4  A    between atoms: C_2  and  C_25 
REMARK    5  A    between atoms: C_6  and  C_9 
REMARK    6  A    between atoms: C_6  and  C_7 
REMARK    7  A    between atoms: C_6  and  N_17 
REMARK    8  A    between atoms: C_7  and  O_24 
REMARK    9  A    between atoms: C_11  and  C_25 
REMARK       I    between atoms: C_11  and  N_12 
REMARK   10  A    between atoms: P_14  and  O_24 
REMARK   11  A    between atoms: P_14  and  O_19 
REMARK       I    between atoms: C_16  and  N_17 
ROOT
HETATM    1  H           1     -32.980  -3.306 -14.038  0.00  0.00     0.163 HD
HETATM    2  O           1     -35.186  -5.520 -13.772  0.00  0.00    -0.271 OA
HETATM    3  C           1     -34.340  -4.735 -13.414  0.00  0.00     0.249 C 
HETATM    4  N           1     -33.688  -3.964 -14.337  0.00  0.00    -0.343 N 
ENDROOT
BRANCH   3   5
HETATM    5  C           1     -34.003  -4.605 -11.949  0.00  0.00     0.275 C 
BRANCH   5   6
HETATM    6  C           1     -33.179  -3.343 -11.727  0.00  0.00     0.052 C 
BRANCH   6   7
HETATM    7  C           1     -33.906  -2.425 -10.754  0.00  0.00     0.105 C 
BRANCH   7   8
HETATM    8  C           1     -34.971  -1.651 -11.493  0.00  0.00     0.215 C 
HETATM    9  N           1     -34.638  -0.517 -12.184  0.00  0.00    -0.370 N 
HETATM   10  H           1     -35.352   0.002 -12.679  0.00  0.00     0.159 HD
HETATM   11  H           1     -33.677  -0.197 -12.200  0.00  0.00     0.159 HD
HETATM   12  O           1     -36.116  -2.033 -11.475  0.00  0.00    -0.274 OA
ENDBRANCH   7   8
ENDBRANCH   6   7
ENDBRANCH   5   6
BRANCH   5  13
HETATM   13  N           1     -33.212  -5.802 -11.510  0.00  0.00    -0.066 N 
HETATM   14  H           1     -32.199  -5.551 -11.460  0.00  0.00     0.275 HD
HETATM   15  H           1     -33.542  -6.109 -10.567  0.00  0.00     0.275 HD
HETATM   16  H           1     -33.347  -6.578 -12.195  0.00  0.00     0.275 HD
ENDBRANCH   5  13
ENDBRANCH   3   5
BRANCH   4  17
HETATM   17  C           1     -34.012  -4.089 -15.746  0.00  0.00     0.210 C 
BRANCH  17  18
HETATM   18  C           1     -32.740  -4.066 -16.557  0.00  0.00     0.198 C 
HETATM   19  O           1     -32.589  -3.213 -17.458  0.00  0.00    -0.646 OA
HETATM   20  O           1     -31.838  -4.901 -16.329  0.00  0.00    -0.646 OA
ENDBRANCH  17  18
BRANCH  17  21
HETATM   21  C           1     -34.904  -2.929 -16.166  0.00  0.00     0.217 C 
BRANCH  21  22
HETATM   22  O           1     -35.041  -2.033 -15.096  0.00  0.00    -0.287 OA
BRANCH  22  23
HETATM   23  P           1     -35.712  -0.607 -15.449  0.00  0.00     0.406 P 
HETATM   24  O           1     -34.741   0.476 -15.177  0.00  0.00    -0.624 OA
HETATM   25  O           1     -36.918  -0.409 -14.615  0.00  0.00    -0.624 OA
BRANCH  23  26
HETATM   26  O           1     -36.125  -0.579 -17.010  0.00  0.00    -0.300 OA
HETATM   27  H           1     -37.046  -0.383 -17.015  0.00  0.00     0.223 HD
ENDBRANCH  23  26
ENDBRANCH  22  23
ENDBRANCH  21  22
ENDBRANCH  17  21
ENDBRANCH   4  17
TORSDOF 11
ENDMDL
MODEL 4
REMARK VINA RESULT:      -6.5      2.019      3.748
REMARK  11 active torsions:
REMARK  status: ('A' for Active; 'I' for Inactive)
REMARK    1  A    between atoms: C_1  and  C_16 
REMARK    2  A    between atoms: C_1  and  C_2 
REMARK    3  A    between atoms: C_1  and  N_21 
REMARK    4  A    between atoms: C_2  and  C_25 
REMARK    5  A    between atoms: C_6  and  C_9 
REMARK    6  A    between atoms: C_6  and  C_7 
REMARK    7  A    between atoms: C_6  and  N_17 
REMARK    8  A    between atoms: C_7  and  O_24 
REMARK    9  A    between atoms: C_11  and  C_25 
REMARK       I    between atoms: C_11  and  N_12 
REMARK   10  A    between atoms: P_14  and  O_24 
REMARK   11  A    between atoms: P_14  and  O_19 
REMARK       I    between atoms: C_16  and  N_17 
ROOT
HETATM    1  H           1     -34.429  -0.261 -12.412  0.00  0.00     0.163 HD
HETATM    2  O           1     -35.212  -3.258 -12.909  0.00  0.00    -0.271 OA
HETATM    3  C           1     -34.588  -2.323 -12.464  0.00  0.00     0.249 C 
HETATM    4  N           1     -34.952  -1.044 -12.784  0.00  0.00    -0.343 N 
ENDROOT
BRANCH   3   5
HETATM    5  C           1     -33.408  -2.568 -11.556  0.00  0.00     0.275 C 
BRANCH   5   6
HETATM    6  C           1     -33.132  -4.063 -11.473  0.00  0.00     0.052 C 
BRANCH   6   7
HETATM    7  C           1     -33.963  -4.673 -10.354  0.00  0.00     0.105 C 
BRANCH   7   8
HETATM    8  C           1     -34.495  -6.015 -10.794  0.00  0.00     0.215 C 
HETATM    9  N           1     -34.695  -6.270 -12.125  0.00  0.00    -0.370 N 
HETATM   10  H           1     -35.052  -7.170 -12.420  0.00  0.00     0.159 HD
HETATM   11  H           1     -34.488  -5.557 -12.813  0.00  0.00     0.159 HD
HETATM   12  O           1     -34.742  -6.865  -9.973  0.00  0.00    -0.274 OA
ENDBRANCH   7   8
ENDBRANCH   6   7
ENDBRANCH   5   6
BRANCH   5  13
HETATM   13  N           1     -33.715  -2.041 -10.185  0.00  0.00    -0.066 N 
HETATM   14  H           1     -33.371  -2.716  -9.466  0.00  0.00     0.275 HD
HETATM   15  H           1     -33.240  -1.119 -10.053  0.00  0.00     0.275 HD
HETATM   16  H           1     -34.748  -1.918 -10.083  0.00  0.00     0.275 HD
ENDBRANCH   5  13
ENDBRANCH   3   5
BRANCH   4  17
HETATM   17  C           1     -36.086  -0.808 -13.658  0.00  0.00     0.210 C 
BRANCH  17  18
HETATM   18  C           1     -35.624  -0.078 -14.895  0.00  0.00     0.198 C 
HETATM   19  O           1     -34.765  -0.595 -15.641  0.00  0.00    -0.646 OA
HETATM   20  O           1     -36.101   1.043 -15.173  0.00  0.00    -0.646 OA
ENDBRANCH  17  18
BRANCH  17  21
HETATM   21  C           1     -37.122   0.034 -12.926  0.00  0.00     0.217 C 
BRANCH  21  22
HETATM   22  O           1     -37.582  -0.663 -11.800  0.00  0.00    -0.287 OA
BRANCH  22  23
HETATM   23  P           1     -37.212  -0.016 -10.367  0.00  0.00     0.406 P 
HETATM   24  O           1     -38.065   1.168 -10.126  0.00  0.00    -0.624 OA
HETATM   25  O           1     -35.790   0.392 -10.362  0.00  0.00    -0.624 OA
BRANCH  23  26
HETATM   26  O           1     -37.465  -1.108  -9.203  0.00  0.00    -0.300 OA
HETATM   27  H           1     -37.564  -0.603  -8.414  0.00  0.00     0.223 HD
ENDBRANCH  23  26
ENDBRANCH  22  23
ENDBRANCH  21  22
ENDBRANCH  17  21
ENDBRANCH   4  17
TORSDOF 11
ENDMDL
MODEL 5
REMARK VINA RESULT:      -6.1     14.534     17.266
REMARK  11 active torsions:
REMARK  status: ('A' for Active; 'I' for Inactive)
REMARK    1  A    between atoms: C_1  and  C_16 
REMARK    2  A    between atoms: C_1  and  C_2 
REMARK    3  A    between atoms: C_1  and  N_21 
REMARK    4  A    between atoms: C_2  and  C_25 
REMARK    5  A    between atoms: C_6  and  C_9 
REMARK    6  A    between atoms: C_6  and  C_7 
REMARK    7  A    between atoms: C_6  and  N_17 
REMARK    8  A    between atoms: C_7  and  O_24 
REMARK    9  A    between atoms: C_11  and  C_25 
REMARK       I    between atoms: C_11  and  N_12 
REMARK   10  A    between atoms: P_14  and  O_24 
REMARK   11  A    between atoms: P_14  and  O_19 
REMARK       I    between atoms: C_16  and  N_17 
ROOT
HETATM    1  H           1     -20.015  -6.696  -5.232  0.00  0.00     0.163 HD
HETATM    2  O           1     -22.733  -5.326  -5.991  0.00  0.00    -0.271 OA
HETATM    3  C           1     -21.546  -5.549  -6.021  0.00  0.00     0.249 C 
HETATM    4  N           1     -21.010  -6.509  -5.207  0.00  0.00    -0.343 N 
ENDROOT
BRANCH   3   5
HETATM    5  C           1     -20.655  -4.768  -6.956  0.00  0.00     0.275 C 
BRANCH   5   6
HETATM    6  C           1     -21.465  -3.667  -7.629  0.00  0.00     0.052 C 
BRANCH   6   7
HETATM    7  C           1     -21.773  -4.068  -9.065  0.00  0.00     0.105 C 
BRANCH   7   8
HETATM    8  C           1     -23.210  -3.736  -9.384  0.00  0.00     0.215 C 
HETATM    9  N           1     -24.182  -3.919  -8.438  0.00  0.00    -0.370 N 
HETATM   10  H           1     -25.146  -3.695  -8.653  0.00  0.00     0.159 HD
HETATM   11  H           1     -23.937  -4.278  -7.524  0.00  0.00     0.159 HD
HETATM   12  O           1     -23.502  -3.306 -10.475  0.00  0.00    -0.274 OA
ENDBRANCH   7   8
ENDBRANCH   6   7
ENDBRANCH   5   6
BRANCH   5  13
HETATM   13  N           1     -20.099  -5.689  -8.002  0.00  0.00    -0.066 N 
HETATM   14  H           1     -20.083  -5.200  -8.925  0.00  0.00     0.275 HD
HETATM   15  H           1     -19.127  -5.968  -7.738  0.00  0.00     0.275 HD
HETATM   16  H           1     -20.699  -6.542  -8.069  0.00  0.00     0.275 HD
ENDBRANCH   5  13
ENDBRANCH   3   5
BRANCH   4  17
HETATM   17  C           1     -21.866  -7.259  -4.308  0.00  0.00     0.210 C 
BRANCH  17  18
HETATM   18  C           1     -21.621  -6.808  -2.889  0.00  0.00     0.198 C 
HETATM   19  O           1     -22.297  -5.875  -2.405  0.00  0.00    -0.646 OA
HETATM   20  O           1     -20.744  -7.368  -2.198  0.00  0.00    -0.646 OA
ENDBRANCH  17  18
BRANCH  17  21
HETATM   21  C           1     -21.552  -8.744  -4.431  0.00  0.00     0.217 C 
BRANCH  21  22
HETATM   22  O           1     -20.641  -8.945  -5.478  0.00  0.00    -0.287 OA
BRANCH  22  23
HETATM   23  P           1     -19.234  -9.627  -5.071  0.00  0.00     0.406 P 
HETATM   24  O           1     -18.228  -9.345  -6.119  0.00  0.00    -0.624 OA
HETATM   25  O           1     -19.414 -11.090  -4.941  0.00  0.00    -0.624 OA
BRANCH  23  26
HETATM   26  O           1     -18.729  -9.018  -3.663  0.00  0.00    -0.300 OA
HETATM   27  H           1     -18.231  -8.252  -3.893  0.00  0.00     0.223 HD
ENDBRANCH  23  26
ENDBRANCH  22  23
ENDBRANCH  21  22
ENDBRANCH  17  21
ENDBRANCH   4  17
TORSDOF 11
ENDMDL
MODEL 6
REMARK VINA RESULT:      -6.1      2.750      3.867
REMARK  11 active torsions:
REMARK  status: ('A' for Active; 'I' for Inactive)
REMARK    1  A    between atoms: C_1  and  C_16 
REMARK    2  A    between atoms: C_1  and  C_2 
REMARK    3  A    between atoms: C_1  and  N_21 
REMARK    4  A    between atoms: C_2  and  C_25 
REMARK    5  A    between atoms: C_6  and  C_9 
REMARK    6  A    between atoms: C_6  and  C_7 
REMARK    7  A    between atoms: C_6  and  N_17 
REMARK    8  A    between atoms: C_7  and  O_24 
REMARK    9  A    between atoms: C_11  and  C_25 
REMARK       I    between atoms: C_11  and  N_12 
REMARK   10  A    between atoms: P_14  and  O_24 
REMARK   11  A    between atoms: P_14  and  O_19 
REMARK       I    between atoms: C_16  and  N_17 
ROOT
HETATM    1  H           1     -33.135  -3.131 -14.356  0.00  0.00     0.163 HD
HETATM    2  O           1     -35.202  -5.487 -14.224  0.00  0.00    -0.271 OA
HETATM    3  C           1     -34.420  -4.661 -13.817  0.00  0.00     0.249 C 
HETATM    4  N           1     -33.791  -3.823 -14.697  0.00  0.00    -0.343 N 
ENDROOT
BRANCH   3   5
HETATM    5  C           1     -34.137  -4.554 -12.338  0.00  0.00     0.275 C 
BRANCH   5   6
HETATM    6  C           1     -34.793  -5.720 -11.610  0.00  0.00     0.052 C 
BRANCH   6   7
HETATM    7  C           1     -33.777  -6.381 -10.688  0.00  0.00     0.105 C 
BRANCH   7   8
HETATM    8  C           1     -34.307  -7.717 -10.230  0.00  0.00     0.215 C 
HETATM    9  N           1     -33.527  -8.837 -10.338  0.00  0.00    -0.370 N 
HETATM   10  H           1     -33.883  -9.733 -10.030  0.00  0.00     0.159 HD
HETATM   11  H           1     -32.594  -8.769 -10.726  0.00  0.00     0.159 HD
HETATM   12  O           1     -35.419  -7.798  -9.766  0.00  0.00    -0.274 OA
ENDBRANCH   7   8
ENDBRANCH   6   7
ENDBRANCH   5   6
BRANCH   5  13
HETATM   13  N           1     -34.692  -3.263 -11.816  0.00  0.00    -0.066 N 
HETATM   14  H           1     -34.347  -3.103 -10.843  0.00  0.00     0.275 HD
HETATM   15  H           1     -34.380  -2.476 -12.430  0.00  0.00     0.275 HD
HETATM   16  H           1     -35.736  -3.308 -11.813  0.00  0.00     0.275 HD
ENDBRANCH   5  13
ENDBRANCH   3   5
BRANCH   4  17
HETATM   17  C           1     -34.062  -3.926 -16.118  0.00  0.00     0.210 C 
BRANCH  17  18
HETATM   18  C           1     -32.760  -4.041 -16.871  0.00  0.00     0.198 C 
HETATM   19  O           1     -32.405  -3.128 -17.647  0.00  0.00    -0.646 OA
HETATM   20  O           1     -32.038  -5.049 -16.720  0.00  0.00    -0.646 OA
ENDBRANCH  17  18
BRANCH  17  21
HETATM   21  C           1     -34.811  -2.683 -16.582  0.00  0.00     0.217 C 
BRANCH  21  22
HETATM   22  O           1     -35.120  -1.882 -15.473  0.00  0.00    -0.287 OA
BRANCH  22  23
HETATM   23  P           1     -36.099  -0.629 -15.756  0.00  0.00     0.406 P 
HETATM   24  O           1     -35.364   0.633 -15.525  0.00  0.00    -0.624 OA
HETATM   25  O           1     -37.263  -0.696 -14.845  0.00  0.00    -0.624 OA
BRANCH  23  26
HETATM   26  O           1     -36.609  -0.682 -17.288  0.00  0.00    -0.300 OA
HETATM   27  H           1     -36.142  -1.402 -17.676  0.00  0.00     0.223 HD
ENDBRANCH  23  26
ENDBRANCH  22  23
ENDBRANCH  21  22
ENDBRANCH  17  21
ENDBRANCH   4  17
TORSDOF 11
ENDMDL
MODEL 7
REMARK VINA RESULT:      -5.7     14.297     17.325
REMARK  11 active torsions:
REMARK  status: ('A' for Active; 'I' for Inactive)
REMARK    1  A    between atoms: C_1  and  C_16 
REMARK    2  A    between atoms: C_1  and  C_2 
REMARK    3  A    between atoms: C_1  and  N_21 
REMARK    4  A    between atoms: C_2  and  C_25 
REMARK    5  A    between atoms: C_6  and  C_9 
REMARK    6  A    between atoms: C_6  and  C_7 
REMARK    7  A    between atoms: C_6  and  N_17 
REMARK    8  A    between atoms: C_7  and  O_24 
REMARK    9  A    between atoms: C_11  and  C_25 
REMARK       I    between atoms: C_11  and  N_12 
REMARK   10  A    between atoms: P_14  and  O_24 
REMARK   11  A    between atoms: P_14  and  O_19 
REMARK       I    between atoms: C_16  and  N_17 
ROOT
HETATM    1  H           1     -19.900  -6.728  -5.050  0.00  0.00     0.163 HD
HETATM    2  O           1     -22.752  -5.629  -5.758  0.00  0.00    -0.271 OA
HETATM    3  C           1     -21.549  -5.738  -5.812  0.00  0.00     0.249 C 
HETATM    4  N           1     -20.907  -6.636  -5.004  0.00  0.00    -0.343 N 
ENDROOT
BRANCH   3   5
HETATM    5  C           1     -20.757  -4.885  -6.772  0.00  0.00     0.275 C 
BRANCH   5   6
HETATM    6  C           1     -21.679  -3.862  -7.424  0.00  0.00     0.052 C 
BRANCH   6   7
HETATM    7  C           1     -21.750  -4.122  -8.922  0.00  0.00     0.105 C 
BRANCH   7   8
HETATM    8  C           1     -23.107  -3.716  -9.440  0.00  0.00     0.215 C 
HETATM    9  N           1     -24.190  -3.717  -8.602  0.00  0.00    -0.370 N 
HETATM   10  H           1     -25.100  -3.445  -8.951  0.00  0.00     0.159 HD
HETATM   11  H           1     -24.079  -3.991  -7.634  0.00  0.00     0.159 HD
HETATM   12  O           1     -23.239  -3.389 -10.596  0.00  0.00    -0.274 OA
ENDBRANCH   7   8
ENDBRANCH   6   7
ENDBRANCH   5   6
BRANCH   5  13
HETATM   13  N           1     -20.151  -5.756  -7.832  0.00  0.00    -0.066 N 
HETATM   14  H           1     -20.856  -6.457  -8.153  0.00  0.00     0.275 HD
HETATM   15  H           1     -19.855  -5.165  -8.642  0.00  0.00     0.275 HD
HETATM   16  H           1     -19.318  -6.252  -7.442  0.00  0.00     0.275 HD
ENDBRANCH   5  13
ENDBRANCH   3   5
BRANCH   4  17
HETATM   17  C           1     -21.668  -7.456  -4.081  0.00  0.00     0.210 C 
BRANCH  17  18
HETATM   18  C           1     -21.589  -6.861  -2.697  0.00  0.00     0.198 C 
HETATM   19  O           1     -22.362  -5.935  -2.370  0.00  0.00    -0.646 OA
HETATM   20  O           1     -20.751  -7.294  -1.878  0.00  0.00    -0.646 OA
ENDBRANCH  17  18
BRANCH  17  21
HETATM   21  C           1     -21.093  -8.866  -4.063  0.00  0.00     0.217 C 
BRANCH  21  22
HETATM   22  O           1     -22.130  -9.793  -3.889  0.00  0.00    -0.287 OA
BRANCH  22  23
HETATM   23  P           1     -21.973 -10.805  -2.640  0.00  0.00     0.406 P 
HETATM   24  O           1     -21.523 -12.126  -3.129  0.00  0.00    -0.624 OA
HETATM   25  O           1     -23.278 -10.950  -1.956  0.00  0.00    -0.624 OA
BRANCH  23  26
HETATM   26  O           1     -20.883 -10.214  -1.604  0.00  0.00    -0.300 OA
HETATM   27  H           1     -20.190  -9.878  -2.146  0.00  0.00     0.223 HD
ENDBRANCH  23  26
ENDBRANCH  22  23
ENDBRANCH  21  22
ENDBRANCH  17  21
ENDBRANCH   4  17
TORSDOF 11
ENDMDL
MODEL 8
REMARK VINA RESULT:      -5.6      3.616      5.995
REMARK  11 active torsions:
REMARK  status: ('A' for Active; 'I' for Inactive)
REMARK    1  A    between atoms: C_1  and  C_16 
REMARK    2  A    between atoms: C_1  and  C_2 
REMARK    3  A    between atoms: C_1  and  N_21 
REMARK    4  A    between atoms: C_2  and  C_25 
REMARK    5  A    between atoms: C_6  and  C_9 
REMARK    6  A    between atoms: C_6  and  C_7 
REMARK    7  A    between atoms: C_6  and  N_17 
REMARK    8  A    between atoms: C_7  and  O_24 
REMARK    9  A    between atoms: C_11  and  C_25 
REMARK       I    between atoms: C_11  and  N_12 
REMARK   10  A    between atoms: P_14  and  O_24 
REMARK   11  A    between atoms: P_14  and  O_19 
REMARK       I    between atoms: C_16  and  N_17 
ROOT
HETATM    1  H           1     -37.447  -1.292 -13.008  0.00  0.00     0.163 HD
HETATM    2  O           1     -35.503   0.595 -11.427  0.00  0.00    -0.271 OA
HETATM    3  C           1     -36.511  -0.026 -11.665  0.00  0.00     0.249 C 
HETATM    4  N           1     -36.602  -0.771 -12.809  0.00  0.00    -0.343 N 
ENDROOT
BRANCH   3   5
HETATM    5  C           1     -37.671   0.020 -10.700  0.00  0.00     0.275 C 
BRANCH   5   6
HETATM    6  C           1     -37.486   1.188  -9.739  0.00  0.00     0.052 C 
BRANCH   6   7
HETATM    7  C           1     -37.978   0.789  -8.355  0.00  0.00     0.105 C 
BRANCH   7   8
HETATM    8  C           1     -36.799   0.651  -7.422  0.00  0.00     0.215 C 
HETATM    9  N           1     -36.967   0.828  -6.075  0.00  0.00    -0.370 N 
HETATM   10  H           1     -36.176   0.735  -5.450  0.00  0.00     0.159 HD
HETATM   11  H           1     -37.882   1.052  -5.704  0.00  0.00     0.159 HD
HETATM   12  O           1     -35.708   0.383  -7.865  0.00  0.00    -0.274 OA
ENDBRANCH   7   8
ENDBRANCH   6   7
ENDBRANCH   5   6
BRANCH   5  13
HETATM   13  N           1     -37.726  -1.262  -9.923  0.00  0.00    -0.066 N 
HETATM   14  H           1     -37.825  -2.066 -10.583  0.00  0.00     0.275 HD
HETATM   15  H           1     -36.846  -1.371  -9.371  0.00  0.00     0.275 HD
HETATM   16  H           1     -38.544  -1.240  -9.273  0.00  0.00     0.275 HD
ENDBRANCH   5  13
ENDBRANCH   3   5
BRANCH   4  17
HETATM   17  C           1     -35.488  -0.816 -13.736  0.00  0.00     0.210 C 
BRANCH  17  18
HETATM   18  C           1     -35.966  -0.436 -15.115  0.00  0.00     0.198 C 
HETATM   19  O           1     -35.958  -1.282 -16.035  0.00  0.00    -0.646 OA
HETATM   20  O           1     -36.372   0.725 -15.338  0.00  0.00    -0.646 OA
ENDBRANCH  17  18
BRANCH  17  21
HETATM   21  C           1     -34.911  -2.225 -13.768  0.00  0.00     0.217 C 
BRANCH  21  22
HETATM   22  O           1     -34.141  -2.442 -12.617  0.00  0.00    -0.287 OA
BRANCH  22  23
HETATM   23  P           1     -34.581  -3.693 -11.695  0.00  0.00     0.406 P 
HETATM   24  O           1     -35.935  -3.451 -11.149  0.00  0.00    -0.624 OA
HETATM   25  O           1     -33.620  -3.847 -10.580  0.00  0.00    -0.624 OA
BRANCH  23  26
HETATM   26  O           1     -34.593  -5.040 -12.587  0.00  0.00    -0.300 OA
HETATM   27  H           1     -34.823  -5.728 -11.986  0.00  0.00     0.223 HD
ENDBRANCH  23  26
ENDBRANCH  22  23
ENDBRANCH  21  22
ENDBRANCH  17  21
ENDBRANCH   4  17
TORSDOF 11
ENDMDL
MODEL 9
REMARK VINA RESULT:      -5.4      4.212      6.653
REMARK  11 active torsions:
REMARK  status: ('A' for Active; 'I' for Inactive)
REMARK    1  A    between atoms: C_1  and  C_16 
REMARK    2  A    between atoms: C_1  and  C_2 
REMARK    3  A    between atoms: C_1  and  N_21 
REMARK    4  A    between atoms: C_2  and  C_25 
REMARK    5  A    between atoms: C_6  and  C_9 
REMARK    6  A    between atoms: C_6  and  C_7 
REMARK    7  A    between atoms: C_6  and  N_17 
REMARK    8  A    between atoms: C_7  and  O_24 
REMARK    9  A    between atoms: C_11  and  C_25 
REMARK       I    between atoms: C_11  and  N_12 
REMARK   10  A    between atoms: P_14  and  O_24 
REMARK   11  A    between atoms: P_14  and  O_19 
REMARK       I    between atoms: C_16  and  N_17 
ROOT
HETATM    1  H           1     -33.641  -1.267 -15.920  0.00  0.00     0.163 HD
HETATM    2  O           1     -36.677  -1.576 -16.646  0.00  0.00    -0.271 OA
HETATM    3  C           1     -35.665  -1.028 -16.280  0.00  0.00     0.249 C 
HETATM    4  N           1     -34.489  -1.726 -16.226  0.00  0.00    -0.343 N 
ENDROOT
BRANCH   3   5
HETATM    5  C           1     -35.697   0.428 -15.884  0.00  0.00     0.275 C 
BRANCH   5   6
HETATM    6  C           1     -35.134   0.585 -14.477  0.00  0.00     0.052 C 
BRANCH   6   7
HETATM    7  C           1     -36.201   0.212 -13.458  0.00  0.00     0.105 C 
BRANCH   7   8
HETATM    8  C           1     -35.541  -0.303 -12.202  0.00  0.00     0.215 C 
HETATM    9  N           1     -34.738  -1.410 -12.254  0.00  0.00    -0.370 N 
HETATM   10  H           1     -34.296  -1.755 -11.411  0.00  0.00     0.159 HD
HETATM   11  H           1     -34.587  -1.885 -13.135  0.00  0.00     0.159 HD
HETATM   12  O           1     -35.721   0.264 -11.150  0.00  0.00    -0.274 OA
ENDBRANCH   7   8
ENDBRANCH   6   7
ENDBRANCH   5   6
BRANCH   5  13
HETATM   13  N           1     -37.113   0.923 -15.912  0.00  0.00    -0.066 N 
HETATM   14  H           1     -37.319   1.336 -16.849  0.00  0.00     0.275 HD
HETATM   15  H           1     -37.763   0.124 -15.733  0.00  0.00     0.275 HD
HETATM   16  H           1     -37.243   1.650 -15.173  0.00  0.00     0.275 HD
ENDBRANCH   5  13
ENDBRANCH   3   5
BRANCH   4  17
HETATM   17  C           1     -34.459  -3.125 -16.607  0.00  0.00     0.210 C 
BRANCH  17  18
HETATM   18  C           1     -34.655  -3.984 -15.382  0.00  0.00     0.198 C 
HETATM   19  O           1     -34.385  -3.528 -14.250  0.00  0.00    -0.646 OA
HETATM   20  O           1     -35.087  -5.150 -15.499  0.00  0.00    -0.646 OA
ENDBRANCH  17  18
BRANCH  17  21
HETATM   21  C           1     -33.113  -3.447 -17.244  0.00  0.00     0.217 C 
BRANCH  21  22
HETATM   22  O           1     -32.263  -4.011 -16.282  0.00  0.00    -0.287 OA
BRANCH  22  23
HETATM   23  P           1     -31.121  -5.006 -16.843  0.00  0.00     0.406 P 
HETATM   24  O           1     -30.104  -5.231 -15.793  0.00  0.00    -0.624 OA
HETATM   25  O           1     -30.478  -4.401 -18.030  0.00  0.00    -0.624 OA
BRANCH  23  26
HETATM   26  O           1     -31.793  -6.417 -17.254  0.00  0.00    -0.300 OA
HETATM   27  H           1     -31.463  -6.602 -18.116  0.00  0.00     0.223 HD
ENDBRANCH  23  26
ENDBRANCH  22  23
ENDBRANCH  21  22
ENDBRANCH  17  21
ENDBRANCH   4  17
TORSDOF 11
ENDMDL
