MODEL 1
REMARK VINA RESULT:      -5.7      0.000      0.000
REMARK  8 active torsions:
REMARK  status: ('A' for Active; 'I' for Inactive)
REMARK       I    between atoms: C_1  and  N_6 
REMARK    1  A    between atoms: C_1  and  C_15 
REMARK    2  A    between atoms: C_5  and  C_20 
REMARK    3  A    between atoms: N_6  and  C_20 
REMARK    4  A    between atoms: C_12  and  C_17 
REMARK    5  A    between atoms: S_13  and  C_14 
REMARK    6  A    between atoms: C_14  and  C_15 
REMARK    7  A    between atoms: C_15  and  N_16 
REMARK    8  A    between atoms: C_17  and  C_20 
ROOT
HETATM    1  C           1     -34.286  -2.579 -12.264  0.00  0.00     0.249 C 
HETATM    2  O           1     -33.767  -2.166 -11.254  0.00  0.00    -0.271 OA
HETATM    3  H           1     -35.417  -2.071 -13.920  0.00  0.00     0.163 HD
HETATM    4  N           1     -34.982  -1.725 -13.075  0.00  0.00    -0.344 N 
ENDROOT
BRANCH   1   5
HETATM    5  C           1     -34.164  -4.037 -12.631  0.00  0.00     0.283 C 
BRANCH   5   6
HETATM    6  C           1     -33.227  -4.733 -11.651  0.00  0.00     0.113 C 
BRANCH   6   7
HETATM    7  S           1     -34.135  -6.028 -10.761  0.00  0.00    -0.180 SA
HETATM    8  H           1     -35.049  -6.244 -11.724  0.00  0.00     0.101 HD
ENDBRANCH   6   7
ENDBRANCH   5   6
BRANCH   5   9
HETATM    9  N           1     -33.612  -4.159 -14.021  0.00  0.00    -0.066 N 
HETATM   10  H           1     -33.709  -3.244 -14.515  0.00  0.00     0.275 HD
HETATM   11  H           1     -32.602  -4.423 -13.972  0.00  0.00     0.275 HD
HETATM   12  H           1     -34.142  -4.894 -14.542  0.00  0.00     0.275 HD
ENDBRANCH   5   9
ENDBRANCH   1   5
BRANCH   4  13
HETATM   13  C           1     -35.098  -0.323 -12.722  0.00  0.00     0.195 C 
BRANCH  13  14
HETATM   14  C           1     -36.270  -0.135 -11.789  0.00  0.00     0.197 C 
HETATM   15  O           1     -36.132   0.528 -10.738  0.00  0.00    -0.646 OA
HETATM   16  O           1     -37.378  -0.643 -12.066  0.00  0.00    -0.646 OA
ENDBRANCH  13  14
BRANCH  13  17
HETATM   17  C           1     -35.317   0.501 -13.984  0.00  0.00     0.149 C 
BRANCH  17  18
HETATM   18  C           1     -35.686  -0.415 -15.126  0.00  0.00     0.175 C 
HETATM   19  O           1     -36.882  -0.726 -15.316  0.00  0.00    -0.648 OA
HETATM   20  O           1     -34.797  -0.862 -15.881  0.00  0.00    -0.648 OA
ENDBRANCH  17  18
ENDBRANCH  13  17
ENDBRANCH   4  13
TORSDOF 8
ENDMDL
MODEL 2
REMARK VINA RESULT:      -5.5      9.523     10.867
REMARK  8 active torsions:
REMARK  status: ('A' for Active; 'I' for Inactive)
REMARK       I    between atoms: C_1  and  N_6 
REMARK    1  A    between atoms: C_1  and  C_15 
REMARK    2  A    between atoms: C_5  and  C_20 
REMARK    3  A    between atoms: N_6  and  C_20 
REMARK    4  A    between atoms: C_12  and  C_17 
REMARK    5  A    between atoms: S_13  and  C_14 
REMARK    6  A    between atoms: C_14  and  C_15 
REMARK    7  A    between atoms: C_15  and  N_16 
REMARK    8  A    between atoms: C_17  and  C_20 
ROOT
HETATM    1  C           1     -26.304  -6.455 -18.479  0.00  0.00     0.249 C 
HETATM    2  O           1     -26.040  -6.253 -17.317  0.00  0.00    -0.271 OA
HETATM    3  H           1     -27.827  -6.595 -19.873  0.00  0.00     0.163 HD
HETATM    4  N           1     -27.606  -6.425 -18.900  0.00  0.00    -0.344 N 
ENDROOT
BRANCH   1   5
HETATM    5  C           1     -25.198  -6.739 -19.464  0.00  0.00     0.283 C 
BRANCH   5   6
HETATM    6  C           1     -25.763  -7.494 -20.661  0.00  0.00     0.113 C 
BRANCH   6   7
HETATM    7  S           1     -24.424  -7.867 -21.828  0.00  0.00    -0.180 SA
HETATM    8  H           1     -23.562  -6.952 -21.349  0.00  0.00     0.101 HD
ENDBRANCH   6   7
ENDBRANCH   5   6
BRANCH   5   9
HETATM    9  N           1     -24.140  -7.572 -18.803  0.00  0.00    -0.066 N 
HETATM   10  H           1     -23.395  -6.948 -18.419  0.00  0.00     0.275 HD
HETATM   11  H           1     -24.567  -8.123 -18.025  0.00  0.00     0.275 HD
HETATM   12  H           1     -23.721  -8.223 -19.505  0.00  0.00     0.275 HD
ENDBRANCH   5   9
ENDBRANCH   1   5
BRANCH   4  13
HETATM   13  C           1     -28.669  -6.151 -17.952  0.00  0.00     0.195 C 
BRANCH  13  14
HETATM   14  C           1     -29.734  -7.213 -18.072  0.00  0.00     0.197 C 
HETATM   15  O           1     -30.796  -7.110 -17.420  0.00  0.00    -0.646 OA
HETATM   16  O           1     -29.556  -8.197 -18.823  0.00  0.00    -0.646 OA
ENDBRANCH  13  14
BRANCH  13  17
HETATM   17  C           1     -29.275  -4.787 -18.251  0.00  0.00     0.149 C 
BRANCH  17  18
HETATM   18  C           1     -28.743  -3.773 -17.268  0.00  0.00     0.175 C 
HETATM   19  O           1     -27.941  -4.127 -16.376  0.00  0.00    -0.648 OA
HETATM   20  O           1     -29.103  -2.579 -17.345  0.00  0.00    -0.648 OA
ENDBRANCH  17  18
ENDBRANCH  13  17
ENDBRANCH   4  13
TORSDOF 8
ENDMDL
MODEL 3
REMARK VINA RESULT:      -5.3     12.413     14.275
REMARK  8 active torsions:
REMARK  status: ('A' for Active; 'I' for Inactive)
REMARK       I    between atoms: C_1  and  N_6 
REMARK    1  A    between atoms: C_1  and  C_15 
REMARK    2  A    between atoms: C_5  and  C_20 
REMARK    3  A    between atoms: N_6  and  C_20 
REMARK    4  A    between atoms: C_12  and  C_17 
REMARK    5  A    between atoms: S_13  and  C_14 
REMARK    6  A    between atoms: C_14  and  C_15 
REMARK    7  A    between atoms: C_15  and  N_16 
REMARK    8  A    between atoms: C_17  and  C_20 
ROOT
HETATM    1  C           1     -21.658  -4.602  -7.624  0.00  0.00     0.249 C 
HETATM    2  O           1     -21.504  -3.456  -7.275  0.00  0.00    -0.271 OA
HETATM    3  H           1     -22.414  -5.840  -9.099  0.00  0.00     0.163 HD
HETATM    4  N           1     -22.286  -4.880  -8.808  0.00  0.00    -0.344 N 
ENDROOT
BRANCH   1   5
HETATM    5  C           1     -21.154  -5.727  -6.754  0.00  0.00     0.283 C 
BRANCH   5   6
HETATM    6  C           1     -20.809  -5.188  -5.372  0.00  0.00     0.113 C 
BRANCH   6   7
HETATM    7  S           1     -21.406  -6.342  -4.105  0.00  0.00    -0.180 SA
HETATM    8  H           1     -20.446  -7.266  -4.294  0.00  0.00     0.101 HD
ENDBRANCH   6   7
ENDBRANCH   5   6
BRANCH   5   9
HETATM    9  N           1     -19.929  -6.330  -7.375  0.00  0.00    -0.066 N 
HETATM   10  H           1     -19.083  -5.807  -7.057  0.00  0.00     0.275 HD
HETATM   11  H           1     -19.849  -7.331  -7.086  0.00  0.00     0.275 HD
HETATM   12  H           1     -20.003  -6.271  -8.417  0.00  0.00     0.275 HD
ENDBRANCH   5   9
ENDBRANCH   1   5
BRANCH   4  13
HETATM   13  C           1     -22.768  -3.798  -9.644  0.00  0.00     0.195 C 
BRANCH  13  14
HETATM   14  C           1     -24.276  -3.835  -9.692  0.00  0.00     0.197 C 
HETATM   15  O           1     -24.869  -4.919  -9.887  0.00  0.00    -0.646 OA
HETATM   16  O           1     -24.934  -2.783  -9.538  0.00  0.00    -0.646 OA
ENDBRANCH  13  14
BRANCH  13  17
HETATM   17  C           1     -22.210  -3.957 -11.052  0.00  0.00     0.149 C 
BRANCH  17  18
HETATM   18  C           1     -20.713  -3.773 -11.024  0.00  0.00     0.175 C 
HETATM   19  O           1     -19.969  -4.735 -10.733  0.00  0.00    -0.648 OA
HETATM   20  O           1     -20.216  -2.657 -11.291  0.00  0.00    -0.648 OA
ENDBRANCH  17  18
ENDBRANCH  13  17
ENDBRANCH   4  13
TORSDOF 8
ENDMDL
MODEL 4
REMARK VINA RESULT:      -5.2     12.091     14.036
REMARK  8 active torsions:
REMARK  status: ('A' for Active; 'I' for Inactive)
REMARK       I    between atoms: C_1  and  N_6 
REMARK    1  A    between atoms: C_1  and  C_15 
REMARK    2  A    between atoms: C_5  and  C_20 
REMARK    3  A    between atoms: N_6  and  C_20 
REMARK    4  A    between atoms: C_12  and  C_17 
REMARK    5  A    between atoms: S_13  and  C_14 
REMARK    6  A    between atoms: C_14  and  C_15 
REMARK    7  A    between atoms: C_15  and  N_16 
REMARK    8  A    between atoms: C_17  and  C_20 
ROOT
HETATM    1  C           1     -21.379  -4.630  -8.235  0.00  0.00     0.249 C 
HETATM    2  O           1     -20.439  -5.333  -8.521  0.00  0.00    -0.271 OA
HETATM    3  H           1     -22.996  -3.574  -8.976  0.00  0.00     0.163 HD
HETATM    4  N           1     -22.209  -4.163  -9.217  0.00  0.00    -0.344 N 
ENDROOT
BRANCH   1   5
HETATM    5  C           1     -21.637  -4.269  -6.793  0.00  0.00     0.283 C 
BRANCH   5   6
HETATM    6  C           1     -20.487  -4.772  -5.928  0.00  0.00     0.113 C 
BRANCH   6   7
HETATM    7  S           1     -21.066  -6.143  -4.890  0.00  0.00    -0.180 SA
HETATM    8  H           1     -22.342  -5.727  -4.806  0.00  0.00     0.101 HD
ENDBRANCH   6   7
ENDBRANCH   5   6
BRANCH   5   9
HETATM    9  N           1     -22.918  -4.906  -6.339  0.00  0.00    -0.066 N 
HETATM   10  H           1     -23.321  -4.353  -5.551  0.00  0.00     0.275 HD
HETATM   11  H           1     -23.596  -4.926  -7.134  0.00  0.00     0.275 HD
HETATM   12  H           1     -22.726  -5.882  -6.018  0.00  0.00     0.275 HD
ENDBRANCH   5   9
ENDBRANCH   1   5
BRANCH   4  13
HETATM   13  C           1     -21.962  -4.510 -10.602  0.00  0.00     0.195 C 
BRANCH  13  14
HETATM   14  C           1     -21.178  -3.404 -11.265  0.00  0.00     0.197 C 
HETATM   15  O           1     -19.928  -3.437 -11.266  0.00  0.00    -0.646 OA
HETATM   16  O           1     -21.777  -2.454 -11.814  0.00  0.00    -0.646 OA
ENDBRANCH  13  14
BRANCH  13  17
HETATM   17  C           1     -23.290  -4.695 -11.324  0.00  0.00     0.149 C 
BRANCH  17  18
HETATM   18  C           1     -24.405  -4.131 -10.478  0.00  0.00     0.175 C 
HETATM   19  O           1     -24.992  -4.861  -9.650  0.00  0.00    -0.648 OA
HETATM   20  O           1     -24.743  -2.935 -10.606  0.00  0.00    -0.648 OA
ENDBRANCH  17  18
ENDBRANCH  13  17
ENDBRANCH   4  13
TORSDOF 8
ENDMDL
MODEL 5
REMARK VINA RESULT:      -4.6     12.755     14.739
REMARK  8 active torsions:
REMARK  status: ('A' for Active; 'I' for Inactive)
REMARK       I    between atoms: C_1  and  N_6 
REMARK    1  A    between atoms: C_1  and  C_15 
REMARK    2  A    between atoms: C_5  and  C_20 
REMARK    3  A    between atoms: N_6  and  C_20 
REMARK    4  A    between atoms: C_12  and  C_17 
REMARK    5  A    between atoms: S_13  and  C_14 
REMARK    6  A    between atoms: C_14  and  C_15 
REMARK    7  A    between atoms: C_15  and  N_16 
REMARK    8  A    between atoms: C_17  and  C_20 
ROOT
HETATM    1  C           1     -21.454  -5.774  -6.696  0.00  0.00     0.249 C 
HETATM    2  O           1     -21.016  -6.673  -7.374  0.00  0.00    -0.271 OA
HETATM    3  H           1     -22.348  -3.908  -6.724  0.00  0.00     0.163 HD
HETATM    4  N           1     -21.981  -4.661  -7.292  0.00  0.00    -0.344 N 
ENDROOT
BRANCH   1   5
HETATM    5  C           1     -21.422  -5.881  -5.192  0.00  0.00     0.283 C 
BRANCH   5   6
HETATM    6  C           1     -20.448  -6.978  -4.779  0.00  0.00     0.113 C 
BRANCH   6   7
HETATM    7  S           1     -21.376  -8.397  -4.130  0.00  0.00    -0.180 SA
HETATM    8  H           1     -22.280  -7.672  -3.447  0.00  0.00     0.101 HD
ENDBRANCH   6   7
ENDBRANCH   5   6
BRANCH   5   9
HETATM    9  N           1     -22.794  -6.214  -4.684  0.00  0.00    -0.066 N 
HETATM   10  H           1     -23.090  -7.141  -5.063  0.00  0.00     0.275 HD
HETATM   11  H           1     -22.778  -6.253  -3.640  0.00  0.00     0.275 HD
HETATM   12  H           1     -23.468  -5.478  -4.997  0.00  0.00     0.275 HD
ENDBRANCH   5   9
ENDBRANCH   1   5
BRANCH   4  13
HETATM   13  C           1     -22.012  -4.559  -8.738  0.00  0.00     0.195 C 
BRANCH  13  14
HETATM   14  C           1     -20.648  -4.157  -9.243  0.00  0.00     0.197 C 
HETATM   15  O           1     -20.363  -4.296 -10.453  0.00  0.00    -0.646 OA
HETATM   16  O           1     -19.801  -3.686  -8.453  0.00  0.00    -0.646 OA
ENDBRANCH  13  14
BRANCH  13  17
HETATM   17  C           1     -23.036  -3.509  -9.151  0.00  0.00     0.149 C 
BRANCH  17  18
HETATM   18  C           1     -23.960  -4.090 -10.193  0.00  0.00     0.175 C 
HETATM   19  O           1     -23.856  -5.291 -10.522  0.00  0.00    -0.648 OA
HETATM   20  O           1     -24.830  -3.369 -10.727  0.00  0.00    -0.648 OA
ENDBRANCH  17  18
ENDBRANCH  13  17
ENDBRANCH   4  13
TORSDOF 8
ENDMDL
MODEL 6
REMARK VINA RESULT:      -4.6      8.628     10.029
REMARK  8 active torsions:
REMARK  status: ('A' for Active; 'I' for Inactive)
REMARK       I    between atoms: C_1  and  N_6 
REMARK    1  A    between atoms: C_1  and  C_15 
REMARK    2  A    between atoms: C_5  and  C_20 
REMARK    3  A    between atoms: N_6  and  C_20 
REMARK    4  A    between atoms: C_12  and  C_17 
REMARK    5  A    between atoms: S_13  and  C_14 
REMARK    6  A    between atoms: C_14  and  C_15 
REMARK    7  A    between atoms: C_15  and  N_16 
REMARK    8  A    between atoms: C_17  and  C_20 
ROOT
HETATM    1  C           1     -26.634  -6.195 -16.819  0.00  0.00     0.249 C 
HETATM    2  O           1     -26.936  -5.835 -15.707  0.00  0.00    -0.271 OA
HETATM    3  H           1     -27.352  -6.676 -18.700  0.00  0.00     0.163 HD
HETATM    4  N           1     -27.605  -6.374 -17.768  0.00  0.00    -0.344 N 
ENDROOT
BRANCH   1   5
HETATM    5  C           1     -25.187  -6.446 -17.164  0.00  0.00     0.283 C 
BRANCH   5   6
HETATM    6  C           1     -25.074  -6.845 -18.630  0.00  0.00     0.113 C 
BRANCH   6   7
HETATM    7  S           1     -23.344  -7.230 -19.020  0.00  0.00    -0.180 SA
HETATM    8  H           1     -22.810  -6.255 -18.263  0.00  0.00     0.101 HD
ENDBRANCH   6   7
ENDBRANCH   5   6
BRANCH   5   9
HETATM    9  N           1     -24.653  -7.553 -16.303  0.00  0.00    -0.066 N 
HETATM   10  H           1     -23.890  -8.052 -16.811  0.00  0.00     0.275 HD
HETATM   11  H           1     -24.275  -7.150 -15.415  0.00  0.00     0.275 HD
HETATM   12  H           1     -25.423  -8.225 -16.083  0.00  0.00     0.275 HD
ENDBRANCH   5   9
ENDBRANCH   1   5
BRANCH   4  13
HETATM   13  C           1     -28.996  -6.131 -17.437  0.00  0.00     0.195 C 
BRANCH  13  14
HETATM   14  C           1     -29.793  -7.392 -17.664  0.00  0.00     0.197 C 
HETATM   15  O           1     -29.517  -8.431 -17.025  0.00  0.00    -0.646 OA
HETATM   16  O           1     -30.730  -7.400 -18.492  0.00  0.00    -0.646 OA
ENDBRANCH  13  14
BRANCH  13  17
HETATM   17  C           1     -29.541  -5.018 -18.321  0.00  0.00     0.149 C 
BRANCH  17  18
HETATM   18  C           1     -30.351  -4.060 -17.483  0.00  0.00     0.175 C 
HETATM   19  O           1     -30.088  -2.838 -17.500  0.00  0.00    -0.648 OA
HETATM   20  O           1     -31.285  -4.488 -16.772  0.00  0.00    -0.648 OA
ENDBRANCH  17  18
ENDBRANCH  13  17
ENDBRANCH   4  13
TORSDOF 8
ENDMDL
MODEL 7
REMARK VINA RESULT:      -4.6      1.880      3.356
REMARK  8 active torsions:
REMARK  status: ('A' for Active; 'I' for Inactive)
REMARK       I    between atoms: C_1  and  N_6 
REMARK    1  A    between atoms: C_1  and  C_15 
REMARK    2  A    between atoms: C_5  and  C_20 
REMARK    3  A    between atoms: N_6  and  C_20 
REMARK    4  A    between atoms: C_12  and  C_17 
REMARK    5  A    between atoms: S_13  and  C_14 
REMARK    6  A    between atoms: C_14  and  C_15 
REMARK    7  A    between atoms: C_15  and  N_16 
REMARK    8  A    between atoms: C_17  and  C_20 
ROOT
HETATM    1  C           1     -35.366  -2.894 -11.702  0.00  0.00     0.249 C 
HETATM    2  O           1     -36.233  -3.176 -10.910  0.00  0.00    -0.271 OA
HETATM    3  H           1     -34.707  -1.486 -13.068  0.00  0.00     0.163 HD
HETATM    4  N           1     -35.434  -1.722 -12.405  0.00  0.00    -0.344 N 
ENDROOT
BRANCH   1   5
HETATM    5  C           1     -34.205  -3.834 -11.913  0.00  0.00     0.283 C 
BRANCH   5   6
HETATM    6  C           1     -34.728  -5.251 -12.116  0.00  0.00     0.113 C 
BRANCH   6   7
HETATM    7  S           1     -34.263  -6.277 -10.693  0.00  0.00    -0.180 SA
HETATM    8  H           1     -33.442  -5.372 -10.131  0.00  0.00     0.101 HD
ENDBRANCH   6   7
ENDBRANCH   5   6
BRANCH   5   9
HETATM    9  N           1     -33.308  -3.800 -10.710  0.00  0.00    -0.066 N 
HETATM   10  H           1     -33.514  -4.621 -10.099  0.00  0.00     0.275 HD
HETATM   11  H           1     -32.311  -3.837 -11.020  0.00  0.00     0.275 HD
HETATM   12  H           1     -33.477  -2.917 -10.176  0.00  0.00     0.275 HD
ENDBRANCH   5   9
ENDBRANCH   1   5
BRANCH   4  13
HETATM   13  C           1     -36.550  -0.818 -12.201  0.00  0.00     0.195 C 
BRANCH  13  14
HETATM   14  C           1     -37.008  -0.276 -13.533  0.00  0.00     0.197 C 
HETATM   15  O           1     -36.325   0.587 -14.125  0.00  0.00    -0.646 OA
HETATM   16  O           1     -38.070  -0.691 -14.045  0.00  0.00    -0.646 OA
ENDBRANCH  13  14
BRANCH  13  17
HETATM   17  C           1     -36.111   0.335 -11.307  0.00  0.00     0.149 C 
BRANCH  17  18
HETATM   18  C           1     -36.963   0.359 -10.062  0.00  0.00     0.175 C 
HETATM   19  O           1     -36.758  -0.469  -9.148  0.00  0.00    -0.648 OA
HETATM   20  O           1     -37.873   1.207  -9.944  0.00  0.00    -0.648 OA
ENDBRANCH  17  18
ENDBRANCH  13  17
ENDBRANCH   4  13
TORSDOF 8
ENDMDL
MODEL 8
REMARK VINA RESULT:      -4.5     15.433     17.516
REMARK  8 active torsions:
REMARK  status: ('A' for Active; 'I' for Inactive)
REMARK       I    between atoms: C_1  and  N_6 
REMARK    1  A    between atoms: C_1  and  C_15 
REMARK    2  A    between atoms: C_5  and  C_20 
REMARK    3  A    between atoms: N_6  and  C_20 
REMARK    4  A    between atoms: C_12  and  C_17 
REMARK    5  A    between atoms: S_13  and  C_14 
REMARK    6  A    between atoms: C_14  and  C_15 
REMARK    7  A    between atoms: C_15  and  N_16 
REMARK    8  A    between atoms: C_17  and  C_20 
ROOT
HETATM    1  C           1     -21.382  -5.840  -5.585  0.00  0.00     0.249 C 
HETATM    2  O           1     -22.577  -5.668  -5.616  0.00  0.00    -0.271 OA
HETATM    3  H           1     -19.842  -6.890  -4.686  0.00  0.00     0.163 HD
HETATM    4  N           1     -20.843  -6.746  -4.712  0.00  0.00    -0.344 N 
ENDROOT
BRANCH   1   5
HETATM    5  C           1     -20.484  -5.058  -6.511  0.00  0.00     0.283 C 
BRANCH   5   6
HETATM    6  C           1     -21.274  -3.919  -7.145  0.00  0.00     0.113 C 
BRANCH   6   7
HETATM    7  S           1     -21.629  -4.322  -8.878  0.00  0.00    -0.180 SA
HETATM    8  H           1     -22.166  -5.530  -8.634  0.00  0.00     0.101 HD
ENDBRANCH   6   7
ENDBRANCH   5   6
BRANCH   5   9
HETATM    9  N           1     -19.964  -5.965  -7.587  0.00  0.00    -0.066 N 
HETATM   10  H           1     -20.764  -6.450  -8.051  0.00  0.00     0.275 HD
HETATM   11  H           1     -19.441  -5.400  -8.294  0.00  0.00     0.275 HD
HETATM   12  H           1     -19.324  -6.675  -7.163  0.00  0.00     0.275 HD
ENDBRANCH   5   9
ENDBRANCH   1   5
BRANCH   4  13
HETATM   13  C           1     -21.707  -7.499  -3.823  0.00  0.00     0.195 C 
BRANCH  13  14
HETATM   14  C           1     -21.636  -6.909  -2.436  0.00  0.00     0.197 C 
HETATM   15  O           1     -22.299  -5.886  -2.156  0.00  0.00    -0.646 OA
HETATM   16  O           1     -20.915  -7.442  -1.564  0.00  0.00    -0.646 OA
ENDBRANCH  13  14
BRANCH  13  17
HETATM   17  C           1     -21.250  -8.951  -3.781  0.00  0.00     0.149 C 
BRANCH  17  18
HETATM   18  C           1     -19.955  -9.094  -4.543  0.00  0.00     0.175 C 
HETATM   19  O           1     -18.864  -8.923  -3.958  0.00  0.00    -0.648 OA
HETATM   20  O           1     -19.974  -9.382  -5.759  0.00  0.00    -0.648 OA
ENDBRANCH  17  18
ENDBRANCH  13  17
ENDBRANCH   4  13
TORSDOF 8
ENDMDL
MODEL 9
REMARK VINA RESULT:      -4.4      8.863     10.064
REMARK  8 active torsions:
REMARK  status: ('A' for Active; 'I' for Inactive)
REMARK       I    between atoms: C_1  and  N_6 
REMARK    1  A    between atoms: C_1  and  C_15 
REMARK    2  A    between atoms: C_5  and  C_20 
REMARK    3  A    between atoms: N_6  and  C_20 
REMARK    4  A    between atoms: C_12  and  C_17 
REMARK    5  A    between atoms: S_13  and  C_14 
REMARK    6  A    between atoms: C_14  and  C_15 
REMARK    7  A    between atoms: C_15  and  N_16 
REMARK    8  A    between atoms: C_17  and  C_20 
ROOT
HETATM    1  C           1     -26.435  -6.284 -18.079  0.00  0.00     0.249 C 
HETATM    2  O           1     -25.593  -6.227 -17.214  0.00  0.00    -0.271 OA
HETATM    3  H           1     -28.383  -5.804 -18.584  0.00  0.00     0.163 HD
HETATM    4  N           1     -27.679  -5.756 -17.860  0.00  0.00    -0.344 N 
ENDROOT
BRANCH   1   5
HETATM    5  C           1     -26.114  -6.935 -19.401  0.00  0.00     0.283 C 
BRANCH   5   6
HETATM    6  C           1     -24.602  -7.011 -19.578  0.00  0.00     0.113 C 
BRANCH   6   7
HETATM    7  S           1     -24.215  -7.958 -21.077  0.00  0.00    -0.180 SA
HETATM    8  H           1     -23.156  -7.214 -21.443  0.00  0.00     0.101 HD
ENDBRANCH   6   7
ENDBRANCH   5   6
BRANCH   5   9
HETATM    9  N           1     -26.707  -6.125 -20.516  0.00  0.00    -0.066 N 
HETATM   10  H           1     -26.285  -6.420 -21.424  0.00  0.00     0.275 HD
HETATM   11  H           1     -27.740  -6.279 -20.545  0.00  0.00     0.275 HD
HETATM   12  H           1     -26.508  -5.111 -20.352  0.00  0.00     0.275 HD
ENDBRANCH   5   9
ENDBRANCH   1   5
BRANCH   4  13
HETATM   13  C           1     -27.987  -5.129 -16.589  0.00  0.00     0.195 C 
BRANCH  13  14
HETATM   14  C           1     -29.087  -5.901 -15.903  0.00  0.00     0.197 C 
HETATM   15  O           1     -29.647  -6.851 -16.492  0.00  0.00    -0.646 OA
HETATM   16  O           1     -29.440  -5.591 -14.744  0.00  0.00    -0.646 OA
ENDBRANCH  13  14
BRANCH  13  17
HETATM   17  C           1     -28.444  -3.697 -16.828  0.00  0.00     0.149 C 
BRANCH  17  18
HETATM   18  C           1     -29.684  -3.700 -17.689  0.00  0.00     0.175 C 
HETATM   19  O           1     -30.697  -3.064 -17.329  0.00  0.00    -0.648 OA
HETATM   20  O           1     -29.697  -4.340 -18.762  0.00  0.00    -0.648 OA
ENDBRANCH  17  18
ENDBRANCH  13  17
ENDBRANCH   4  13
TORSDOF 8
ENDMDL
