MODEL 1
REMARK VINA RESULT:      -6.1      0.000      0.000
REMARK  11 active torsions:
REMARK  status: ('A' for Active; 'I' for Inactive)
REMARK    1  A    between atoms: C_2  and  N_19 
REMARK    2  A    between atoms: C_2  and  C_17 
REMARK    3  A    between atoms: C_4  and  C_10 
REMARK    4  A    between atoms: C_4  and  O_5 
REMARK    5  A    between atoms: N_6  and  C_10 
REMARK       I    between atoms: C_7  and  N_8 
REMARK    6  A    between atoms: C_7  and  C_10 
REMARK    7  A    between atoms: N_8  and  C_21 
REMARK    8  A    between atoms: C_9  and  C_17 
REMARK    9  A    between atoms: C_9  and  C_22 
REMARK   10  A    between atoms: C_21  and  C_22 
REMARK   11  A    between atoms: C_21  and  C_24 
ROOT
HETATM    1  C           1     -25.227  -6.785 -19.034  0.00  0.00     0.251 C 
HETATM    2  N           1     -26.377  -6.619 -18.310  0.00  0.00    -0.345 N 
HETATM    3  O           1     -24.166  -6.443 -18.569  0.00  0.00    -0.271 OA
HETATM    4  H           1     -27.266  -6.905 -18.699  0.00  0.00     0.163 HD
ENDROOT
BRANCH   2   5
HETATM    5  C           1     -26.321  -6.034 -16.985  0.00  0.00     0.185 C 
BRANCH   5   6
HETATM    6  C           1     -27.571  -5.197 -16.746  0.00  0.00     0.036 C 
BRANCH   6   7
HETATM    7  C           1     -28.499  -5.317 -17.948  0.00  0.00     0.004 C 
BRANCH   7   8
HETATM    8  C           1     -29.828  -5.916 -17.507  0.00  0.00     0.027 C 
BRANCH   8   9
HETATM    9  C           1     -30.031  -7.262 -18.189  0.00  0.00     0.229 C 
BRANCH   9  10
HETATM   10  N           1     -29.379  -8.340 -17.374  0.00  0.00    -0.079 N 
HETATM   11  H           1     -28.479  -8.620 -17.823  0.00  0.00     0.274 HD
HETATM   12  H           1     -29.192  -7.981 -16.410  0.00  0.00     0.274 HD
HETATM   13  H           1     -30.014  -9.168 -17.320  0.00  0.00     0.274 HD
ENDBRANCH   9  10
ENDBRANCH   8   9
ENDBRANCH   7   8
ENDBRANCH   6   7
ENDBRANCH   5   6
BRANCH   5  14
HETATM   14  C           1     -26.246  -7.133 -15.952  0.00  0.00     0.196 C 
HETATM   15  O           1     -25.140  -7.632 -15.651  0.00  0.00    -0.646 OA
HETATM   16  O           1     -27.288  -7.542 -15.398  0.00  0.00    -0.646 OA
ENDBRANCH   5  14
ENDBRANCH   2   5
BRANCH   1  17
HETATM   17  C           1     -25.286  -7.394 -20.413  0.00  0.00     0.297 C 
BRANCH  17  18
HETATM   18  C           1     -26.712  -7.840 -20.713  0.00  0.00     0.206 C 
BRANCH  18  19
HETATM   19  O           1     -26.687  -8.898 -21.631  0.00  0.00    -0.398 OA
HETATM   20  H           1     -27.583  -9.140 -21.794  0.00  0.00     0.209 HD
ENDBRANCH  18  19
ENDBRANCH  17  18
BRANCH  17  21
HETATM   21  N           1     -24.370  -8.581 -20.475  0.00  0.00    -0.064 N 
HETATM   22  H           1     -23.523  -8.400 -19.889  0.00  0.00     0.275 HD
HETATM   23  H           1     -24.869  -9.425 -20.113  0.00  0.00     0.275 HD
HETATM   24  H           1     -24.080  -8.746 -21.465  0.00  0.00     0.275 HD
ENDBRANCH  17  21
ENDBRANCH   1  17
TORSDOF 11
ENDMDL
MODEL 2
REMARK VINA RESULT:      -5.7      2.520      3.513
REMARK  11 active torsions:
REMARK  status: ('A' for Active; 'I' for Inactive)
REMARK    1  A    between atoms: C_2  and  N_19 
REMARK    2  A    between atoms: C_2  and  C_17 
REMARK    3  A    between atoms: C_4  and  C_10 
REMARK    4  A    between atoms: C_4  and  O_5 
REMARK    5  A    between atoms: N_6  and  C_10 
REMARK       I    between atoms: C_7  and  N_8 
REMARK    6  A    between atoms: C_7  and  C_10 
REMARK    7  A    between atoms: N_8  and  C_21 
REMARK    8  A    between atoms: C_9  and  C_17 
REMARK    9  A    between atoms: C_9  and  C_22 
REMARK   10  A    between atoms: C_21  and  C_22 
REMARK   11  A    between atoms: C_21  and  C_24 
ROOT
HETATM    1  C           1     -25.943  -6.989 -16.361  0.00  0.00     0.251 C 
HETATM    2  N           1     -27.017  -6.553 -17.089  0.00  0.00    -0.345 N 
HETATM    3  O           1     -26.102  -7.403 -15.237  0.00  0.00    -0.271 OA
HETATM    4  H           1     -26.883  -6.206 -18.030  0.00  0.00     0.163 HD
ENDROOT
BRANCH   2   5
HETATM    5  C           1     -28.346  -6.588 -16.511  0.00  0.00     0.185 C 
BRANCH   5   6
HETATM    6  C           1     -28.743  -5.187 -16.065  0.00  0.00     0.036 C 
BRANCH   6   7
HETATM    7  C           1     -28.275  -4.173 -17.100  0.00  0.00     0.004 C 
BRANCH   7   8
HETATM    8  C           1     -29.419  -3.227 -17.438  0.00  0.00     0.027 C 
BRANCH   8   9
HETATM    9  C           1     -30.747  -3.950 -17.259  0.00  0.00     0.229 C 
BRANCH   9  10
HETATM   10  N           1     -31.873  -3.025 -17.615  0.00  0.00    -0.079 N 
HETATM   11  H           1     -31.746  -2.683 -18.594  0.00  0.00     0.274 HD
HETATM   12  H           1     -32.781  -3.536 -17.539  0.00  0.00     0.274 HD
HETATM   13  H           1     -31.875  -2.210 -16.961  0.00  0.00     0.274 HD
ENDBRANCH   9  10
ENDBRANCH   8   9
ENDBRANCH   7   8
ENDBRANCH   6   7
ENDBRANCH   5   6
BRANCH   5  14
HETATM   14  C           1     -29.330  -7.086 -17.542  0.00  0.00     0.196 C 
HETATM   15  O           1     -28.992  -7.159 -18.743  0.00  0.00    -0.646 OA
HETATM   16  O           1     -30.481  -7.426 -17.194  0.00  0.00    -0.646 OA
ENDBRANCH   5  14
ENDBRANCH   2   5
BRANCH   1  17
HETATM   17  C           1     -24.559  -6.952 -16.963  0.00  0.00     0.297 C 
BRANCH  17  18
HETATM   18  C           1     -24.662  -7.040 -18.480  0.00  0.00     0.206 C 
BRANCH  18  19
HETATM   19  O           1     -23.408  -7.366 -19.014  0.00  0.00    -0.398 OA
HETATM   20  H           1     -23.453  -8.266 -19.290  0.00  0.00     0.209 HD
ENDBRANCH  18  19
ENDBRANCH  17  18
BRANCH  17  21
HETATM   21  N           1     -23.759  -8.112 -16.448  0.00  0.00    -0.064 N 
HETATM   22  H           1     -24.156  -8.434 -15.537  0.00  0.00     0.275 HD
HETATM   23  H           1     -23.798  -8.896 -17.141  0.00  0.00     0.275 HD
HETATM   24  H           1     -22.766  -7.817 -16.312  0.00  0.00     0.275 HD
ENDBRANCH  17  21
ENDBRANCH   1  17
TORSDOF 11
ENDMDL
MODEL 3
REMARK VINA RESULT:      -5.2     10.348     12.380
REMARK  11 active torsions:
REMARK  status: ('A' for Active; 'I' for Inactive)
REMARK    1  A    between atoms: C_2  and  N_19 
REMARK    2  A    between atoms: C_2  and  C_17 
REMARK    3  A    between atoms: C_4  and  C_10 
REMARK    4  A    between atoms: C_4  and  O_5 
REMARK    5  A    between atoms: N_6  and  C_10 
REMARK       I    between atoms: C_7  and  N_8 
REMARK    6  A    between atoms: C_7  and  C_10 
REMARK    7  A    between atoms: N_8  and  C_21 
REMARK    8  A    between atoms: C_9  and  C_17 
REMARK    9  A    between atoms: C_9  and  C_22 
REMARK   10  A    between atoms: C_21  and  C_22 
REMARK   11  A    between atoms: C_21  and  C_24 
ROOT
HETATM    1  C           1     -23.165  -4.298  -8.957  0.00  0.00     0.251 C 
HETATM    2  N           1     -22.220  -5.224  -8.604  0.00  0.00    -0.345 N 
HETATM    3  O           1     -23.132  -3.188  -8.480  0.00  0.00    -0.271 OA
HETATM    4  H           1     -22.248  -6.153  -9.003  0.00  0.00     0.163 HD
ENDROOT
BRANCH   2   5
HETATM    5  C           1     -21.179  -4.872  -7.659  0.00  0.00     0.185 C 
BRANCH   5   6
HETATM    6  C           1     -20.923  -6.047  -6.725  0.00  0.00     0.036 C 
BRANCH   6   7
HETATM    7  C           1     -21.070  -5.590  -5.280  0.00  0.00     0.004 C 
BRANCH   7   8
HETATM    8  C           1     -22.008  -6.535  -4.541  0.00  0.00     0.027 C 
BRANCH   8   9
HETATM    9  C           1     -21.519  -6.722  -3.111  0.00  0.00     0.229 C 
BRANCH   9  10
HETATM   10  N           1     -22.305  -5.835  -2.192  0.00  0.00    -0.079 N 
HETATM   11  H           1     -21.650  -5.293  -1.586  0.00  0.00     0.274 HD
HETATM   12  H           1     -22.885  -5.175  -2.758  0.00  0.00     0.274 HD
HETATM   13  H           1     -22.930  -6.420  -1.592  0.00  0.00     0.274 HD
ENDBRANCH   9  10
ENDBRANCH   8   9
ENDBRANCH   7   8
ENDBRANCH   6   7
ENDBRANCH   5   6
BRANCH   5  14
HETATM   14  C           1     -19.911  -4.538  -8.408  0.00  0.00     0.196 C 
HETATM   15  O           1     -18.857  -4.304  -7.779  0.00  0.00    -0.646 OA
HETATM   16  O           1     -19.916  -4.497  -9.657  0.00  0.00    -0.646 OA
ENDBRANCH   5  14
ENDBRANCH   2   5
BRANCH   1  17
HETATM   17  C           1     -24.249  -4.664  -9.941  0.00  0.00     0.297 C 
BRANCH  17  18
HETATM   18  C           1     -23.654  -4.764 -11.340  0.00  0.00     0.206 C 
BRANCH  18  19
HETATM   19  O           1     -22.473  -4.012 -11.400  0.00  0.00    -0.398 OA
HETATM   20  H           1     -22.728  -3.107 -11.461  0.00  0.00     0.209 HD
ENDBRANCH  18  19
ENDBRANCH  17  18
BRANCH  17  21
HETATM   21  N           1     -25.315  -3.608  -9.927  0.00  0.00    -0.064 N 
HETATM   22  H           1     -25.497  -3.282 -10.903  0.00  0.00     0.275 HD
HETATM   23  H           1     -26.194  -4.006  -9.523  0.00  0.00     0.275 HD
HETATM   24  H           1     -24.998  -2.802  -9.344  0.00  0.00     0.275 HD
ENDBRANCH  17  21
ENDBRANCH   1  17
TORSDOF 11
ENDMDL
MODEL 4
REMARK VINA RESULT:      -5.1      2.044      2.743
REMARK  11 active torsions:
REMARK  status: ('A' for Active; 'I' for Inactive)
REMARK    1  A    between atoms: C_2  and  N_19 
REMARK    2  A    between atoms: C_2  and  C_17 
REMARK    3  A    between atoms: C_4  and  C_10 
REMARK    4  A    between atoms: C_4  and  O_5 
REMARK    5  A    between atoms: N_6  and  C_10 
REMARK       I    between atoms: C_7  and  N_8 
REMARK    6  A    between atoms: C_7  and  C_10 
REMARK    7  A    between atoms: N_8  and  C_21 
REMARK    8  A    between atoms: C_9  and  C_17 
REMARK    9  A    between atoms: C_9  and  C_22 
REMARK   10  A    between atoms: C_21  and  C_22 
REMARK   11  A    between atoms: C_21  and  C_24 
ROOT
HETATM    1  C           1     -25.416  -6.274 -16.680  0.00  0.00     0.251 C 
HETATM    2  N           1     -26.691  -6.408 -17.161  0.00  0.00    -0.345 N 
HETATM    3  O           1     -25.210  -5.614 -15.689  0.00  0.00    -0.271 OA
HETATM    4  H           1     -26.863  -6.960 -17.991  0.00  0.00     0.163 HD
ENDROOT
BRANCH   2   5
HETATM    5  C           1     -27.794  -5.757 -16.481  0.00  0.00     0.185 C 
BRANCH   5   6
HETATM    6  C           1     -28.950  -5.570 -17.454  0.00  0.00     0.036 C 
BRANCH   6   7
HETATM    7  C           1     -29.202  -6.873 -18.201  0.00  0.00     0.004 C 
BRANCH   7   8
HETATM    8  C           1     -30.654  -7.293 -18.013  0.00  0.00     0.027 C 
BRANCH   8   9
HETATM    9  C           1     -31.401  -6.213 -17.241  0.00  0.00     0.229 C 
BRANCH   9  10
HETATM   10  N           1     -32.861  -6.551 -17.194  0.00  0.00    -0.079 N 
HETATM   11  H           1     -32.987  -7.494 -16.762  0.00  0.00     0.274 HD
HETATM   12  H           1     -33.366  -5.835 -16.623  0.00  0.00     0.274 HD
HETATM   13  H           1     -33.249  -6.559 -18.165  0.00  0.00     0.274 HD
ENDBRANCH   9  10
ENDBRANCH   8   9
ENDBRANCH   7   8
ENDBRANCH   6   7
ENDBRANCH   5   6
BRANCH   5  14
HETATM   14  C           1     -28.245  -6.614 -15.322  0.00  0.00     0.196 C 
HETATM   15  O           1     -29.156  -6.213 -14.567  0.00  0.00    -0.646 OA
HETATM   16  O           1     -27.708  -7.723 -15.119  0.00  0.00    -0.646 OA
ENDBRANCH   5  14
ENDBRANCH   2   5
BRANCH   1  17
HETATM   17  C           1     -24.268  -6.951 -17.388  0.00  0.00     0.297 C 
BRANCH  17  18
HETATM   18  C           1     -24.663  -7.249 -18.828  0.00  0.00     0.206 C 
BRANCH  18  19
HETATM   19  O           1     -23.558  -7.763 -19.519  0.00  0.00    -0.398 OA
HETATM   20  H           1     -23.045  -7.025 -19.802  0.00  0.00     0.209 HD
ENDBRANCH  18  19
ENDBRANCH  17  18
BRANCH  17  21
HETATM   21  N           1     -23.935  -8.235 -16.686  0.00  0.00    -0.064 N 
HETATM   22  H           1     -24.779  -8.585 -16.179  0.00  0.00     0.275 HD
HETATM   23  H           1     -23.632  -8.947 -17.390  0.00  0.00     0.275 HD
HETATM   24  H           1     -23.162  -8.068 -16.004  0.00  0.00     0.275 HD
ENDBRANCH  17  21
ENDBRANCH   1  17
TORSDOF 11
ENDMDL
MODEL 5
REMARK VINA RESULT:      -5.0     12.206     14.073
REMARK  11 active torsions:
REMARK  status: ('A' for Active; 'I' for Inactive)
REMARK    1  A    between atoms: C_2  and  N_19 
REMARK    2  A    between atoms: C_2  and  C_17 
REMARK    3  A    between atoms: C_4  and  C_10 
REMARK    4  A    between atoms: C_4  and  O_5 
REMARK    5  A    between atoms: N_6  and  C_10 
REMARK       I    between atoms: C_7  and  N_8 
REMARK    6  A    between atoms: C_7  and  C_10 
REMARK    7  A    between atoms: N_8  and  C_21 
REMARK    8  A    between atoms: C_9  and  C_17 
REMARK    9  A    between atoms: C_9  and  C_22 
REMARK   10  A    between atoms: C_21  and  C_22 
REMARK   11  A    between atoms: C_21  and  C_24 
ROOT
HETATM    1  C           1     -20.027  -8.958  -5.024  0.00  0.00     0.251 C 
HETATM    2  N           1     -20.757  -8.112  -5.814  0.00  0.00    -0.345 N 
HETATM    3  O           1     -19.312  -8.511  -4.158  0.00  0.00    -0.271 OA
HETATM    4  H           1     -21.356  -8.486  -6.539  0.00  0.00     0.163 HD
ENDROOT
BRANCH   2   5
HETATM    5  C           1     -20.674  -6.678  -5.611  0.00  0.00     0.185 C 
BRANCH   5   6
HETATM    6  C           1     -20.725  -5.971  -6.959  0.00  0.00     0.036 C 
BRANCH   6   7
HETATM    7  C           1     -20.231  -4.540  -6.800  0.00  0.00     0.004 C 
BRANCH   7   8
HETATM    8  C           1     -21.346  -3.572  -7.176  0.00  0.00     0.027 C 
BRANCH   8   9
HETATM    9  C           1     -22.267  -4.229  -8.195  0.00  0.00     0.229 C 
BRANCH   9  10
HETATM   10  N           1     -23.683  -4.166  -7.704  0.00  0.00    -0.079 N 
HETATM   11  H           1     -23.708  -4.394  -6.685  0.00  0.00     0.274 HD
HETATM   12  H           1     -24.062  -3.203  -7.857  0.00  0.00     0.274 HD
HETATM   13  H           1     -24.266  -4.856  -8.229  0.00  0.00     0.274 HD
ENDBRANCH   9  10
ENDBRANCH   8   9
ENDBRANCH   7   8
ENDBRANCH   6   7
ENDBRANCH   5   6
BRANCH   5  14
HETATM   14  C           1     -21.834  -6.223  -4.758  0.00  0.00     0.196 C 
HETATM   15  O           1     -22.970  -6.098  -5.265  0.00  0.00    -0.646 OA
HETATM   16  O           1     -21.659  -5.972  -3.547  0.00  0.00    -0.646 OA
ENDBRANCH   5  14
ENDBRANCH   2   5
BRANCH   1  17
HETATM   17  C           1     -20.113 -10.450  -5.235  0.00  0.00     0.297 C 
BRANCH  17  18
HETATM   18  C           1     -18.776 -10.970  -5.749  0.00  0.00     0.206 C 
BRANCH  18  19
HETATM   19  O           1     -18.123  -9.955  -6.460  0.00  0.00    -0.398 OA
HETATM   20  H           1     -17.651  -9.438  -5.829  0.00  0.00     0.209 HD
ENDBRANCH  18  19
ENDBRANCH  17  18
BRANCH  17  21
HETATM   21  N           1     -21.185 -10.751  -6.242  0.00  0.00    -0.064 N 
HETATM   22  H           1     -22.069 -10.268  -5.966  0.00  0.00     0.275 HD
HETATM   23  H           1     -20.882 -10.410  -7.184  0.00  0.00     0.275 HD
HETATM   24  H           1     -21.347 -11.782  -6.280  0.00  0.00     0.275 HD
ENDBRANCH  17  21
ENDBRANCH   1  17
TORSDOF 11
ENDMDL
MODEL 6
REMARK VINA RESULT:      -5.0     18.798     20.509
REMARK  11 active torsions:
REMARK  status: ('A' for Active; 'I' for Inactive)
REMARK    1  A    between atoms: C_2  and  N_19 
REMARK    2  A    between atoms: C_2  and  C_17 
REMARK    3  A    between atoms: C_4  and  C_10 
REMARK    4  A    between atoms: C_4  and  O_5 
REMARK    5  A    between atoms: N_6  and  C_10 
REMARK       I    between atoms: C_7  and  N_8 
REMARK    6  A    between atoms: C_7  and  C_10 
REMARK    7  A    between atoms: N_8  and  C_21 
REMARK    8  A    between atoms: C_9  and  C_17 
REMARK    9  A    between atoms: C_9  and  C_22 
REMARK   10  A    between atoms: C_21  and  C_22 
REMARK   11  A    between atoms: C_21  and  C_24 
ROOT
HETATM    1  C           1     -12.282   4.358 -21.964  0.00  0.00     0.251 C 
HETATM    2  N           1     -11.633   5.462 -21.479  0.00  0.00    -0.345 N 
HETATM    3  O           1     -11.861   3.253 -21.718  0.00  0.00    -0.271 OA
HETATM    4  H           1     -11.986   6.388 -21.686  0.00  0.00     0.163 HD
ENDROOT
BRANCH   2   5
HETATM    5  C           1     -10.441   5.305 -20.669  0.00  0.00     0.185 C 
BRANCH   5   6
HETATM    6  C           1      -9.428   6.377 -21.044  0.00  0.00     0.036 C 
BRANCH   6   7
HETATM    7  C           1     -10.160   7.650 -21.448  0.00  0.00     0.004 C 
BRANCH   7   8
HETATM    8  C           1      -9.687   8.807 -20.579  0.00  0.00     0.027 C 
BRANCH   8   9
HETATM    9  C           1     -10.695   9.051 -19.464  0.00  0.00     0.229 C 
BRANCH   9  10
HETATM   10  N           1     -10.000   8.977 -18.136  0.00  0.00    -0.079 N 
HETATM   11  H           1     -10.561   9.489 -17.420  0.00  0.00     0.274 HD
HETATM   12  H           1      -9.901   7.975 -17.851  0.00  0.00     0.274 HD
HETATM   13  H           1      -9.053   9.412 -18.213  0.00  0.00     0.274 HD
ENDBRANCH   9  10
ENDBRANCH   8   9
ENDBRANCH   7   8
ENDBRANCH   6   7
ENDBRANCH   5   6
BRANCH   5  14
HETATM   14  C           1     -10.804   5.442 -19.209  0.00  0.00     0.196 C 
HETATM   15  O           1      -9.940   5.805 -18.383  0.00  0.00    -0.646 OA
HETATM   16  O           1     -11.967   5.193 -18.829  0.00  0.00    -0.646 OA
ENDBRANCH   5  14
ENDBRANCH   2   5
BRANCH   1  17
HETATM   17  C           1     -13.522   4.522 -22.808  0.00  0.00     0.297 C 
BRANCH  17  18
HETATM   18  C           1     -14.438   5.559 -22.169  0.00  0.00     0.206 C 
BRANCH  18  19
HETATM   19  O           1     -14.378   5.440 -20.775  0.00  0.00    -0.398 OA
HETATM   20  H           1     -14.823   4.641 -20.549  0.00  0.00     0.209 HD
ENDBRANCH  18  19
ENDBRANCH  17  18
BRANCH  17  21
HETATM   21  N           1     -14.243   3.209 -22.898  0.00  0.00    -0.064 N 
HETATM   22  H           1     -13.779   2.605 -23.613  0.00  0.00     0.275 HD
HETATM   23  H           1     -14.215   2.733 -21.967  0.00  0.00     0.275 HD
HETATM   24  H           1     -15.236   3.376 -23.174  0.00  0.00     0.275 HD
ENDBRANCH  17  21
ENDBRANCH   1  17
TORSDOF 11
ENDMDL
MODEL 7
REMARK VINA RESULT:      -4.9      2.257      2.858
REMARK  11 active torsions:
REMARK  status: ('A' for Active; 'I' for Inactive)
REMARK    1  A    between atoms: C_2  and  N_19 
REMARK    2  A    between atoms: C_2  and  C_17 
REMARK    3  A    between atoms: C_4  and  C_10 
REMARK    4  A    between atoms: C_4  and  O_5 
REMARK    5  A    between atoms: N_6  and  C_10 
REMARK       I    between atoms: C_7  and  N_8 
REMARK    6  A    between atoms: C_7  and  C_10 
REMARK    7  A    between atoms: N_8  and  C_21 
REMARK    8  A    between atoms: C_9  and  C_17 
REMARK    9  A    between atoms: C_9  and  C_22 
REMARK   10  A    between atoms: C_21  and  C_22 
REMARK   11  A    between atoms: C_21  and  C_24 
ROOT
HETATM    1  C           1     -25.684  -6.521 -17.729  0.00  0.00     0.251 C 
HETATM    2  N           1     -27.004  -6.158 -17.715  0.00  0.00    -0.345 N 
HETATM    3  O           1     -24.976  -6.259 -16.786  0.00  0.00    -0.271 OA
HETATM    4  H           1     -27.597  -6.377 -18.505  0.00  0.00     0.163 HD
ENDROOT
BRANCH   2   5
HETATM    5  C           1     -27.552  -5.461 -16.568  0.00  0.00     0.185 C 
BRANCH   5   6
HETATM    6  C           1     -28.154  -4.137 -17.019  0.00  0.00     0.036 C 
BRANCH   6   7
HETATM    7  C           1     -29.347  -4.404 -17.927  0.00  0.00     0.004 C 
BRANCH   7   8
HETATM    8  C           1     -30.433  -3.371 -17.656  0.00  0.00     0.027 C 
BRANCH   8   9
HETATM    9  C           1     -31.755  -4.080 -17.390  0.00  0.00     0.229 C 
BRANCH   9  10
HETATM   10  N           1     -31.738  -4.669 -16.010  0.00  0.00    -0.079 N 
HETATM   11  H           1     -31.555  -3.914 -15.312  0.00  0.00     0.274 HD
HETATM   12  H           1     -32.663  -5.114 -15.810  0.00  0.00     0.274 HD
HETATM   13  H           1     -30.984  -5.390 -15.948  0.00  0.00     0.274 HD
ENDBRANCH   9  10
ENDBRANCH   8   9
ENDBRANCH   7   8
ENDBRANCH   6   7
ENDBRANCH   5   6
BRANCH   5  14
HETATM   14  C           1     -28.625  -6.310 -15.928  0.00  0.00     0.196 C 
HETATM   15  O           1     -28.920  -7.419 -16.422  0.00  0.00    -0.646 OA
HETATM   16  O           1     -29.215  -5.903 -14.905  0.00  0.00    -0.646 OA
ENDBRANCH   5  14
ENDBRANCH   2   5
BRANCH   1  17
HETATM   17  C           1     -25.114  -7.247 -18.922  0.00  0.00     0.297 C 
BRANCH  17  18
HETATM   18  C           1     -23.673  -6.805 -19.146  0.00  0.00     0.206 C 
BRANCH  18  19
HETATM   19  O           1     -22.852  -7.376 -18.164  0.00  0.00    -0.398 OA
HETATM   20  H           1     -22.778  -8.292 -18.368  0.00  0.00     0.209 HD
ENDBRANCH  18  19
ENDBRANCH  17  18
BRANCH  17  21
HETATM   21  N           1     -25.929  -6.923 -20.140  0.00  0.00    -0.064 N 
HETATM   22  H           1     -26.869  -7.372 -20.061  0.00  0.00     0.275 HD
HETATM   23  H           1     -26.043  -5.886 -20.217  0.00  0.00     0.275 HD
HETATM   24  H           1     -25.441  -7.283 -20.991  0.00  0.00     0.275 HD
ENDBRANCH  17  21
ENDBRANCH   1  17
TORSDOF 11
ENDMDL
MODEL 8
REMARK VINA RESULT:      -4.9     10.683     12.778
REMARK  11 active torsions:
REMARK  status: ('A' for Active; 'I' for Inactive)
REMARK    1  A    between atoms: C_2  and  N_19 
REMARK    2  A    between atoms: C_2  and  C_17 
REMARK    3  A    between atoms: C_4  and  C_10 
REMARK    4  A    between atoms: C_4  and  O_5 
REMARK    5  A    between atoms: N_6  and  C_10 
REMARK       I    between atoms: C_7  and  N_8 
REMARK    6  A    between atoms: C_7  and  C_10 
REMARK    7  A    between atoms: N_8  and  C_21 
REMARK    8  A    between atoms: C_9  and  C_17 
REMARK    9  A    between atoms: C_9  and  C_22 
REMARK   10  A    between atoms: C_21  and  C_22 
REMARK   11  A    between atoms: C_21  and  C_24 
ROOT
HETATM    1  C           1     -22.466  -4.166  -8.230  0.00  0.00     0.251 C 
HETATM    2  N           1     -22.158  -4.966  -7.162  0.00  0.00    -0.345 N 
HETATM    3  O           1     -21.727  -3.262  -8.541  0.00  0.00    -0.271 OA
HETATM    4  H           1     -22.777  -5.723  -6.902  0.00  0.00     0.163 HD
ENDROOT
BRANCH   2   5
HETATM    5  C           1     -20.944  -4.728  -6.406  0.00  0.00     0.185 C 
BRANCH   5   6
HETATM    6  C           1     -21.022  -5.468  -5.077  0.00  0.00     0.036 C 
BRANCH   6   7
HETATM    7  C           1     -22.212  -6.418  -5.093  0.00  0.00     0.004 C 
BRANCH   7   8
HETATM    8  C           1     -21.714  -7.857  -5.046  0.00  0.00     0.027 C 
BRANCH   8   9
HETATM    9  C           1     -20.278  -7.882  -4.540  0.00  0.00     0.229 C 
BRANCH   9  10
HETATM   10  N           1     -19.414  -8.615  -5.522  0.00  0.00    -0.079 N 
HETATM   11  H           1     -19.332  -9.616  -5.234  0.00  0.00     0.274 HD
HETATM   12  H           1     -19.844  -8.559  -6.473  0.00  0.00     0.274 HD
HETATM   13  H           1     -18.464  -8.181  -5.543  0.00  0.00     0.274 HD
ENDBRANCH   9  10
ENDBRANCH   8   9
ENDBRANCH   7   8
ENDBRANCH   6   7
ENDBRANCH   5   6
BRANCH   5  14
HETATM   14  C           1     -19.756  -5.229  -7.191  0.00  0.00     0.196 C 
HETATM   15  O           1     -19.726  -6.411  -7.593  0.00  0.00    -0.646 OA
HETATM   16  O           1     -18.804  -4.459  -7.441  0.00  0.00    -0.646 OA
ENDBRANCH   5  14
ENDBRANCH   2   5
BRANCH   1  17
HETATM   17  C           1     -23.729  -4.413  -9.017  0.00  0.00     0.297 C 
BRANCH  17  18
HETATM   18  C           1     -23.375  -4.697 -10.472  0.00  0.00     0.206 C 
BRANCH  18  19
HETATM   19  O           1     -23.002  -3.503 -11.104  0.00  0.00    -0.398 OA
HETATM   20  H           1     -23.361  -2.799 -10.591  0.00  0.00     0.209 HD
ENDBRANCH  18  19
ENDBRANCH  17  18
BRANCH  17  21
HETATM   21  N           1     -24.608  -3.199  -8.947  0.00  0.00    -0.064 N 
HETATM   22  H           1     -24.015  -2.342  -8.871  0.00  0.00     0.275 HD
HETATM   23  H           1     -25.193  -3.142  -9.812  0.00  0.00     0.275 HD
HETATM   24  H           1     -25.230  -3.268  -8.110  0.00  0.00     0.275 HD
ENDBRANCH  17  21
ENDBRANCH   1  17
TORSDOF 11
ENDMDL
MODEL 9
REMARK VINA RESULT:      -4.8      2.633      4.571
REMARK  11 active torsions:
REMARK  status: ('A' for Active; 'I' for Inactive)
REMARK    1  A    between atoms: C_2  and  N_19 
REMARK    2  A    between atoms: C_2  and  C_17 
REMARK    3  A    between atoms: C_4  and  C_10 
REMARK    4  A    between atoms: C_4  and  O_5 
REMARK    5  A    between atoms: N_6  and  C_10 
REMARK       I    between atoms: C_7  and  N_8 
REMARK    6  A    between atoms: C_7  and  C_10 
REMARK    7  A    between atoms: N_8  and  C_21 
REMARK    8  A    between atoms: C_9  and  C_17 
REMARK    9  A    between atoms: C_9  and  C_22 
REMARK   10  A    between atoms: C_21  and  C_22 
REMARK   11  A    between atoms: C_21  and  C_24 
ROOT
HETATM    1  C           1     -27.534  -7.051 -16.353  0.00  0.00     0.251 C 
HETATM    2  N           1     -28.168  -7.033 -17.566  0.00  0.00    -0.345 N 
HETATM    3  O           1     -28.166  -6.877 -15.338  0.00  0.00    -0.271 OA
HETATM    4  H           1     -27.639  -7.179 -18.416  0.00  0.00     0.163 HD
ENDROOT
BRANCH   2   5
HETATM    5  C           1     -29.599  -6.808 -17.632  0.00  0.00     0.185 C 
BRANCH   5   6
HETATM    6  C           1     -29.867  -5.389 -18.116  0.00  0.00     0.036 C 
BRANCH   6   7
HETATM    7  C           1     -30.586  -4.607 -17.025  0.00  0.00     0.004 C 
BRANCH   7   8
HETATM    8  C           1     -31.345  -3.444 -17.649  0.00  0.00     0.027 C 
BRANCH   8   9
HETATM    9  C           1     -32.830  -3.580 -17.337  0.00  0.00     0.229 C 
BRANCH   9  10
HETATM   10  N           1     -33.076  -4.881 -16.633  0.00  0.00    -0.079 N 
HETATM   11  H           1     -33.346  -5.609 -17.331  0.00  0.00     0.274 HD
HETATM   12  H           1     -32.205  -5.179 -16.137  0.00  0.00     0.274 HD
HETATM   13  H           1     -33.848  -4.762 -15.938  0.00  0.00     0.274 HD
ENDBRANCH   9  10
ENDBRANCH   8   9
ENDBRANCH   7   8
ENDBRANCH   6   7
ENDBRANCH   5   6
BRANCH   5  14
HETATM   14  C           1     -30.220  -7.794 -18.593  0.00  0.00     0.196 C 
HETATM   15  O           1     -31.450  -7.764 -18.810  0.00  0.00    -0.646 OA
HETATM   16  O           1     -29.503  -8.637 -19.172  0.00  0.00    -0.646 OA
ENDBRANCH   5  14
ENDBRANCH   2   5
BRANCH   1  17
HETATM   17  C           1     -26.045  -7.285 -16.284  0.00  0.00     0.297 C 
BRANCH  17  18
HETATM   18  C           1     -25.455  -6.476 -15.136  0.00  0.00     0.206 C 
BRANCH  18  19
HETATM   19  O           1     -24.533  -5.550 -15.643  0.00  0.00    -0.398 OA
HETATM   20  H           1     -23.678  -5.930 -15.539  0.00  0.00     0.209 HD
ENDBRANCH  18  19
ENDBRANCH  17  18
BRANCH  17  21
HETATM   21  N           1     -25.411  -6.856 -17.574  0.00  0.00    -0.064 N 
HETATM   22  H           1     -24.389  -6.694 -17.425  0.00  0.00     0.275 HD
HETATM   23  H           1     -25.543  -7.605 -18.293  0.00  0.00     0.275 HD
HETATM   24  H           1     -25.859  -5.973 -17.905  0.00  0.00     0.275 HD
ENDBRANCH  17  21
ENDBRANCH   1  17
TORSDOF 11
ENDMDL
