MODEL 1
REMARK VINA RESULT:      -6.7      0.000      0.000
REMARK  16 active torsions:
REMARK  status: ('A' for Active; 'I' for Inactive)
REMARK    1  A    between atoms: C_1  and  C_29 
REMARK    2  A    between atoms: C_1  and  C_21 
REMARK    3  A    between atoms: C_2  and  C_33 
REMARK    4  A    between atoms: N_5  and  C_33 
REMARK    5  A    between atoms: N_5  and  C_6 
REMARK    6  A    between atoms: C_6  and  C_7 
REMARK    7  A    between atoms: C_7  and  C_8 
REMARK    8  A    between atoms: C_8  and  C_30 
REMARK    9  A    between atoms: C_8  and  N_27 
REMARK       I    between atoms: C_9  and  N_10 
REMARK       I    between atoms: C_9  and  N_11 
REMARK   10  A    between atoms: N_12  and  C_29 
REMARK   11  A    between atoms: C_21  and  C_22 
REMARK   12  A    between atoms: C_22  and  N_23 
REMARK   13  A    between atoms: Se_25  and  C_35 
REMARK       I    between atoms: N_27  and  C_28 
REMARK   14  A    between atoms: C_28  and  C_29 
REMARK   15  A    between atoms: C_33  and  C_34 
REMARK   16  A    between atoms: C_34  and  C_35 
ROOT
HETATM    1  O           1     -38.052  -0.668 -13.339  0.00  0.00    -0.271 OA
HETATM    2  H           1     -35.286  -0.011 -12.012  0.00  0.00     0.163 HD
HETATM    3  N           1     -36.241  -0.341 -12.074  0.00  0.00    -0.345 N 
HETATM    4  C           1     -36.913  -0.274 -13.266  0.00  0.00     0.249 C 
ENDROOT
BRANCH   4   5
HETATM    5  C           1     -36.229   0.290 -14.486  0.00  0.00     0.274 C 
BRANCH   5   6
HETATM    6  C           1     -36.574  -0.561 -15.701  0.00  0.00     0.044 C 
BRANCH   6   7
HETATM    7  C           1     -35.317  -0.802 -16.526  0.00  0.00     0.023 C 
BRANCH   7   8
HETATM    8  C           1     -35.159  -2.295 -16.787  0.00  0.00     0.138 C 
BRANCH   8   9
HETATM    9  N           1     -33.786  -2.572 -17.233  0.00  0.00    -0.227 N 
HETATM   10  C           1     -33.190  -3.615 -16.836  0.00  0.00     0.665 C 
HETATM   11  N           1     -32.008  -3.853 -17.221  0.00  0.00    -0.235 N 
HETATM   12  N           1     -33.792  -4.441 -16.033  0.00  0.00    -0.235 N 
HETATM   13  H           1     -31.513  -4.719 -16.891  0.00  0.00     0.174 HD
HETATM   14  H           1     -31.522  -3.186 -17.869  0.00  0.00     0.174 HD
HETATM   15  H           1     -33.299  -5.303 -15.704  0.00  0.00     0.174 HD
HETATM   16  H           1     -34.768  -4.244 -15.715  0.00  0.00     0.174 HD
HETATM   17  H           1     -33.301  -1.904 -17.883  0.00  0.00     0.177 HD
ENDBRANCH   8   9
ENDBRANCH   7   8
ENDBRANCH   6   7
ENDBRANCH   5   6
BRANCH   5  18
HETATM   18  N           1     -34.744   0.282 -14.276  0.00  0.00    -0.067 N 
HETATM   19  H           1     -34.439  -0.673 -13.978  0.00  0.00     0.275 HD
HETATM   20  H           1     -34.265   0.537 -15.169  0.00  0.00     0.275 HD
HETATM   21  H           1     -34.494   0.974 -13.534  0.00  0.00     0.275 HD
ENDBRANCH   5  18
ENDBRANCH   4   5
BRANCH   3  22
HETATM   22  C           1     -36.898  -0.884 -10.901  0.00  0.00     0.187 C 
BRANCH  22  23
HETATM   23  C           1     -36.062  -2.023 -10.333  0.00  0.00     0.066 C 
BRANCH  23  24
HETATM   24  C           1     -34.712  -2.063 -11.039  0.00  0.00     0.273 C 
BRANCH  24  25
HETATM   25  N           1     -33.954  -3.186 -10.560  0.00  0.00     0.098 N 
HETATM   26  H           1     -34.571  -3.825 -10.058  0.00  0.00     0.317 HD
BRANCH  25  27
HETATM   27  C           1     -33.398  -3.858 -11.703  0.00  0.00     0.320 C 
BRANCH  27  28
HETATM   28  C           1     -34.360  -3.758 -12.862  0.00  0.00     0.207 C 
HETATM   29  O           1     -34.466  -2.685 -13.494  0.00  0.00    -0.646 OA
HETATM   30  O           1     -35.049  -4.748 -13.189  0.00  0.00    -0.646 OA
ENDBRANCH  27  28
BRANCH  27  31
HETATM   31  C           1     -33.161  -5.323 -11.365  0.00  0.00     0.047 C 
BRANCH  31  32
HETATM   32  C           1     -34.048  -5.725 -10.193  0.00  0.00     0.003 C 
BRANCH  32  33
HETATM   33 Se           1     -35.010  -7.361 -10.636  0.00  0.00     0.000 Se
HETATM   34  C           1     -33.684  -8.550  -9.846  0.00  0.00     0.000 C 
ENDBRANCH  32  33
ENDBRANCH  31  32
ENDBRANCH  27  31
ENDBRANCH  25  27
ENDBRANCH  24  25
ENDBRANCH  23  24
ENDBRANCH  22  23
BRANCH  22  35
HETATM   35  C           1     -37.044   0.200  -9.861  0.00  0.00     0.196 C 
HETATM   36  O           1     -37.854   1.135 -10.042  0.00  0.00    -0.646 OA
HETATM   37  O           1     -36.356   0.163  -8.818  0.00  0.00    -0.646 OA
ENDBRANCH  22  35
ENDBRANCH   3  22
TORSDOF 16
ENDMDL
MODEL 2
REMARK VINA RESULT:      -6.5     14.522     17.308
REMARK  16 active torsions:
REMARK  status: ('A' for Active; 'I' for Inactive)
REMARK    1  A    between atoms: C_1  and  C_29 
REMARK    2  A    between atoms: C_1  and  C_21 
REMARK    3  A    between atoms: C_2  and  C_33 
REMARK    4  A    between atoms: N_5  and  C_33 
REMARK    5  A    between atoms: N_5  and  C_6 
REMARK    6  A    between atoms: C_6  and  C_7 
REMARK    7  A    between atoms: C_7  and  C_8 
REMARK    8  A    between atoms: C_8  and  C_30 
REMARK    9  A    between atoms: C_8  and  N_27 
REMARK       I    between atoms: C_9  and  N_10 
REMARK       I    between atoms: C_9  and  N_11 
REMARK   10  A    between atoms: N_12  and  C_29 
REMARK   11  A    between atoms: C_21  and  C_22 
REMARK   12  A    between atoms: C_22  and  N_23 
REMARK   13  A    between atoms: Se_25  and  C_35 
REMARK       I    between atoms: N_27  and  C_28 
REMARK   14  A    between atoms: C_28  and  C_29 
REMARK   15  A    between atoms: C_33  and  C_34 
REMARK   16  A    between atoms: C_34  and  C_35 
ROOT
HETATM    1  O           1     -19.401  -6.954  -6.829  0.00  0.00    -0.271 OA
HETATM    2  H           1     -21.139  -7.919  -4.402  0.00  0.00     0.163 HD
HETATM    3  N           1     -20.373  -7.915  -5.064  0.00  0.00    -0.345 N 
HETATM    4  C           1     -20.316  -6.957  -6.040  0.00  0.00     0.249 C 
ENDROOT
BRANCH   4   5
HETATM    5  C           1     -21.394  -5.906  -6.130  0.00  0.00     0.274 C 
BRANCH   5   6
HETATM    6  C           1     -20.754  -4.529  -6.241  0.00  0.00     0.044 C 
BRANCH   6   7
HETATM    7  C           1     -21.598  -3.647  -7.151  0.00  0.00     0.023 C 
BRANCH   7   8
HETATM    8  C           1     -22.388  -4.521  -8.116  0.00  0.00     0.138 C 
BRANCH   8   9
HETATM    9  N           1     -23.711  -3.924  -8.348  0.00  0.00    -0.227 N 
HETATM   10  C           1     -24.273  -4.049  -9.476  0.00  0.00     0.665 C 
HETATM   11  N           1     -25.412  -3.535  -9.675  0.00  0.00    -0.235 N 
HETATM   12  N           1     -23.679  -4.705 -10.428  0.00  0.00    -0.235 N 
HETATM   13  H           1     -25.878  -3.638 -10.611  0.00  0.00     0.174 HD
HETATM   14  H           1     -25.891  -3.005  -8.906  0.00  0.00     0.174 HD
HETATM   15  H           1     -24.142  -4.807 -11.360  0.00  0.00     0.174 HD
HETATM   16  H           1     -22.738  -5.129 -10.264  0.00  0.00     0.174 HD
HETATM   17  H           1     -24.191  -3.396  -7.578  0.00  0.00     0.177 HD
ENDBRANCH   8   9
ENDBRANCH   7   8
ENDBRANCH   6   7
ENDBRANCH   5   6
BRANCH   5  18
HETATM   18  N           1     -22.250  -5.962  -4.899  0.00  0.00    -0.067 N 
HETATM   19  H           1     -22.042  -6.838  -4.369  0.00  0.00     0.275 HD
HETATM   20  H           1     -22.044  -5.134  -4.296  0.00  0.00     0.275 HD
HETATM   21  H           1     -23.258  -5.952  -5.175  0.00  0.00     0.275 HD
ENDBRANCH   5  18
ENDBRANCH   4   5
BRANCH   3  22
HETATM   22  C           1     -19.336  -8.925  -4.977  0.00  0.00     0.187 C 
BRANCH  22  23
HETATM   23  C           1     -18.947  -9.129  -3.519  0.00  0.00     0.066 C 
BRANCH  23  24
HETATM   24  C           1     -20.119  -9.741  -2.762  0.00  0.00     0.273 C 
BRANCH  24  25
HETATM   25  N           1     -20.307  -9.041  -1.520  0.00  0.00     0.098 N 
HETATM   26  H           1     -19.750  -8.186  -1.524  0.00  0.00     0.317 HD
BRANCH  25  27
HETATM   27  C           1     -21.700  -8.703  -1.414  0.00  0.00     0.320 C 
BRANCH  27  28
HETATM   28  C           1     -21.872  -7.215  -1.595  0.00  0.00     0.207 C 
HETATM   29  O           1     -22.738  -6.601  -0.935  0.00  0.00    -0.646 OA
HETATM   30  O           1     -21.148  -6.596  -2.405  0.00  0.00    -0.646 OA
ENDBRANCH  27  28
BRANCH  27  31
HETATM   31  C           1     -22.219  -9.112  -0.042  0.00  0.00     0.047 C 
BRANCH  31  32
HETATM   32  C           1     -22.296 -10.632   0.040  0.00  0.00     0.003 C 
BRANCH  32  33
HETATM   33 Se           1     -23.775 -11.268  -1.059  0.00  0.00     0.000 Se
HETATM   34  C           1     -22.669 -12.437  -2.158  0.00  0.00     0.000 C 
ENDBRANCH  32  33
ENDBRANCH  31  32
ENDBRANCH  27  31
ENDBRANCH  25  27
ENDBRANCH  24  25
ENDBRANCH  23  24
ENDBRANCH  22  23
BRANCH  22  35
HETATM   35  C           1     -19.852 -10.224  -5.546  0.00  0.00     0.196 C 
HETATM   36  O           1     -19.109 -11.229  -5.583  0.00  0.00    -0.646 OA
HETATM   37  O           1     -21.021 -10.295  -5.982  0.00  0.00    -0.646 OA
ENDBRANCH  22  35
ENDBRANCH   3  22
TORSDOF 16
ENDMDL
MODEL 3
REMARK VINA RESULT:      -6.5     15.511     17.788
REMARK  16 active torsions:
REMARK  status: ('A' for Active; 'I' for Inactive)
REMARK    1  A    between atoms: C_1  and  C_29 
REMARK    2  A    between atoms: C_1  and  C_21 
REMARK    3  A    between atoms: C_2  and  C_33 
REMARK    4  A    between atoms: N_5  and  C_33 
REMARK    5  A    between atoms: N_5  and  C_6 
REMARK    6  A    between atoms: C_6  and  C_7 
REMARK    7  A    between atoms: C_7  and  C_8 
REMARK    8  A    between atoms: C_8  and  C_30 
REMARK    9  A    between atoms: C_8  and  N_27 
REMARK       I    between atoms: C_9  and  N_10 
REMARK       I    between atoms: C_9  and  N_11 
REMARK   10  A    between atoms: N_12  and  C_29 
REMARK   11  A    between atoms: C_21  and  C_22 
REMARK   12  A    between atoms: C_22  and  N_23 
REMARK   13  A    between atoms: Se_25  and  C_35 
REMARK       I    between atoms: N_27  and  C_28 
REMARK   14  A    between atoms: C_28  and  C_29 
REMARK   15  A    between atoms: C_33  and  C_34 
REMARK   16  A    between atoms: C_34  and  C_35 
ROOT
HETATM    1  O           1     -21.924  -7.680  -5.344  0.00  0.00    -0.271 OA
HETATM    2  H           1     -20.277  -5.866  -3.385  0.00  0.00     0.163 HD
HETATM    3  N           1     -20.859  -6.640  -3.680  0.00  0.00    -0.345 N 
HETATM    4  C           1     -21.230  -6.756  -4.993  0.00  0.00     0.249 C 
ENDROOT
BRANCH   4   5
HETATM    5  C           1     -20.772  -5.730  -6.000  0.00  0.00     0.274 C 
BRANCH   5   6
HETATM    6  C           1     -21.985  -5.066  -6.636  0.00  0.00     0.044 C 
BRANCH   6   7
HETATM    7  C           1     -21.546  -3.813  -7.382  0.00  0.00     0.023 C 
BRANCH   7   8
HETATM    8  C           1     -22.107  -3.840  -8.797  0.00  0.00     0.138 C 
BRANCH   8   9
HETATM    9  N           1     -23.536  -3.495  -8.765  0.00  0.00    -0.227 N 
HETATM   10  C           1     -24.308  -3.914  -9.677  0.00  0.00     0.665 C 
HETATM   11  N           1     -25.538  -3.617  -9.649  0.00  0.00    -0.235 N 
HETATM   12  N           1     -23.838  -4.648 -10.640  0.00  0.00    -0.235 N 
HETATM   13  H           1     -26.179  -3.964 -10.405  0.00  0.00     0.174 HD
HETATM   14  H           1     -25.918  -3.024  -8.871  0.00  0.00     0.174 HD
HETATM   15  H           1     -24.475  -4.993 -11.394  0.00  0.00     0.174 HD
HETATM   16  H           1     -22.822  -4.893 -10.663  0.00  0.00     0.174 HD
HETATM   17  H           1     -23.916  -2.903  -7.986  0.00  0.00     0.177 HD
ENDBRANCH   8   9
ENDBRANCH   7   8
ENDBRANCH   6   7
ENDBRANCH   5   6
BRANCH   5  18
HETATM   18  N           1     -19.955  -6.403  -7.063  0.00  0.00    -0.067 N 
HETATM   19  H           1     -18.948  -6.154  -6.940  0.00  0.00     0.275 HD
HETATM   20  H           1     -20.070  -7.439  -6.985  0.00  0.00     0.275 HD
HETATM   21  H           1     -20.280  -6.086  -8.004  0.00  0.00     0.275 HD
ENDBRANCH   5  18
ENDBRANCH   4   5
BRANCH   3  22
HETATM   22  C           1     -21.299  -7.626  -2.712  0.00  0.00     0.187 C 
BRANCH  22  23
HETATM   23  C           1     -20.087  -8.340  -2.128  0.00  0.00     0.066 C 
BRANCH  23  24
HETATM   24  C           1     -20.085  -9.793  -2.586  0.00  0.00     0.273 C 
BRANCH  24  25
HETATM   25  N           1     -18.730 -10.262  -2.689  0.00  0.00     0.098 N 
HETATM   26  H           1     -18.729 -11.232  -3.007  0.00  0.00     0.317 HD
BRANCH  25  27
HETATM   27  C           1     -18.054  -9.440  -3.655  0.00  0.00     0.320 C 
BRANCH  27  28
HETATM   28  C           1     -18.460  -9.863  -5.046  0.00  0.00     0.207 C 
HETATM   29  O           1     -18.810  -9.004  -5.883  0.00  0.00    -0.646 OA
HETATM   30  O           1     -18.447 -11.073  -5.360  0.00  0.00    -0.646 OA
ENDBRANCH  27  28
BRANCH  27  31
HETATM   31  C           1     -16.549  -9.602  -3.494  0.00  0.00     0.047 C 
BRANCH  31  32
HETATM   32  C           1     -16.260 -10.560  -2.345  0.00  0.00     0.003 C 
BRANCH  32  33
HETATM   33 Se           1     -15.503 -12.212  -3.050  0.00  0.00     0.000 Se
HETATM   34  C           1     -15.008 -11.442  -4.771  0.00  0.00     0.000 C 
ENDBRANCH  32  33
ENDBRANCH  31  32
ENDBRANCH  27  31
ENDBRANCH  25  27
ENDBRANCH  24  25
ENDBRANCH  23  24
ENDBRANCH  22  23
BRANCH  22  35
HETATM   35  C           1     -22.059  -6.938  -1.605  0.00  0.00     0.196 C 
HETATM   36  O           1     -22.517  -5.788  -1.781  0.00  0.00    -0.646 OA
HETATM   37  O           1     -22.232  -7.518  -0.511  0.00  0.00    -0.646 OA
ENDBRANCH  22  35
ENDBRANCH   3  22
TORSDOF 16
ENDMDL
MODEL 4
REMARK VINA RESULT:      -6.4      2.858      5.916
REMARK  16 active torsions:
REMARK  status: ('A' for Active; 'I' for Inactive)
REMARK    1  A    between atoms: C_1  and  C_29 
REMARK    2  A    between atoms: C_1  and  C_21 
REMARK    3  A    between atoms: C_2  and  C_33 
REMARK    4  A    between atoms: N_5  and  C_33 
REMARK    5  A    between atoms: N_5  and  C_6 
REMARK    6  A    between atoms: C_6  and  C_7 
REMARK    7  A    between atoms: C_7  and  C_8 
REMARK    8  A    between atoms: C_8  and  C_30 
REMARK    9  A    between atoms: C_8  and  N_27 
REMARK       I    between atoms: C_9  and  N_10 
REMARK       I    between atoms: C_9  and  N_11 
REMARK   10  A    between atoms: N_12  and  C_29 
REMARK   11  A    between atoms: C_21  and  C_22 
REMARK   12  A    between atoms: C_22  and  N_23 
REMARK   13  A    between atoms: Se_25  and  C_35 
REMARK       I    between atoms: N_27  and  C_28 
REMARK   14  A    between atoms: C_28  and  C_29 
REMARK   15  A    between atoms: C_33  and  C_34 
REMARK   16  A    between atoms: C_34  and  C_35 
ROOT
HETATM    1  O           1     -34.702   0.010 -12.343  0.00  0.00    -0.271 OA
HETATM    2  H           1     -35.074  -2.427 -14.284  0.00  0.00     0.163 HD
HETATM    3  N           1     -35.082  -1.462 -13.979  0.00  0.00    -0.345 N 
HETATM    4  C           1     -34.693  -1.142 -12.705  0.00  0.00     0.249 C 
ENDROOT
BRANCH   4   5
HETATM    5  C           1     -34.253  -2.229 -11.756  0.00  0.00     0.274 C 
BRANCH   5   6
HETATM    6  C           1     -35.448  -3.100 -11.393  0.00  0.00     0.044 C 
BRANCH   6   7
HETATM    7  C           1     -35.113  -4.561 -11.659  0.00  0.00     0.023 C 
BRANCH   7   8
HETATM    8  C           1     -34.247  -5.099 -10.527  0.00  0.00     0.138 C 
BRANCH   8   9
HETATM    9  N           1     -33.804  -6.462 -10.853  0.00  0.00    -0.227 N 
HETATM   10  C           1     -34.326  -7.455 -10.267  0.00  0.00     0.665 C 
HETATM   11  N           1     -33.944  -8.628 -10.548  0.00  0.00    -0.235 N 
HETATM   12  N           1     -35.255  -7.269  -9.377  0.00  0.00    -0.235 N 
HETATM   13  H           1     -34.377  -9.452 -10.062  0.00  0.00     0.174 HD
HETATM   14  H           1     -33.193  -8.778 -11.267  0.00  0.00     0.174 HD
HETATM   15  H           1     -35.686  -8.089  -8.893  0.00  0.00     0.174 HD
HETATM   16  H           1     -35.571  -6.300  -9.145  0.00  0.00     0.174 HD
HETATM   17  H           1     -33.054  -6.611 -11.573  0.00  0.00     0.177 HD
ENDBRANCH   8   9
ENDBRANCH   7   8
ENDBRANCH   6   7
ENDBRANCH   5   6
BRANCH   5  18
HETATM   18  N           1     -33.690  -1.609 -10.512  0.00  0.00    -0.067 N 
HETATM   19  H           1     -34.355  -0.890 -10.149  0.00  0.00     0.275 HD
HETATM   20  H           1     -33.548  -2.349  -9.789  0.00  0.00     0.275 HD
HETATM   21  H           1     -32.774  -1.156 -10.733  0.00  0.00     0.275 HD
ENDBRANCH   5  18
ENDBRANCH   4   5
BRANCH   3  22
HETATM   22  C           1     -35.504  -0.417 -14.892  0.00  0.00     0.187 C 
BRANCH  22  23
HETATM   23  C           1     -35.042  -0.758 -16.302  0.00  0.00     0.066 C 
BRANCH  23  24
HETATM   24  C           1     -35.045  -2.271 -16.485  0.00  0.00     0.273 C 
BRANCH  24  25
HETATM   25  N           1     -33.771  -2.695 -16.997  0.00  0.00     0.098 N 
HETATM   26  H           1     -33.024  -2.241 -16.470  0.00  0.00     0.317 HD
BRANCH  25  27
HETATM   27  C           1     -33.681  -4.119 -16.825  0.00  0.00     0.320 C 
BRANCH  27  28
HETATM   28  C           1     -34.154  -4.488 -15.440  0.00  0.00     0.207 C 
HETATM   29  O           1     -35.140  -5.242 -15.297  0.00  0.00    -0.646 OA
HETATM   30  O           1     -33.559  -4.039 -14.436  0.00  0.00    -0.646 OA
ENDBRANCH  27  28
BRANCH  27  31
HETATM   31  C           1     -32.235  -4.561 -17.003  0.00  0.00     0.047 C 
BRANCH  31  32
HETATM   32  C           1     -31.432  -3.434 -17.640  0.00  0.00     0.003 C 
BRANCH  32  33
HETATM   33 Se           1     -29.548  -3.926 -17.694  0.00  0.00     0.000 Se
HETATM   34  C           1     -29.703  -5.316 -16.336  0.00  0.00     0.000 C 
ENDBRANCH  32  33
ENDBRANCH  31  32
ENDBRANCH  27  31
ENDBRANCH  25  27
ENDBRANCH  24  25
ENDBRANCH  23  24
ENDBRANCH  22  23
BRANCH  22  35
HETATM   35  C           1     -37.009  -0.307 -14.868  0.00  0.00     0.196 C 
HETATM   36  O           1     -37.660  -0.845 -13.945  0.00  0.00    -0.646 OA
HETATM   37  O           1     -37.605   0.320 -15.770  0.00  0.00    -0.646 OA
ENDBRANCH  22  35
ENDBRANCH   3  22
TORSDOF 16
ENDMDL
MODEL 5
REMARK VINA RESULT:      -6.3      4.208      7.482
REMARK  16 active torsions:
REMARK  status: ('A' for Active; 'I' for Inactive)
REMARK    1  A    between atoms: C_1  and  C_29 
REMARK    2  A    between atoms: C_1  and  C_21 
REMARK    3  A    between atoms: C_2  and  C_33 
REMARK    4  A    between atoms: N_5  and  C_33 
REMARK    5  A    between atoms: N_5  and  C_6 
REMARK    6  A    between atoms: C_6  and  C_7 
REMARK    7  A    between atoms: C_7  and  C_8 
REMARK    8  A    between atoms: C_8  and  C_30 
REMARK    9  A    between atoms: C_8  and  N_27 
REMARK       I    between atoms: C_9  and  N_10 
REMARK       I    between atoms: C_9  and  N_11 
REMARK   10  A    between atoms: N_12  and  C_29 
REMARK   11  A    between atoms: C_21  and  C_22 
REMARK   12  A    between atoms: C_22  and  N_23 
REMARK   13  A    between atoms: Se_25  and  C_35 
REMARK       I    between atoms: N_27  and  C_28 
REMARK   14  A    between atoms: C_28  and  C_29 
REMARK   15  A    between atoms: C_33  and  C_34 
REMARK   16  A    between atoms: C_34  and  C_35 
ROOT
HETATM    1  O           1     -35.080  -2.360 -13.738  0.00  0.00    -0.271 OA
HETATM    2  H           1     -33.088  -4.782 -13.841  0.00  0.00     0.163 HD
HETATM    3  N           1     -33.829  -4.164 -14.147  0.00  0.00    -0.345 N 
HETATM    4  C           1     -34.196  -3.096 -13.372  0.00  0.00     0.249 C 
ENDROOT
BRANCH   4   5
HETATM    5  C           1     -33.495  -2.841 -12.060  0.00  0.00     0.274 C 
BRANCH   5   6
HETATM    6  C           1     -32.986  -4.159 -11.492  0.00  0.00     0.044 C 
BRANCH   6   7
HETATM    7  C           1     -33.975  -4.683 -10.459  0.00  0.00     0.023 C 
BRANCH   7   8
HETATM    8  C           1     -34.789  -5.818 -11.064  0.00  0.00     0.138 C 
BRANCH   8   9
HETATM    9  N           1     -33.990  -7.052 -11.061  0.00  0.00    -0.227 N 
HETATM   10  C           1     -34.212  -7.947 -10.194  0.00  0.00     0.665 C 
HETATM   11  N           1     -33.524  -9.010 -10.191  0.00  0.00    -0.235 N 
HETATM   12  N           1     -35.147  -7.776  -9.308  0.00  0.00    -0.235 N 
HETATM   13  H           1     -33.708  -9.753  -9.472  0.00  0.00     0.174 HD
HETATM   14  H           1     -32.769  -9.148 -10.907  0.00  0.00     0.174 HD
HETATM   15  H           1     -35.331  -8.515  -8.591  0.00  0.00     0.174 HD
HETATM   16  H           1     -35.716  -6.899  -9.310  0.00  0.00     0.174 HD
HETATM   17  H           1     -33.235  -7.191 -11.778  0.00  0.00     0.177 HD
ENDBRANCH   8   9
ENDBRANCH   7   8
ENDBRANCH   6   7
ENDBRANCH   5   6
BRANCH   5  18
HETATM   18  N           1     -34.456  -2.218 -11.093  0.00  0.00    -0.067 N 
HETATM   19  H           1     -35.169  -2.925 -10.804  0.00  0.00     0.275 HD
HETATM   20  H           1     -33.935  -1.885 -10.251  0.00  0.00     0.275 HD
HETATM   21  H           1     -34.935  -1.409 -11.550  0.00  0.00     0.275 HD
ENDBRANCH   5  18
ENDBRANCH   4   5
BRANCH   3  22
HETATM   22  C           1     -34.502  -4.410 -15.408  0.00  0.00     0.187 C 
BRANCH  22  23
HETATM   23  C           1     -33.512  -4.241 -16.553  0.00  0.00     0.066 C 
BRANCH  23  24
HETATM   24  C           1     -32.185  -4.888 -16.176  0.00  0.00     0.273 C 
BRANCH  24  25
HETATM   25  N           1     -32.015  -6.104 -16.924  0.00  0.00     0.098 N 
HETATM   26  H           1     -32.668  -6.116 -17.708  0.00  0.00     0.317 HD
BRANCH  25  27
HETATM   27  C           1     -30.667  -6.125 -17.424  0.00  0.00     0.320 C 
BRANCH  27  28
HETATM   28  C           1     -30.290  -7.539 -17.794  0.00  0.00     0.207 C 
HETATM   29  O           1     -30.618  -8.001 -18.908  0.00  0.00    -0.646 OA
HETATM   30  O           1     -29.650  -8.247 -16.987  0.00  0.00    -0.646 OA
ENDBRANCH  27  28
BRANCH  27  31
HETATM   31  C           1     -29.719  -5.611 -16.349  0.00  0.00     0.047 C 
BRANCH  31  32
HETATM   32  C           1     -28.575  -4.845 -17.003  0.00  0.00     0.003 C 
BRANCH  32  33
HETATM   33 Se           1     -26.980  -5.964 -17.039  0.00  0.00     0.000 Se
HETATM   34  C           1     -27.069  -6.313 -18.954  0.00  0.00     0.000 C 
ENDBRANCH  32  33
ENDBRANCH  31  32
ENDBRANCH  27  31
ENDBRANCH  25  27
ENDBRANCH  24  25
ENDBRANCH  23  24
ENDBRANCH  22  23
BRANCH  22  35
HETATM   35  C           1     -35.050  -5.816 -15.419  0.00  0.00     0.196 C 
HETATM   36  O           1     -35.610  -6.277 -14.400  0.00  0.00    -0.646 OA
HETATM   37  O           1     -34.944  -6.520 -16.446  0.00  0.00    -0.646 OA
ENDBRANCH  22  35
ENDBRANCH   3  22
TORSDOF 16
ENDMDL
MODEL 6
REMARK VINA RESULT:      -6.3     14.961     17.596
REMARK  16 active torsions:
REMARK  status: ('A' for Active; 'I' for Inactive)
REMARK    1  A    between atoms: C_1  and  C_29 
REMARK    2  A    between atoms: C_1  and  C_21 
REMARK    3  A    between atoms: C_2  and  C_33 
REMARK    4  A    between atoms: N_5  and  C_33 
REMARK    5  A    between atoms: N_5  and  C_6 
REMARK    6  A    between atoms: C_6  and  C_7 
REMARK    7  A    between atoms: C_7  and  C_8 
REMARK    8  A    between atoms: C_8  and  C_30 
REMARK    9  A    between atoms: C_8  and  N_27 
REMARK       I    between atoms: C_9  and  N_10 
REMARK       I    between atoms: C_9  and  N_11 
REMARK   10  A    between atoms: N_12  and  C_29 
REMARK   11  A    between atoms: C_21  and  C_22 
REMARK   12  A    between atoms: C_22  and  N_23 
REMARK   13  A    between atoms: Se_25  and  C_35 
REMARK       I    between atoms: N_27  and  C_28 
REMARK   14  A    between atoms: C_28  and  C_29 
REMARK   15  A    between atoms: C_33  and  C_34 
REMARK   16  A    between atoms: C_34  and  C_35 
ROOT
HETATM    1  O           1     -21.177  -6.260  -4.152  0.00  0.00    -0.271 OA
HETATM    2  H           1     -19.307  -7.904  -6.060  0.00  0.00     0.163 HD
HETATM    3  N           1     -19.840  -7.689  -5.227  0.00  0.00    -0.345 N 
HETATM    4  C           1     -20.541  -6.515  -5.147  0.00  0.00     0.249 C 
ENDROOT
BRANCH   4   5
HETATM    5  C           1     -20.519  -5.543  -6.300  0.00  0.00     0.274 C 
BRANCH   5   6
HETATM    6  C           1     -21.940  -5.092  -6.611  0.00  0.00     0.044 C 
BRANCH   6   7
HETATM    7  C           1     -21.898  -3.795  -7.409  0.00  0.00     0.023 C 
BRANCH   7   8
HETATM    8  C           1     -22.551  -4.011  -8.767  0.00  0.00     0.138 C 
BRANCH   8   9
HETATM    9  N           1     -23.967  -3.622  -8.699  0.00  0.00    -0.227 N 
HETATM   10  C           1     -24.717  -3.785  -9.705  0.00  0.00     0.665 C 
HETATM   11  N           1     -25.936  -3.450  -9.646  0.00  0.00    -0.235 N 
HETATM   12  N           1     -24.236  -4.296 -10.799  0.00  0.00    -0.235 N 
HETATM   13  H           1     -26.559  -3.585 -10.480  0.00  0.00     0.174 HD
HETATM   14  H           1     -26.325  -3.037  -8.762  0.00  0.00     0.174 HD
HETATM   15  H           1     -24.855  -4.430 -11.630  0.00  0.00     0.174 HD
HETATM   16  H           1     -23.229  -4.573 -10.848  0.00  0.00     0.174 HD
HETATM   17  H           1     -24.356  -3.210  -7.815  0.00  0.00     0.177 HD
ENDBRANCH   8   9
ENDBRANCH   7   8
ENDBRANCH   6   7
ENDBRANCH   5   6
BRANCH   5  18
HETATM   18  N           1     -19.932  -6.213  -7.507  0.00  0.00    -0.067 N 
HETATM   19  H           1     -19.566  -5.488  -8.165  0.00  0.00     0.275 HD
HETATM   20  H           1     -19.150  -6.839  -7.210  0.00  0.00     0.275 HD
HETATM   21  H           1     -20.670  -6.777  -7.986  0.00  0.00     0.275 HD
ENDBRANCH   5  18
ENDBRANCH   4   5
BRANCH   3  22
HETATM   22  C           1     -19.862  -8.624  -4.119  0.00  0.00     0.187 C 
BRANCH  22  23
HETATM   23  C           1     -20.924  -9.685  -4.371  0.00  0.00     0.066 C 
BRANCH  23  24
HETATM   24  C           1     -21.755  -9.881  -3.109  0.00  0.00     0.273 C 
BRANCH  24  25
HETATM   25  N           1     -21.611  -8.733  -2.257  0.00  0.00     0.098 N 
HETATM   26  H           1     -22.149  -7.955  -2.639  0.00  0.00     0.317 HD
BRANCH  25  27
HETATM   27  C           1     -22.128  -9.082  -0.961  0.00  0.00     0.320 C 
BRANCH  27  28
HETATM   28  C           1     -22.410  -7.823  -0.177  0.00  0.00     0.207 C 
HETATM   29  O           1     -22.739  -6.776  -0.775  0.00  0.00    -0.646 OA
HETATM   30  O           1     -22.315  -7.830   1.069  0.00  0.00    -0.646 OA
ENDBRANCH  27  28
BRANCH  27  31
HETATM   31  C           1     -21.103  -9.926  -0.216  0.00  0.00     0.047 C 
BRANCH  31  32
HETATM   32  C           1     -21.775 -11.181   0.326  0.00  0.00     0.003 C 
BRANCH  32  33
HETATM   33 Se           1     -20.808 -12.756  -0.293  0.00  0.00     0.000 Se
HETATM   34  C           1     -19.201 -11.773  -0.795  0.00  0.00     0.000 C 
ENDBRANCH  32  33
ENDBRANCH  31  32
ENDBRANCH  27  31
ENDBRANCH  25  27
ENDBRANCH  24  25
ENDBRANCH  23  24
ENDBRANCH  22  23
BRANCH  22  35
HETATM   35  C           1     -18.511  -9.284  -3.992  0.00  0.00     0.196 C 
HETATM   36  O           1     -17.975  -9.808  -4.993  0.00  0.00    -0.646 OA
HETATM   37  O           1     -17.927  -9.308  -2.888  0.00  0.00    -0.646 OA
ENDBRANCH  22  35
ENDBRANCH   3  22
TORSDOF 16
ENDMDL
MODEL 7
REMARK VINA RESULT:      -6.1      3.852      7.469
REMARK  16 active torsions:
REMARK  status: ('A' for Active; 'I' for Inactive)
REMARK    1  A    between atoms: C_1  and  C_29 
REMARK    2  A    between atoms: C_1  and  C_21 
REMARK    3  A    between atoms: C_2  and  C_33 
REMARK    4  A    between atoms: N_5  and  C_33 
REMARK    5  A    between atoms: N_5  and  C_6 
REMARK    6  A    between atoms: C_6  and  C_7 
REMARK    7  A    between atoms: C_7  and  C_8 
REMARK    8  A    between atoms: C_8  and  C_30 
REMARK    9  A    between atoms: C_8  and  N_27 
REMARK       I    between atoms: C_9  and  N_10 
REMARK       I    between atoms: C_9  and  N_11 
REMARK   10  A    between atoms: N_12  and  C_29 
REMARK   11  A    between atoms: C_21  and  C_22 
REMARK   12  A    between atoms: C_22  and  N_23 
REMARK   13  A    between atoms: Se_25  and  C_35 
REMARK       I    between atoms: N_27  and  C_28 
REMARK   14  A    between atoms: C_28  and  C_29 
REMARK   15  A    between atoms: C_33  and  C_34 
REMARK   16  A    between atoms: C_34  and  C_35 
ROOT
HETATM    1  O           1     -34.898  -2.360 -14.375  0.00  0.00    -0.271 OA
HETATM    2  H           1     -33.037  -4.803 -13.733  0.00  0.00     0.163 HD
HETATM    3  N           1     -33.611  -4.183 -14.290  0.00  0.00    -0.345 N 
HETATM    4  C           1     -34.212  -3.098 -13.709  0.00  0.00     0.249 C 
ENDROOT
BRANCH   4   5
HETATM    5  C           1     -34.017  -2.827 -12.238  0.00  0.00     0.274 C 
BRANCH   5   6
HETATM    6  C           1     -33.146  -3.918 -11.631  0.00  0.00     0.044 C 
BRANCH   6   7
HETATM    7  C           1     -33.925  -4.645 -10.544  0.00  0.00     0.023 C 
BRANCH   7   8
HETATM    8  C           1     -34.635  -5.851 -11.145  0.00  0.00     0.138 C 
BRANCH   8   9
HETATM    9  N           1     -33.784  -7.042 -11.004  0.00  0.00    -0.227 N 
HETATM   10  C           1     -34.119  -7.968 -10.208  0.00  0.00     0.665 C 
HETATM   11  N           1     -33.387  -8.993 -10.087  0.00  0.00    -0.235 N 
HETATM   12  N           1     -35.215  -7.866  -9.517  0.00  0.00    -0.235 N 
HETATM   13  H           1     -33.665  -9.761  -9.427  0.00  0.00     0.174 HD
HETATM   14  H           1     -32.502  -9.076 -10.645  0.00  0.00     0.174 HD
HETATM   15  H           1     -35.492  -8.630  -8.859  0.00  0.00     0.174 HD
HETATM   16  H           1     -35.820  -7.019  -9.617  0.00  0.00     0.174 HD
HETATM   17  H           1     -32.900  -7.125 -11.563  0.00  0.00     0.177 HD
ENDBRANCH   8   9
ENDBRANCH   7   8
ENDBRANCH   6   7
ENDBRANCH   5   6
BRANCH   5  18
HETATM   18  N           1     -35.351  -2.813 -11.552  0.00  0.00    -0.067 N 
HETATM   19  H           1     -35.855  -3.707 -11.750  0.00  0.00     0.275 HD
HETATM   20  H           1     -35.210  -2.714 -10.521  0.00  0.00     0.275 HD
HETATM   21  H           1     -35.916  -2.008 -11.906  0.00  0.00     0.275 HD
ENDBRANCH   5  18
ENDBRANCH   4   5
BRANCH   3  22
HETATM   22  C           1     -33.798  -4.445 -15.704  0.00  0.00     0.187 C 
BRANCH  22  23
HETATM   23  C           1     -32.439  -4.600 -16.375  0.00  0.00     0.066 C 
BRANCH  23  24
HETATM   24  C           1     -32.399  -3.755 -17.642  0.00  0.00     0.273 C 
BRANCH  24  25
HETATM   25  N           1     -31.190  -2.978 -17.663  0.00  0.00     0.098 N 
HETATM   26  H           1     -31.223  -2.278 -16.921  0.00  0.00     0.317 HD
BRANCH  25  27
HETATM   27  C           1     -30.090  -3.874 -17.427  0.00  0.00     0.320 C 
BRANCH  27  28
HETATM   28  C           1     -28.912  -3.094 -16.895  0.00  0.00     0.207 C 
HETATM   29  O           1     -28.064  -3.659 -16.172  0.00  0.00    -0.646 OA
HETATM   30  O           1     -28.787  -1.882 -17.178  0.00  0.00    -0.646 OA
ENDBRANCH  27  28
BRANCH  27  31
HETATM   31  C           1     -29.701  -4.554 -18.732  0.00  0.00     0.047 C 
BRANCH  31  32
HETATM   32  C           1     -28.733  -5.695 -18.443  0.00  0.00     0.003 C 
BRANCH  32  33
HETATM   33 Se           1     -29.620  -7.038 -17.344  0.00  0.00     0.000 Se
HETATM   34  C           1     -30.007  -8.236 -18.832  0.00  0.00     0.000 C 
ENDBRANCH  32  33
ENDBRANCH  31  32
ENDBRANCH  27  31
ENDBRANCH  25  27
ENDBRANCH  24  25
ENDBRANCH  23  24
ENDBRANCH  22  23
BRANCH  22  35
HETATM   35  C           1     -34.594  -5.714 -15.880  0.00  0.00     0.196 C 
HETATM   36  O           1     -34.165  -6.624 -16.623  0.00  0.00    -0.646 OA
HETATM   37  O           1     -35.683  -5.857 -15.283  0.00  0.00    -0.646 OA
ENDBRANCH  22  35
ENDBRANCH   3  22
TORSDOF 16
ENDMDL
MODEL 8
REMARK VINA RESULT:      -6.1     15.411     17.727
REMARK  16 active torsions:
REMARK  status: ('A' for Active; 'I' for Inactive)
REMARK    1  A    between atoms: C_1  and  C_29 
REMARK    2  A    between atoms: C_1  and  C_21 
REMARK    3  A    between atoms: C_2  and  C_33 
REMARK    4  A    between atoms: N_5  and  C_33 
REMARK    5  A    between atoms: N_5  and  C_6 
REMARK    6  A    between atoms: C_6  and  C_7 
REMARK    7  A    between atoms: C_7  and  C_8 
REMARK    8  A    between atoms: C_8  and  C_30 
REMARK    9  A    between atoms: C_8  and  N_27 
REMARK       I    between atoms: C_9  and  N_10 
REMARK       I    between atoms: C_9  and  N_11 
REMARK   10  A    between atoms: N_12  and  C_29 
REMARK   11  A    between atoms: C_21  and  C_22 
REMARK   12  A    between atoms: C_22  and  N_23 
REMARK   13  A    between atoms: Se_25  and  C_35 
REMARK       I    between atoms: N_27  and  C_28 
REMARK   14  A    between atoms: C_28  and  C_29 
REMARK   15  A    between atoms: C_33  and  C_34 
REMARK   16  A    between atoms: C_34  and  C_35 
ROOT
HETATM    1  O           1     -21.242  -7.884  -5.756  0.00  0.00    -0.271 OA
HETATM    2  H           1     -20.676  -5.664  -3.613  0.00  0.00     0.163 HD
HETATM    3  N           1     -20.915  -6.578  -3.974  0.00  0.00    -0.345 N 
HETATM    4  C           1     -20.956  -6.792  -5.326  0.00  0.00     0.249 C 
ENDROOT
BRANCH   4   5
HETATM    5  C           1     -20.645  -5.663  -6.277  0.00  0.00     0.274 C 
BRANCH   5   6
HETATM    6  C           1     -21.944  -5.004  -6.725  0.00  0.00     0.044 C 
BRANCH   6   7
HETATM    7  C           1     -21.627  -3.723  -7.484  0.00  0.00     0.023 C 
BRANCH   7   8
HETATM    8  C           1     -22.233  -3.796  -8.880  0.00  0.00     0.138 C 
BRANCH   8   9
HETATM    9  N           1     -23.670  -3.492  -8.808  0.00  0.00    -0.227 N 
HETATM   10  C           1     -24.435  -3.822  -9.761  0.00  0.00     0.665 C 
HETATM   11  N           1     -25.672  -3.561  -9.698  0.00  0.00    -0.235 N 
HETATM   12  N           1     -23.950  -4.430 -10.803  0.00  0.00    -0.235 N 
HETATM   13  H           1     -26.307  -3.835 -10.489  0.00  0.00     0.174 HD
HETATM   14  H           1     -26.063  -3.071  -8.857  0.00  0.00     0.174 HD
HETATM   15  H           1     -24.581  -4.702 -11.590  0.00  0.00     0.174 HD
HETATM   16  H           1     -22.929  -4.646 -10.854  0.00  0.00     0.174 HD
HETATM   17  H           1     -24.061  -3.002  -7.966  0.00  0.00     0.177 HD
ENDBRANCH   8   9
ENDBRANCH   7   8
ENDBRANCH   6   7
ENDBRANCH   5   6
BRANCH   5  18
HETATM   18  N           1     -19.921  -6.204  -7.474  0.00  0.00    -0.067 N 
HETATM   19  H           1     -19.649  -7.197  -7.298  0.00  0.00     0.275 HD
HETATM   20  H           1     -20.547  -6.157  -8.309  0.00  0.00     0.275 HD
HETATM   21  H           1     -19.063  -5.634  -7.648  0.00  0.00     0.275 HD
ENDBRANCH   5  18
ENDBRANCH   4   5
BRANCH   3  22
HETATM   22  C           1     -21.214  -7.663  -3.059  0.00  0.00     0.187 C 
BRANCH  22  23
HETATM   23  C           1     -19.914  -8.244  -2.520  0.00  0.00     0.066 C 
BRANCH  23  24
HETATM   24  C           1     -19.629  -9.574  -3.206  0.00  0.00     0.273 C 
BRANCH  24  25
HETATM   25  N           1     -18.741  -9.360  -4.317  0.00  0.00     0.098 N 
HETATM   26  H           1     -18.303  -8.442  -4.230  0.00  0.00     0.317 HD
BRANCH  25  27
HETATM   27  C           1     -17.729 -10.380  -4.271  0.00  0.00     0.320 C 
BRANCH  27  28
HETATM   28  C           1     -16.393  -9.748  -3.964  0.00  0.00     0.207 C 
HETATM   29  O           1     -15.541  -9.618  -4.869  0.00  0.00    -0.646 OA
HETATM   30  O           1     -16.139  -9.356  -2.804  0.00  0.00    -0.646 OA
ENDBRANCH  27  28
BRANCH  27  31
HETATM   31  C           1     -17.660 -11.087  -5.618  0.00  0.00     0.047 C 
BRANCH  31  32
HETATM   32  C           1     -17.461 -12.581  -5.398  0.00  0.00     0.003 C 
BRANCH  32  33
HETATM   33 Se           1     -17.449 -13.496  -7.119  0.00  0.00     0.000 Se
HETATM   34  C           1     -18.751 -12.304  -7.945  0.00  0.00     0.000 C 
ENDBRANCH  32  33
ENDBRANCH  31  32
ENDBRANCH  27  31
ENDBRANCH  25  27
ENDBRANCH  24  25
ENDBRANCH  23  24
ENDBRANCH  22  23
BRANCH  22  35
HETATM   35  C           1     -22.044  -7.139  -1.913  0.00  0.00     0.196 C 
HETATM   36  O           1     -22.221  -7.844  -0.895  0.00  0.00    -0.646 OA
HETATM   37  O           1     -22.557  -6.001  -1.981  0.00  0.00    -0.646 OA
ENDBRANCH  22  35
ENDBRANCH   3  22
TORSDOF 16
ENDMDL
MODEL 9
REMARK VINA RESULT:      -6.0      4.017      7.356
REMARK  16 active torsions:
REMARK  status: ('A' for Active; 'I' for Inactive)
REMARK    1  A    between atoms: C_1  and  C_29 
REMARK    2  A    between atoms: C_1  and  C_21 
REMARK    3  A    between atoms: C_2  and  C_33 
REMARK    4  A    between atoms: N_5  and  C_33 
REMARK    5  A    between atoms: N_5  and  C_6 
REMARK    6  A    between atoms: C_6  and  C_7 
REMARK    7  A    between atoms: C_7  and  C_8 
REMARK    8  A    between atoms: C_8  and  C_30 
REMARK    9  A    between atoms: C_8  and  N_27 
REMARK       I    between atoms: C_9  and  N_10 
REMARK       I    between atoms: C_9  and  N_11 
REMARK   10  A    between atoms: N_12  and  C_29 
REMARK   11  A    between atoms: C_21  and  C_22 
REMARK   12  A    between atoms: C_22  and  N_23 
REMARK   13  A    between atoms: Se_25  and  C_35 
REMARK       I    between atoms: N_27  and  C_28 
REMARK   14  A    between atoms: C_28  and  C_29 
REMARK   15  A    between atoms: C_33  and  C_34 
REMARK   16  A    between atoms: C_34  and  C_35 
ROOT
HETATM    1  O           1     -33.053  -3.628 -12.913  0.00  0.00    -0.271 OA
HETATM    2  H           1     -35.157  -4.978 -14.808  0.00  0.00     0.163 HD
HETATM    3  N           1     -34.336  -4.447 -14.547  0.00  0.00    -0.345 N 
HETATM    4  C           1     -34.033  -4.262 -13.224  0.00  0.00     0.249 C 
ENDROOT
BRANCH   4   5
HETATM    5  C           1     -34.922  -4.851 -12.157  0.00  0.00     0.274 C 
BRANCH   5   6
HETATM    6  C           1     -34.779  -4.042 -10.874  0.00  0.00     0.044 C 
BRANCH   6   7
HETATM    7  C           1     -35.922  -3.042 -10.774  0.00  0.00     0.023 C 
BRANCH   7   8
HETATM    8  C           1     -35.357  -1.636 -10.619  0.00  0.00     0.138 C 
BRANCH   8   9
HETATM    9  N           1     -34.708  -1.227 -11.874  0.00  0.00    -0.227 N 
HETATM   10  C           1     -35.325  -0.483 -12.691  0.00  0.00     0.665 C 
HETATM   11  N           1     -34.766  -0.131 -13.771  0.00  0.00    -0.235 N 
HETATM   12  N           1     -36.531  -0.080 -12.421  0.00  0.00    -0.235 N 
HETATM   13  H           1     -35.278   0.487 -14.449  0.00  0.00     0.174 HD
HETATM   14  H           1     -33.792  -0.455 -13.989  0.00  0.00     0.174 HD
HETATM   15  H           1     -37.041   0.533 -13.097  0.00  0.00     0.174 HD
HETATM   16  H           1     -36.992  -0.371 -11.530  0.00  0.00     0.174 HD
HETATM   17  H           1     -33.734  -1.551 -12.091  0.00  0.00     0.177 HD
ENDBRANCH   8   9
ENDBRANCH   7   8
ENDBRANCH   6   7
ENDBRANCH   5   6
BRANCH   5  18
HETATM   18  N           1     -34.520  -6.273 -11.900  0.00  0.00    -0.067 N 
HETATM   19  H           1     -33.511  -6.306 -11.629  0.00  0.00     0.275 HD
HETATM   20  H           1     -35.101  -6.662 -11.124  0.00  0.00     0.275 HD
HETATM   21  H           1     -34.667  -6.838 -12.766  0.00  0.00     0.275 HD
ENDBRANCH   5  18
ENDBRANCH   4   5
BRANCH   3  22
HETATM   22  C           1     -33.481  -3.882 -15.573  0.00  0.00     0.187 C 
BRANCH  22  23
HETATM   23  C           1     -33.004  -4.989 -16.502  0.00  0.00     0.066 C 
BRANCH  23  24
HETATM   24  C           1     -31.511  -4.828 -16.759  0.00  0.00     0.273 C 
BRANCH  24  25
HETATM   25  N           1     -30.876  -6.117 -16.725  0.00  0.00     0.098 N 
HETATM   26  H           1     -31.538  -6.814 -16.381  0.00  0.00     0.317 HD
BRANCH  25  27
HETATM   27  C           1     -30.486  -6.449 -18.068  0.00  0.00     0.320 C 
BRANCH  27  28
HETATM   28  C           1     -29.967  -7.866 -18.105  0.00  0.00     0.207 C 
HETATM   29  O           1     -29.990  -8.512 -19.174  0.00  0.00    -0.646 OA
HETATM   30  O           1     -29.513  -8.392 -17.065  0.00  0.00    -0.646 OA
ENDBRANCH  27  28
BRANCH  27  31
HETATM   31  C           1     -29.394  -5.495 -18.530  0.00  0.00     0.047 C 
BRANCH  31  32
HETATM   32  C           1     -28.035  -6.168 -18.384  0.00  0.00     0.003 C 
BRANCH  32  33
HETATM   33 Se           1     -27.199  -5.592 -16.721  0.00  0.00     0.000 Se
HETATM   34  C           1     -28.061  -3.844 -16.702  0.00  0.00     0.000 C 
ENDBRANCH  32  33
ENDBRANCH  31  32
ENDBRANCH  27  31
ENDBRANCH  25  27
ENDBRANCH  24  25
ENDBRANCH  23  24
ENDBRANCH  22  23
BRANCH  22  35
HETATM   35  C           1     -34.257  -2.859 -16.366  0.00  0.00     0.196 C 
HETATM   36  O           1     -33.881  -2.543 -17.516  0.00  0.00    -0.646 OA
HETATM   37  O           1     -35.275  -2.327 -15.873  0.00  0.00    -0.646 OA
ENDBRANCH  22  35
ENDBRANCH   3  22
TORSDOF 16
ENDMDL
