MODEL 1
REMARK VINA RESULT:      -6.9      0.000      0.000
REMARK  8 active torsions:
REMARK  status: ('A' for Active; 'I' for Inactive)
REMARK       I    between atoms: C_1  and  N_4 
REMARK    1  A    between atoms: C_1  and  C_3 
REMARK    2  A    between atoms: C_3  and  C_16 
REMARK    3  A    between atoms: C_3  and  N_8 
REMARK    4  A    between atoms: N_4  and  C_12 
REMARK    5  A    between atoms: C_6  and  C_16 
REMARK    6  A    between atoms: C_10  and  O_11 
REMARK    7  A    between atoms: C_10  and  C_12 
REMARK    8  A    between atoms: C_12  and  C_13 
ROOT
HETATM    1  C           1     -35.256  -1.609 -12.692  0.00  0.00     0.249 C 
HETATM    2  N           1     -34.976  -1.144 -13.948  0.00  0.00    -0.343 N 
HETATM    3  O           1     -36.383  -1.546 -12.262  0.00  0.00    -0.271 OA
HETATM    4  H           1     -34.032  -1.196 -14.309  0.00  0.00     0.163 HD
ENDROOT
BRANCH   1   5
HETATM    5  C           1     -34.157  -2.201 -11.844  0.00  0.00     0.278 C 
BRANCH   5   6
HETATM    6  C           1     -34.138  -3.713 -12.021  0.00  0.00     0.021 C 
HETATM    7  C           1     -32.699  -4.212 -11.981  0.00  0.00     0.012 C 
BRANCH   6   8
HETATM    8  C           1     -34.933  -4.366 -10.898  0.00  0.00     0.002 C 
HETATM    9  C           1     -34.261  -5.671 -10.492  0.00  0.00     0.005 C 
ENDBRANCH   6   8
ENDBRANCH   5   6
BRANCH   5  10
HETATM   10  N           1     -34.406  -1.871 -10.402  0.00  0.00    -0.066 N 
HETATM   11  H           1     -34.388  -2.748  -9.835  0.00  0.00     0.275 HD
HETATM   12  H           1     -33.662  -1.220 -10.060  0.00  0.00     0.275 HD
HETATM   13  H           1     -35.340  -1.413 -10.306  0.00  0.00     0.275 HD
ENDBRANCH   5  10
ENDBRANCH   1   5
BRANCH   2  14
HETATM   14  C           1     -36.033  -0.576 -14.763  0.00  0.00     0.214 C 
BRANCH  14  15
HETATM   15  C           1     -35.987   0.944 -14.665  0.00  0.00     0.147 C 
HETATM   16  C           1     -34.656   1.373 -14.062  0.00  0.00     0.042 C 
BRANCH  15  17
HETATM   17  O           1     -36.121   1.499 -15.946  0.00  0.00    -0.393 OA
HETATM   18  H           1     -36.323   2.411 -15.829  0.00  0.00     0.210 HD
ENDBRANCH  15  17
ENDBRANCH  14  15
BRANCH  14  19
HETATM   19  C           1     -35.839  -0.993 -16.200  0.00  0.00     0.199 C 
HETATM   20  O           1     -34.729  -1.424 -16.582  0.00  0.00    -0.646 OA
HETATM   21  O           1     -36.788  -0.906 -17.009  0.00  0.00    -0.646 OA
ENDBRANCH  14  19
ENDBRANCH   2  14
TORSDOF 8
ENDMDL
MODEL 2
REMARK VINA RESULT:      -6.4     12.723     14.524
REMARK  8 active torsions:
REMARK  status: ('A' for Active; 'I' for Inactive)
REMARK       I    between atoms: C_1  and  N_4 
REMARK    1  A    between atoms: C_1  and  C_3 
REMARK    2  A    between atoms: C_3  and  C_16 
REMARK    3  A    between atoms: C_3  and  N_8 
REMARK    4  A    between atoms: N_4  and  C_12 
REMARK    5  A    between atoms: C_6  and  C_16 
REMARK    6  A    between atoms: C_10  and  O_11 
REMARK    7  A    between atoms: C_10  and  C_12 
REMARK    8  A    between atoms: C_12  and  C_13 
ROOT
HETATM    1  C           1     -21.732  -4.755  -7.892  0.00  0.00     0.249 C 
HETATM    2  N           1     -22.154  -4.886  -9.187  0.00  0.00    -0.343 N 
HETATM    3  O           1     -21.738  -3.671  -7.362  0.00  0.00    -0.271 OA
HETATM    4  H           1     -22.149  -5.795  -9.633  0.00  0.00     0.163 HD
ENDROOT
BRANCH   1   5
HETATM    5  C           1     -21.261  -5.967  -7.126  0.00  0.00     0.278 C 
BRANCH   5   6
HETATM    6  C           1     -21.509  -5.756  -5.639  0.00  0.00     0.021 C 
HETATM    7  C           1     -22.882  -6.301  -5.270  0.00  0.00     0.012 C 
BRANCH   6   8
HETATM    8  C           1     -20.441  -6.489  -4.837  0.00  0.00     0.002 C 
HETATM    9  C           1     -21.043  -7.739  -4.211  0.00  0.00     0.005 C 
ENDBRANCH   6   8
ENDBRANCH   5   6
BRANCH   5  10
HETATM   10  N           1     -19.793  -6.167  -7.364  0.00  0.00    -0.066 N 
HETATM   11  H           1     -19.653  -6.959  -8.032  0.00  0.00     0.275 HD
HETATM   12  H           1     -19.383  -5.295  -7.769  0.00  0.00     0.275 HD
HETATM   13  H           1     -19.320  -6.388  -6.459  0.00  0.00     0.275 HD
ENDBRANCH   5  10
ENDBRANCH   1   5
BRANCH   2  14
HETATM   14  C           1     -22.608  -3.722  -9.923  0.00  0.00     0.214 C 
BRANCH  14  15
HETATM   15  C           1     -21.846  -3.624 -11.239  0.00  0.00     0.147 C 
HETATM   16  C           1     -20.430  -4.151 -11.044  0.00  0.00     0.042 C 
BRANCH  15  17
HETATM   17  O           1     -22.500  -4.389 -12.215  0.00  0.00    -0.393 OA
HETATM   18  H           1     -22.836  -5.156 -11.782  0.00  0.00     0.210 HD
ENDBRANCH  15  17
ENDBRANCH  14  15
BRANCH  14  19
HETATM   19  C           1     -24.084  -3.850 -10.206  0.00  0.00     0.199 C 
HETATM   20  O           1     -24.689  -4.905  -9.911  0.00  0.00    -0.646 OA
HETATM   21  O           1     -24.704  -2.902 -10.735  0.00  0.00    -0.646 OA
ENDBRANCH  14  19
ENDBRANCH   2  14
TORSDOF 8
ENDMDL
MODEL 3
REMARK VINA RESULT:      -5.3     14.896     17.485
REMARK  8 active torsions:
REMARK  status: ('A' for Active; 'I' for Inactive)
REMARK       I    between atoms: C_1  and  N_4 
REMARK    1  A    between atoms: C_1  and  C_3 
REMARK    2  A    between atoms: C_3  and  C_16 
REMARK    3  A    between atoms: C_3  and  N_8 
REMARK    4  A    between atoms: N_4  and  C_12 
REMARK    5  A    between atoms: C_6  and  C_16 
REMARK    6  A    between atoms: C_10  and  O_11 
REMARK    7  A    between atoms: C_10  and  C_12 
REMARK    8  A    between atoms: C_12  and  C_13 
ROOT
HETATM    1  C           1     -21.695  -5.539  -5.878  0.00  0.00     0.249 C 
HETATM    2  N           1     -20.953  -6.384  -5.097  0.00  0.00    -0.343 N 
HETATM    3  O           1     -22.901  -5.590  -5.845  0.00  0.00    -0.271 OA
HETATM    4  H           1     -19.942  -6.343  -5.125  0.00  0.00     0.163 HD
ENDROOT
BRANCH   1   5
HETATM    5  C           1     -21.005  -4.545  -6.779  0.00  0.00     0.278 C 
BRANCH   5   6
HETATM    6  C           1     -21.385  -4.823  -8.226  0.00  0.00     0.021 C 
HETATM    7  C           1     -22.392  -3.782  -8.697  0.00  0.00     0.012 C 
BRANCH   6   8
HETATM    8  C           1     -20.139  -4.754  -9.100  0.00  0.00     0.002 C 
HETATM    9  C           1     -20.520  -4.265 -10.491  0.00  0.00     0.005 C 
ENDBRANCH   6   8
ENDBRANCH   5   6
BRANCH   5  10
HETATM   10  N           1     -19.519  -4.673  -6.618  0.00  0.00    -0.066 N 
HETATM   11  H           1     -19.223  -4.211  -5.729  0.00  0.00     0.275 HD
HETATM   12  H           1     -19.258  -5.685  -6.588  0.00  0.00     0.275 HD
HETATM   13  H           1     -19.041  -4.214  -7.425  0.00  0.00     0.275 HD
ENDBRANCH   5  10
ENDBRANCH   1   5
BRANCH   2  14
HETATM   14  C           1     -21.616  -7.340  -4.231  0.00  0.00     0.214 C 
BRANCH  14  15
HETATM   15  C           1     -20.891  -8.678  -4.303  0.00  0.00     0.147 C 
HETATM   16  C           1     -21.870  -9.802  -3.991  0.00  0.00     0.042 C 
BRANCH  15  17
HETATM   17  O           1     -20.368  -8.857  -5.592  0.00  0.00    -0.393 OA
HETATM   18  H           1     -19.532  -8.424  -5.610  0.00  0.00     0.210 HD
ENDBRANCH  15  17
ENDBRANCH  14  15
BRANCH  14  19
HETATM   19  C           1     -21.592  -6.831  -2.810  0.00  0.00     0.199 C 
HETATM   20  O           1     -20.740  -7.265  -2.004  0.00  0.00    -0.646 OA
HETATM   21  O           1     -22.425  -5.976  -2.440  0.00  0.00    -0.646 OA
ENDBRANCH  14  19
ENDBRANCH   2  14
TORSDOF 8
ENDMDL
MODEL 4
REMARK VINA RESULT:      -5.3      2.230      5.841
REMARK  8 active torsions:
REMARK  status: ('A' for Active; 'I' for Inactive)
REMARK       I    between atoms: C_1  and  N_4 
REMARK    1  A    between atoms: C_1  and  C_3 
REMARK    2  A    between atoms: C_3  and  C_16 
REMARK    3  A    between atoms: C_3  and  N_8 
REMARK    4  A    between atoms: N_4  and  C_12 
REMARK    5  A    between atoms: C_6  and  C_16 
REMARK    6  A    between atoms: C_10  and  O_11 
REMARK    7  A    between atoms: C_10  and  C_12 
REMARK    8  A    between atoms: C_12  and  C_13 
ROOT
HETATM    1  C           1     -35.238  -1.556 -13.739  0.00  0.00     0.249 C 
HETATM    2  N           1     -34.878  -2.141 -12.555  0.00  0.00    -0.343 N 
HETATM    3  O           1     -34.965  -2.092 -14.786  0.00  0.00    -0.271 OA
HETATM    4  H           1     -35.106  -1.692 -11.678  0.00  0.00     0.163 HD
ENDROOT
BRANCH   1   5
HETATM    5  C           1     -35.978  -0.240 -13.735  0.00  0.00     0.278 C 
BRANCH   5   6
HETATM    6  C           1     -36.126   0.263 -15.164  0.00  0.00     0.021 C 
HETATM    7  C           1     -37.602   0.456 -15.486  0.00  0.00     0.012 C 
BRANCH   6   8
HETATM    8  C           1     -35.397   1.592 -15.312  0.00  0.00     0.002 C 
HETATM    9  C           1     -36.192   2.508 -16.234  0.00  0.00     0.005 C 
ENDBRANCH   6   8
ENDBRANCH   5   6
BRANCH   5  10
HETATM   10  N           1     -35.208   0.763 -12.929  0.00  0.00    -0.066 N 
HETATM   11  H           1     -34.460   0.275 -12.387  0.00  0.00     0.275 HD
HETATM   12  H           1     -34.771   1.464 -13.570  0.00  0.00     0.275 HD
HETATM   13  H           1     -35.854   1.250 -12.269  0.00  0.00     0.275 HD
ENDBRANCH   5  10
ENDBRANCH   1   5
BRANCH   2  14
HETATM   14  C           1     -34.167  -3.405 -12.559  0.00  0.00     0.214 C 
BRANCH  14  15
HETATM   15  C           1     -33.028  -3.350 -11.549  0.00  0.00     0.147 C 
HETATM   16  C           1     -33.249  -2.179 -10.600  0.00  0.00     0.042 C 
BRANCH  15  17
HETATM   17  O           1     -32.995  -4.546 -10.817  0.00  0.00    -0.393 OA
HETATM   18  H           1     -32.141  -4.603 -10.424  0.00  0.00     0.210 HD
ENDBRANCH  15  17
ENDBRANCH  14  15
BRANCH  14  19
HETATM   19  C           1     -35.117  -4.517 -12.186  0.00  0.00     0.199 C 
HETATM   20  O           1     -35.832  -4.412 -11.166  0.00  0.00    -0.646 OA
HETATM   21  O           1     -35.188  -5.542 -12.897  0.00  0.00    -0.646 OA
ENDBRANCH  14  19
ENDBRANCH   2  14
TORSDOF 8
ENDMDL
MODEL 5
REMARK VINA RESULT:      -5.2     17.530     18.853
REMARK  8 active torsions:
REMARK  status: ('A' for Active; 'I' for Inactive)
REMARK       I    between atoms: C_1  and  N_4 
REMARK    1  A    between atoms: C_1  and  C_3 
REMARK    2  A    between atoms: C_3  and  C_16 
REMARK    3  A    between atoms: C_3  and  N_8 
REMARK    4  A    between atoms: N_4  and  C_12 
REMARK    5  A    between atoms: C_6  and  C_16 
REMARK    6  A    between atoms: C_10  and  O_11 
REMARK    7  A    between atoms: C_10  and  C_12 
REMARK    8  A    between atoms: C_12  and  C_13 
ROOT
HETATM    1  C           1     -21.998 -10.035  -2.962  0.00  0.00     0.249 C 
HETATM    2  N           1     -21.512  -8.756  -3.013  0.00  0.00    -0.343 N 
HETATM    3  O           1     -22.413 -10.564  -3.965  0.00  0.00    -0.271 OA
HETATM    4  H           1     -21.165  -8.312  -2.172  0.00  0.00     0.163 HD
ENDROOT
BRANCH   1   5
HETATM    5  C           1     -22.016 -10.783  -1.651  0.00  0.00     0.278 C 
BRANCH   5   6
HETATM    6  C           1     -23.063 -10.171  -0.731  0.00  0.00     0.021 C 
HETATM    7  C           1     -23.877 -11.280  -0.077  0.00  0.00     0.012 C 
BRANCH   6   8
HETATM    8  C           1     -22.371  -9.347   0.347  0.00  0.00     0.002 C 
HETATM    9  C           1     -23.116  -8.033   0.538  0.00  0.00     0.005 C 
ENDBRANCH   6   8
ENDBRANCH   5   6
BRANCH   5  10
HETATM   10  N           1     -20.665 -10.689  -1.005  0.00  0.00    -0.066 N 
HETATM   11  H           1     -20.172 -11.606  -1.092  0.00  0.00     0.275 HD
HETATM   12  H           1     -20.104  -9.946  -1.478  0.00  0.00     0.275 HD
HETATM   13  H           1     -20.779 -10.450   0.005  0.00  0.00     0.275 HD
ENDBRANCH   5  10
ENDBRANCH   1   5
BRANCH   2  14
HETATM   14  C           1     -21.495  -8.038  -4.272  0.00  0.00     0.214 C 
BRANCH  14  15
HETATM   15  C           1     -21.834  -6.573  -4.025  0.00  0.00     0.147 C 
HETATM   16  C           1     -21.901  -6.314  -2.526  0.00  0.00     0.042 C 
BRANCH  15  17
HETATM   17  O           1     -20.843  -5.762  -4.596  0.00  0.00    -0.393 OA
HETATM   18  H           1     -21.261  -4.956  -4.849  0.00  0.00     0.210 HD
ENDBRANCH  15  17
ENDBRANCH  14  15
BRANCH  14  19
HETATM   19  C           1     -20.122  -8.138  -4.889  0.00  0.00     0.199 C 
HETATM   20  O           1     -19.150  -8.510  -4.196  0.00  0.00    -0.646 OA
HETATM   21  O           1     -19.956  -7.849  -6.094  0.00  0.00    -0.646 OA
ENDBRANCH  14  19
ENDBRANCH   2  14
TORSDOF 8
ENDMDL
MODEL 6
REMARK VINA RESULT:      -5.2     17.421     18.955
REMARK  8 active torsions:
REMARK  status: ('A' for Active; 'I' for Inactive)
REMARK       I    between atoms: C_1  and  N_4 
REMARK    1  A    between atoms: C_1  and  C_3 
REMARK    2  A    between atoms: C_3  and  C_16 
REMARK    3  A    between atoms: C_3  and  N_8 
REMARK    4  A    between atoms: N_4  and  C_12 
REMARK    5  A    between atoms: C_6  and  C_16 
REMARK    6  A    between atoms: C_10  and  O_11 
REMARK    7  A    between atoms: C_10  and  C_12 
REMARK    8  A    between atoms: C_12  and  C_13 
ROOT
HETATM    1  C           1     -21.430  -8.541  -2.365  0.00  0.00     0.249 C 
HETATM    2  N           1     -20.922  -7.810  -3.405  0.00  0.00    -0.343 N 
HETATM    3  O           1     -21.874  -9.646  -2.564  0.00  0.00    -0.271 OA
HETATM    4  H           1     -20.551  -6.883  -3.239  0.00  0.00     0.163 HD
ENDROOT
BRANCH   1   5
HETATM    5  C           1     -21.434  -7.966  -0.970  0.00  0.00     0.278 C 
BRANCH   5   6
HETATM    6  C           1     -21.812  -9.053   0.026  0.00  0.00     0.021 C 
HETATM    7  C           1     -21.074  -8.820   1.338  0.00  0.00     0.012 C 
BRANCH   6   8
HETATM    8  C           1     -23.314  -9.014   0.275  0.00  0.00     0.002 C 
HETATM    9  C           1     -23.905 -10.398   0.038  0.00  0.00     0.005 C 
ENDBRANCH   6   8
ENDBRANCH   5   6
BRANCH   5  10
HETATM   10  N           1     -22.433  -6.850  -0.894  0.00  0.00    -0.066 N 
HETATM   11  H           1     -22.012  -5.977  -1.284  0.00  0.00     0.275 HD
HETATM   12  H           1     -23.282  -7.103  -1.448  0.00  0.00     0.275 HD
HETATM   13  H           1     -22.702  -6.690   0.103  0.00  0.00     0.275 HD
ENDBRANCH   5  10
ENDBRANCH   1   5
BRANCH   2  14
HETATM   14  C           1     -20.917  -8.363  -4.745  0.00  0.00     0.214 C 
BRANCH  14  15
HETATM   15  C           1     -21.023  -7.232  -5.761  0.00  0.00     0.147 C 
HETATM   16  C           1     -21.332  -5.928  -5.037  0.00  0.00     0.042 C 
BRANCH  15  17
HETATM   17  O           1     -19.808  -7.109  -6.450  0.00  0.00    -0.393 OA
HETATM   18  H           1     -19.122  -7.167  -5.808  0.00  0.00     0.210 HD
ENDBRANCH  15  17
ENDBRANCH  14  15
BRANCH  14  19
HETATM   19  C           1     -19.634  -9.123  -4.971  0.00  0.00     0.199 C 
HETATM   20  O           1     -18.638  -8.897  -4.249  0.00  0.00    -0.646 OA
HETATM   21  O           1     -19.566  -9.978  -5.881  0.00  0.00    -0.646 OA
ENDBRANCH  14  19
ENDBRANCH   2  14
TORSDOF 8
ENDMDL
MODEL 7
REMARK VINA RESULT:      -5.1     17.206     18.796
REMARK  8 active torsions:
REMARK  status: ('A' for Active; 'I' for Inactive)
REMARK       I    between atoms: C_1  and  N_4 
REMARK    1  A    between atoms: C_1  and  C_3 
REMARK    2  A    between atoms: C_3  and  C_16 
REMARK    3  A    between atoms: C_3  and  N_8 
REMARK    4  A    between atoms: N_4  and  C_12 
REMARK    5  A    between atoms: C_6  and  C_16 
REMARK    6  A    between atoms: C_10  and  O_11 
REMARK    7  A    between atoms: C_10  and  C_12 
REMARK    8  A    between atoms: C_12  and  C_13 
ROOT
HETATM    1  C           1     -20.935  -8.132  -1.461  0.00  0.00     0.249 C 
HETATM    2  N           1     -21.563  -8.001  -2.671  0.00  0.00    -0.343 N 
HETATM    3  O           1     -19.758  -7.883  -1.362  0.00  0.00    -0.271 OA
HETATM    4  H           1     -22.550  -8.211  -2.755  0.00  0.00     0.163 HD
ENDROOT
BRANCH   1   5
HETATM    5  C           1     -21.714  -8.588  -0.252  0.00  0.00     0.278 C 
BRANCH   5   6
HETATM    6  C           1     -22.100 -10.051  -0.419  0.00  0.00     0.021 C 
HETATM    7  C           1     -21.316 -10.901   0.573  0.00  0.00     0.012 C 
BRANCH   6   8
HETATM    8  C           1     -23.592 -10.216  -0.160  0.00  0.00     0.002 C 
HETATM    9  C           1     -24.104 -11.444  -0.901  0.00  0.00     0.005 C 
ENDBRANCH   6   8
ENDBRANCH   5   6
BRANCH   5  10
HETATM   10  N           1     -22.956  -7.757  -0.116  0.00  0.00    -0.066 N 
HETATM   11  H           1     -23.715  -8.331   0.316  0.00  0.00     0.275 HD
HETATM   12  H           1     -22.757  -6.930   0.491  0.00  0.00     0.275 HD
HETATM   13  H           1     -23.262  -7.431  -1.060  0.00  0.00     0.275 HD
ENDBRANCH   5  10
ENDBRANCH   1   5
BRANCH   2  14
HETATM   14  C           1     -20.815  -7.562  -3.833  0.00  0.00     0.214 C 
BRANCH  14  15
HETATM   15  C           1     -20.795  -8.675  -4.873  0.00  0.00     0.147 C 
HETATM   16  C           1     -21.676  -9.825  -4.403  0.00  0.00     0.042 C 
BRANCH  15  17
HETATM   17  O           1     -21.282  -8.181  -6.092  0.00  0.00    -0.393 OA
HETATM   18  H           1     -21.235  -7.242  -6.046  0.00  0.00     0.210 HD
ENDBRANCH  15  17
ENDBRANCH  14  15
BRANCH  14  19
HETATM   19  C           1     -21.469  -6.336  -4.419  0.00  0.00     0.199 C 
HETATM   20  O           1     -22.715  -6.224  -4.403  0.00  0.00    -0.646 OA
HETATM   21  O           1     -20.767  -5.432  -4.921  0.00  0.00    -0.646 OA
ENDBRANCH  14  19
ENDBRANCH   2  14
TORSDOF 8
ENDMDL
MODEL 8
REMARK VINA RESULT:      -5.1     17.516     19.025
REMARK  8 active torsions:
REMARK  status: ('A' for Active; 'I' for Inactive)
REMARK       I    between atoms: C_1  and  N_4 
REMARK    1  A    between atoms: C_1  and  C_3 
REMARK    2  A    between atoms: C_3  and  C_16 
REMARK    3  A    between atoms: C_3  and  N_8 
REMARK    4  A    between atoms: N_4  and  C_12 
REMARK    5  A    between atoms: C_6  and  C_16 
REMARK    6  A    between atoms: C_10  and  O_11 
REMARK    7  A    between atoms: C_10  and  C_12 
REMARK    8  A    between atoms: C_12  and  C_13 
ROOT
HETATM    1  C           1     -20.494  -8.112  -1.945  0.00  0.00     0.249 C 
HETATM    2  N           1     -21.130  -8.089  -3.158  0.00  0.00    -0.343 N 
HETATM    3  O           1     -19.343  -8.469  -1.874  0.00  0.00    -0.271 OA
HETATM    4  H           1     -22.095  -7.792  -3.218  0.00  0.00     0.163 HD
ENDROOT
BRANCH   1   5
HETATM    5  C           1     -21.233  -7.691  -0.699  0.00  0.00     0.278 C 
BRANCH   5   6
HETATM    6  C           1     -21.632  -8.927   0.096  0.00  0.00     0.021 C 
HETATM    7  C           1     -21.071  -8.827   1.509  0.00  0.00     0.012 C 
BRANCH   6   8
HETATM    8  C           1     -23.151  -9.020   0.160  0.00  0.00     0.002 C 
HETATM    9  C           1     -23.593 -10.414  -0.267  0.00  0.00     0.005 C 
ENDBRANCH   6   8
ENDBRANCH   5   6
BRANCH   5  10
HETATM   10  N           1     -22.465  -6.925  -1.083  0.00  0.00    -0.066 N 
HETATM   11  H           1     -23.211  -7.083  -0.369  0.00  0.00     0.275 HD
HETATM   12  H           1     -22.239  -5.906  -1.132  0.00  0.00     0.275 HD
HETATM   13  H           1     -22.801  -7.253  -2.016  0.00  0.00     0.275 HD
ENDBRANCH   5  10
ENDBRANCH   1   5
BRANCH   2  14
HETATM   14  C           1     -20.419  -8.494  -4.356  0.00  0.00     0.214 C 
BRANCH  14  15
HETATM   15  C           1     -20.847  -9.902  -4.748  0.00  0.00     0.147 C 
HETATM   16  C           1     -22.098 -10.288  -3.970  0.00  0.00     0.042 C 
BRANCH  15  17
HETATM   17  O           1     -21.121  -9.940  -6.123  0.00  0.00    -0.393 OA
HETATM   18  H           1     -21.952  -9.514  -6.248  0.00  0.00     0.210 HD
ENDBRANCH  15  17
ENDBRANCH  14  15
BRANCH  14  19
HETATM   19  C           1     -20.743  -7.539  -5.478  0.00  0.00     0.199 C 
HETATM   20  O           1     -19.868  -7.246  -6.322  0.00  0.00    -0.646 OA
HETATM   21  O           1     -21.886  -7.040  -5.563  0.00  0.00    -0.646 OA
ENDBRANCH  14  19
ENDBRANCH   2  14
TORSDOF 8
ENDMDL
MODEL 9
REMARK VINA RESULT:      -4.9     18.240     19.623
REMARK  8 active torsions:
REMARK  status: ('A' for Active; 'I' for Inactive)
REMARK       I    between atoms: C_1  and  N_4 
REMARK    1  A    between atoms: C_1  and  C_3 
REMARK    2  A    between atoms: C_3  and  C_16 
REMARK    3  A    between atoms: C_3  and  N_8 
REMARK    4  A    between atoms: N_4  and  C_12 
REMARK    5  A    between atoms: C_6  and  C_16 
REMARK    6  A    between atoms: C_10  and  O_11 
REMARK    7  A    between atoms: C_10  and  C_12 
REMARK    8  A    between atoms: C_12  and  C_13 
ROOT
HETATM    1  C           1     -21.032  -7.887  -1.901  0.00  0.00     0.249 C 
HETATM    2  N           1     -20.410  -8.867  -2.626  0.00  0.00    -0.343 N 
HETATM    3  O           1     -21.206  -6.795  -2.386  0.00  0.00    -0.271 OA
HETATM    4  H           1     -20.263  -9.783  -2.219  0.00  0.00     0.163 HD
ENDROOT
BRANCH   1   5
HETATM    5  C           1     -21.502  -8.171  -0.495  0.00  0.00     0.278 C 
BRANCH   5   6
HETATM    6  C           1     -21.888  -9.639  -0.376  0.00  0.00     0.021 C 
HETATM    7  C           1     -21.077 -10.290   0.736  0.00  0.00     0.012 C 
BRANCH   6   8
HETATM    8  C           1     -23.372  -9.748  -0.052  0.00  0.00     0.002 C 
HETATM    9  C           1     -23.825 -11.192  -0.223  0.00  0.00     0.005 C 
ENDBRANCH   6   8
ENDBRANCH   5   6
BRANCH   5  10
HETATM   10  N           1     -22.693  -7.314  -0.184  0.00  0.00    -0.066 N 
HETATM   11  H           1     -22.844  -7.289   0.850  0.00  0.00     0.275 HD
HETATM   12  H           1     -22.525  -6.344  -0.534  0.00  0.00     0.275 HD
HETATM   13  H           1     -23.539  -7.712  -0.650  0.00  0.00     0.275 HD
ENDBRANCH   5  10
ENDBRANCH   1   5
BRANCH   2  14
HETATM   14  C           1     -19.959  -8.594  -3.977  0.00  0.00     0.214 C 
BRANCH  14  15
HETATM   15  C           1     -18.580  -9.208  -4.186  0.00  0.00     0.147 C 
HETATM   16  C           1     -18.114  -9.859  -2.890  0.00  0.00     0.042 C 
BRANCH  15  17
HETATM   17  O           1     -18.650 -10.177  -5.197  0.00  0.00    -0.393 OA
HETATM   18  H           1     -19.547 -10.213  -5.480  0.00  0.00     0.210 HD
ENDBRANCH  15  17
ENDBRANCH  14  15
BRANCH  14  19
HETATM   19  C           1     -20.931  -9.195  -4.962  0.00  0.00     0.199 C 
HETATM   20  O           1     -21.141  -8.629  -6.057  0.00  0.00    -0.646 OA
HETATM   21  O           1     -21.527 -10.257  -4.683  0.00  0.00    -0.646 OA
ENDBRANCH  14  19
ENDBRANCH   2  14
TORSDOF 8
ENDMDL
