MODEL 1
REMARK VINA RESULT:      -6.7      0.000      0.000
REMARK  8 active torsions:
REMARK  status: ('A' for Active; 'I' for Inactive)
REMARK    1  A    between atoms: C_4  and  C_16 
REMARK    2  A    between atoms: N_6  and  C_16 
REMARK       I    between atoms: N_6  and  C_13 
REMARK    3  A    between atoms: C_10  and  C_11 
REMARK    4  A    between atoms: C_11  and  C_12 
REMARK    5  A    between atoms: C_12  and  C_13 
REMARK    6  A    between atoms: C_12  and  N_25 
REMARK    7  A    between atoms: C_16  and  C_17 
REMARK    8  A    between atoms: C_17  and  C_18 
ROOT
HETATM    1  N           1     -28.595  -7.280 -16.804  0.00  0.00    -0.344 N 
HETATM    2  H           1     -28.582  -7.792 -15.930  0.00  0.00     0.163 HD
HETATM    3  C           1     -29.773  -7.104 -17.478  0.00  0.00     0.249 C 
HETATM    4  O           1     -30.128  -7.917 -18.298  0.00  0.00    -0.271 OA
ENDROOT
BRANCH   1   5
HETATM    5  C           1     -27.364  -6.734 -17.342  0.00  0.00     0.191 C 
BRANCH   5   6
HETATM    6  C           1     -26.873  -5.623 -16.445  0.00  0.00     0.197 C 
HETATM    7  O           1     -27.645  -4.697 -16.118  0.00  0.00    -0.646 OA
HETATM    8  O           1     -25.693  -5.630 -16.031  0.00  0.00    -0.646 OA
ENDBRANCH   5   6
BRANCH   5   9
HETATM    9  C           1     -27.621  -6.183 -18.738  0.00  0.00     0.094 C 
BRANCH   9  10
HETATM   10  C           1     -26.739  -6.886 -19.723  0.00  0.00     0.028 A 
HETATM   11  C           1     -25.399  -6.632 -19.892  0.00  0.00     0.114 A 
HETATM   12  N           1     -24.998  -7.488 -20.880  0.00  0.00    -0.360 N 
HETATM   13  H           1     -24.027  -7.573 -21.272  0.00  0.00     0.166 HD
HETATM   14  C           1     -26.090  -8.212 -21.264  0.00  0.00     0.180 A 
HETATM   15  N           1     -27.158  -7.869 -20.581  0.00  0.00    -0.354 N 
ATOM     16  HN          1     -28.099  -8.253 -20.670  1.00  0.00     0.166 HD
ENDBRANCH   9  10
ENDBRANCH   5   9
ENDBRANCH   1   5
BRANCH   3  17
HETATM   17  C           1     -30.631  -5.895 -17.194  0.00  0.00     0.284 C 
BRANCH  17  18
HETATM   18  C           1     -30.236  -4.760 -18.129  0.00  0.00     0.155 C 
BRANCH  18  19
HETATM   19  C           1     -30.796  -3.459 -17.608  0.00  0.00     0.175 C 
HETATM   20  O           1     -30.021  -2.544 -17.254  0.00  0.00    -0.648 OA
HETATM   21  O           1     -32.032  -3.297 -17.529  0.00  0.00    -0.648 OA
ENDBRANCH  18  19
ENDBRANCH  17  18
BRANCH  17  22
HETATM   22  N           1     -30.429  -5.463 -15.772  0.00  0.00    -0.066 N 
HETATM   23  H           1     -31.209  -5.829 -15.181  0.00  0.00     0.275 HD
HETATM   24  H           1     -29.519  -5.840 -15.419  0.00  0.00     0.275 HD
HETATM   25  H           1     -30.415  -4.419 -15.723  0.00  0.00     0.275 HD
ENDBRANCH  17  22
ENDBRANCH   3  17
TORSDOF 8
ENDMDL
MODEL 2
REMARK VINA RESULT:      -6.7      1.558      2.075
REMARK  8 active torsions:
REMARK  status: ('A' for Active; 'I' for Inactive)
REMARK    1  A    between atoms: C_4  and  C_16 
REMARK    2  A    between atoms: N_6  and  C_16 
REMARK       I    between atoms: N_6  and  C_13 
REMARK    3  A    between atoms: C_10  and  C_11 
REMARK    4  A    between atoms: C_11  and  C_12 
REMARK    5  A    between atoms: C_12  and  C_13 
REMARK    6  A    between atoms: C_12  and  N_25 
REMARK    7  A    between atoms: C_16  and  C_17 
REMARK    8  A    between atoms: C_17  and  C_18 
ROOT
HETATM    1  N           1     -27.026  -5.619 -16.929  0.00  0.00    -0.344 N 
HETATM    2  H           1     -26.702  -4.663 -16.997  0.00  0.00     0.163 HD
HETATM    3  C           1     -28.308  -5.880 -16.526  0.00  0.00     0.249 C 
HETATM    4  O           1     -28.553  -6.033 -15.353  0.00  0.00    -0.271 OA
ENDROOT
BRANCH   1   5
HETATM    5  C           1     -26.133  -6.713 -17.259  0.00  0.00     0.191 C 
BRANCH   5   6
HETATM    6  C           1     -25.273  -7.038 -16.063  0.00  0.00     0.197 C 
HETATM    7  O           1     -24.575  -8.075 -16.059  0.00  0.00    -0.646 OA
HETATM    8  O           1     -25.258  -6.271 -15.076  0.00  0.00    -0.646 OA
ENDBRANCH   5   6
BRANCH   5   9
HETATM    9  C           1     -25.245  -6.307 -18.428  0.00  0.00     0.094 C 
BRANCH   9  10
HETATM   10  C           1     -25.592  -7.131 -19.629  0.00  0.00     0.028 A 
HETATM   11  C           1     -24.673  -7.731 -20.456  0.00  0.00     0.114 A 
HETATM   12  N           1     -25.418  -8.371 -21.408  0.00  0.00    -0.360 N 
HETATM   13  H           1     -25.046  -8.938 -22.211  0.00  0.00     0.166 HD
HETATM   14  C           1     -26.733  -8.136 -21.127  0.00  0.00     0.180 A 
HETATM   15  N           1     -26.869  -7.388 -20.056  0.00  0.00    -0.354 N 
ATOM     16  HN          1     -27.739  -7.067 -19.631  1.00  0.00     0.166 HD
ENDBRANCH   9  10
ENDBRANCH   5   9
ENDBRANCH   1   5
BRANCH   3  17
HETATM   17  C           1     -29.416  -5.976 -17.546  0.00  0.00     0.284 C 
BRANCH  17  18
HETATM   18  C           1     -29.380  -4.751 -18.451  0.00  0.00     0.155 C 
BRANCH  18  19
HETATM   19  C           1     -29.716  -3.519 -17.645  0.00  0.00     0.175 C 
HETATM   20  O           1     -30.911  -3.206 -17.453  0.00  0.00    -0.648 OA
HETATM   21  O           1     -28.800  -2.813 -17.171  0.00  0.00    -0.648 OA
ENDBRANCH  18  19
ENDBRANCH  17  18
BRANCH  17  22
HETATM   22  N           1     -30.739  -6.037 -16.842  0.00  0.00    -0.066 N 
HETATM   23  H           1     -31.231  -6.922 -17.099  0.00  0.00     0.275 HD
HETATM   24  H           1     -30.584  -6.013 -15.808  0.00  0.00     0.275 HD
HETATM   25  H           1     -31.323  -5.219 -17.126  0.00  0.00     0.275 HD
ENDBRANCH  17  22
ENDBRANCH   3  17
TORSDOF 8
ENDMDL
MODEL 3
REMARK VINA RESULT:      -6.5      2.304      5.754
REMARK  8 active torsions:
REMARK  status: ('A' for Active; 'I' for Inactive)
REMARK    1  A    between atoms: C_4  and  C_16 
REMARK    2  A    between atoms: N_6  and  C_16 
REMARK       I    between atoms: N_6  and  C_13 
REMARK    3  A    between atoms: C_10  and  C_11 
REMARK    4  A    between atoms: C_11  and  C_12 
REMARK    5  A    between atoms: C_12  and  C_13 
REMARK    6  A    between atoms: C_12  and  N_25 
REMARK    7  A    between atoms: C_16  and  C_17 
REMARK    8  A    between atoms: C_17  and  C_18 
ROOT
HETATM    1  N           1     -26.984  -6.877 -17.385  0.00  0.00    -0.344 N 
HETATM    2  H           1     -27.333  -7.824 -17.298  0.00  0.00     0.163 HD
HETATM    3  C           1     -25.646  -6.654 -17.567  0.00  0.00     0.249 C 
HETATM    4  O           1     -24.922  -6.509 -16.610  0.00  0.00    -0.271 OA
ENDROOT
BRANCH   1   5
HETATM    5  C           1     -27.903  -5.757 -17.319  0.00  0.00     0.191 C 
BRANCH   5   6
HETATM    6  C           1     -28.236  -5.466 -15.876  0.00  0.00     0.197 C 
HETATM    7  O           1     -27.976  -4.345 -15.389  0.00  0.00    -0.646 OA
HETATM    8  O           1     -28.772  -6.346 -15.168  0.00  0.00    -0.646 OA
ENDBRANCH   5   6
BRANCH   5   9
HETATM    9  C           1     -29.179  -6.103 -18.074  0.00  0.00     0.094 C 
BRANCH   9  10
HETATM   10  C           1     -30.271  -5.164 -17.667  0.00  0.00     0.028 A 
HETATM   11  C           1     -30.310  -3.827 -17.983  0.00  0.00     0.114 A 
HETATM   12  N           1     -31.465  -3.362 -17.418  0.00  0.00    -0.360 N 
HETATM   13  H           1     -31.823  -2.375 -17.457  0.00  0.00     0.166 HD
HETATM   14  C           1     -32.069  -4.415 -16.792  0.00  0.00     0.180 A 
HETATM   15  N           1     -31.369  -5.518 -16.926  0.00  0.00    -0.354 N 
ATOM     16  HN          1     -31.594  -6.443 -16.558  1.00  0.00     0.166 HD
ENDBRANCH   9  10
ENDBRANCH   5   9
ENDBRANCH   1   5
BRANCH   3  17
HETATM   17  C           1     -25.073  -6.591 -18.962  0.00  0.00     0.284 C 
BRANCH  17  18
HETATM   18  C           1     -26.196  -6.751 -19.980  0.00  0.00     0.155 C 
BRANCH  18  19
HETATM   19  C           1     -25.712  -7.595 -21.133  0.00  0.00     0.175 C 
HETATM   20  O           1     -26.287  -8.673 -21.402  0.00  0.00    -0.648 OA
HETATM   21  O           1     -24.738  -7.218 -21.820  0.00  0.00    -0.648 OA
ENDBRANCH  18  19
ENDBRANCH  17  18
BRANCH  17  22
HETATM   22  N           1     -24.075  -7.696 -19.142  0.00  0.00    -0.066 N 
HETATM   23  H           1     -24.248  -8.442 -18.431  0.00  0.00     0.275 HD
HETATM   24  H           1     -24.174  -8.101 -20.101  0.00  0.00     0.275 HD
HETATM   25  H           1     -23.109  -7.317 -19.022  0.00  0.00     0.275 HD
ENDBRANCH  17  22
ENDBRANCH   3  17
TORSDOF 8
ENDMDL
MODEL 4
REMARK VINA RESULT:      -6.4      2.434      6.217
REMARK  8 active torsions:
REMARK  status: ('A' for Active; 'I' for Inactive)
REMARK    1  A    between atoms: C_4  and  C_16 
REMARK    2  A    between atoms: N_6  and  C_16 
REMARK       I    between atoms: N_6  and  C_13 
REMARK    3  A    between atoms: C_10  and  C_11 
REMARK    4  A    between atoms: C_11  and  C_12 
REMARK    5  A    between atoms: C_12  and  C_13 
REMARK    6  A    between atoms: C_12  and  N_25 
REMARK    7  A    between atoms: C_16  and  C_17 
REMARK    8  A    between atoms: C_17  and  C_18 
ROOT
HETATM    1  N           1     -28.925  -6.106 -15.690  0.00  0.00    -0.344 N 
HETATM    2  H           1     -28.959  -6.355 -14.709  0.00  0.00     0.163 HD
HETATM    3  C           1     -27.763  -5.631 -16.236  0.00  0.00     0.249 C 
HETATM    4  O           1     -27.539  -4.444 -16.240  0.00  0.00    -0.271 OA
ENDROOT
BRANCH   1   5
HETATM    5  C           1     -30.107  -6.255 -16.517  0.00  0.00     0.191 C 
BRANCH   5   6
HETATM    6  C           1     -29.960  -7.478 -17.389  0.00  0.00     0.197 C 
HETATM    7  O           1     -30.326  -7.440 -18.584  0.00  0.00    -0.646 OA
HETATM    8  O           1     -29.472  -8.527 -16.917  0.00  0.00    -0.646 OA
ENDBRANCH   5   6
BRANCH   5   9
HETATM    9  C           1     -30.270  -5.021 -17.395  0.00  0.00     0.094 C 
BRANCH   9  10
HETATM   10  C           1     -31.613  -4.407 -17.149  0.00  0.00     0.028 A 
HETATM   11  C           1     -32.063  -3.250 -17.740  0.00  0.00     0.114 A 
HETATM   12  N           1     -33.319  -3.060 -17.236  0.00  0.00    -0.360 N 
HETATM   13  H           1     -33.969  -2.267 -17.467  0.00  0.00     0.166 HD
HETATM   14  C           1     -33.577  -4.089 -16.375  0.00  0.00     0.180 A 
HETATM   15  N           1     -32.561  -4.919 -16.302  0.00  0.00    -0.354 N 
ATOM     16  HN          1     -32.493  -5.765 -15.737  1.00  0.00     0.166 HD
ENDBRANCH   9  10
ENDBRANCH   5   9
ENDBRANCH   1   5
BRANCH   3  17
HETATM   17  C           1     -26.762  -6.590 -16.833  0.00  0.00     0.284 C 
BRANCH  17  18
HETATM   18  C           1     -25.393  -6.348 -16.210  0.00  0.00     0.155 C 
BRANCH  18  19
HETATM   19  C           1     -24.395  -7.318 -16.794  0.00  0.00     0.175 C 
HETATM   20  O           1     -23.785  -7.029 -17.846  0.00  0.00    -0.648 OA
HETATM   21  O           1     -24.180  -8.411 -16.226  0.00  0.00    -0.648 OA
ENDBRANCH  18  19
ENDBRANCH  17  18
BRANCH  17  22
HETATM   22  N           1     -26.682  -6.370 -18.314  0.00  0.00    -0.066 N 
HETATM   23  H           1     -27.646  -6.278 -18.706  0.00  0.00     0.275 HD
HETATM   24  H           1     -26.143  -5.495 -18.508  0.00  0.00     0.275 HD
HETATM   25  H           1     -26.200  -7.182 -18.762  0.00  0.00     0.275 HD
ENDBRANCH  17  22
ENDBRANCH   3  17
TORSDOF 8
ENDMDL
MODEL 5
REMARK VINA RESULT:      -6.4     11.205     13.599
REMARK  8 active torsions:
REMARK  status: ('A' for Active; 'I' for Inactive)
REMARK    1  A    between atoms: C_4  and  C_16 
REMARK    2  A    between atoms: N_6  and  C_16 
REMARK       I    between atoms: N_6  and  C_13 
REMARK    3  A    between atoms: C_10  and  C_11 
REMARK    4  A    between atoms: C_11  and  C_12 
REMARK    5  A    between atoms: C_12  and  C_13 
REMARK    6  A    between atoms: C_12  and  N_25 
REMARK    7  A    between atoms: C_16  and  C_17 
REMARK    8  A    between atoms: C_17  and  C_18 
ROOT
HETATM    1  N           1     -20.408  -5.956  -7.180  0.00  0.00    -0.344 N 
HETATM    2  H           1     -19.401  -5.891  -7.101  0.00  0.00     0.163 HD
HETATM    3  C           1     -21.124  -6.652  -6.243  0.00  0.00     0.249 C 
HETATM    4  O           1     -21.339  -7.830  -6.399  0.00  0.00    -0.271 OA
ENDROOT
BRANCH   1   5
HETATM    5  C           1     -21.092  -5.313  -8.284  0.00  0.00     0.191 C 
BRANCH   5   6
HETATM    6  C           1     -20.109  -4.478  -9.067  0.00  0.00     0.197 C 
HETATM    7  O           1     -19.455  -3.581  -8.493  0.00  0.00    -0.646 OA
HETATM    8  O           1     -19.949  -4.682 -10.290  0.00  0.00    -0.646 OA
ENDBRANCH   5   6
BRANCH   5   9
HETATM    9  C           1     -22.200  -4.418  -7.743  0.00  0.00     0.094 C 
BRANCH   9  10
HETATM   10  C           1     -23.229  -4.197  -8.808  0.00  0.00     0.028 A 
HETATM   11  C           1     -23.316  -4.921  -9.972  0.00  0.00     0.114 A 
HETATM   12  N           1     -24.383  -4.389 -10.641  0.00  0.00    -0.360 N 
HETATM   13  H           1     -24.746  -4.698 -11.578  0.00  0.00     0.166 HD
HETATM   14  C           1     -24.890  -3.381  -9.872  0.00  0.00     0.180 A 
HETATM   15  N           1     -24.211  -3.242  -8.756  0.00  0.00    -0.354 N 
ATOM     16  HN          1     -24.379  -2.568  -8.009  1.00  0.00     0.166 HD
ENDBRANCH   9  10
ENDBRANCH   5   9
ENDBRANCH   1   5
BRANCH   3  17
HETATM   17  C           1     -21.644  -5.946  -5.014  0.00  0.00     0.284 C 
BRANCH  17  18
HETATM   18  C           1     -20.795  -6.332  -3.809  0.00  0.00     0.155 C 
BRANCH  18  19
HETATM   19  C           1     -21.696  -6.734  -2.666  0.00  0.00     0.175 C 
HETATM   20  O           1     -22.355  -5.864  -2.056  0.00  0.00    -0.648 OA
HETATM   21  O           1     -21.782  -7.934  -2.330  0.00  0.00    -0.648 OA
ENDBRANCH  18  19
ENDBRANCH  17  18
BRANCH  17  22
HETATM   22  N           1     -23.068  -6.351  -4.771  0.00  0.00    -0.066 N 
HETATM   23  H           1     -23.103  -7.061  -4.005  0.00  0.00     0.275 HD
HETATM   24  H           1     -23.626  -5.511  -4.492  0.00  0.00     0.275 HD
HETATM   25  H           1     -23.468  -6.761  -5.645  0.00  0.00     0.275 HD
ENDBRANCH  17  22
ENDBRANCH   3  17
TORSDOF 8
ENDMDL
MODEL 6
REMARK VINA RESULT:      -6.0      2.545      5.544
REMARK  8 active torsions:
REMARK  status: ('A' for Active; 'I' for Inactive)
REMARK    1  A    between atoms: C_4  and  C_16 
REMARK    2  A    between atoms: N_6  and  C_16 
REMARK       I    between atoms: N_6  and  C_13 
REMARK    3  A    between atoms: C_10  and  C_11 
REMARK    4  A    between atoms: C_11  and  C_12 
REMARK    5  A    between atoms: C_12  and  C_13 
REMARK    6  A    between atoms: C_12  and  N_25 
REMARK    7  A    between atoms: C_16  and  C_17 
REMARK    8  A    between atoms: C_17  and  C_18 
ROOT
HETATM    1  N           1     -27.160  -5.468 -17.631  0.00  0.00    -0.344 N 
HETATM    2  H           1     -27.407  -4.500 -17.798  0.00  0.00     0.163 HD
HETATM    3  C           1     -26.808  -6.276 -18.678  0.00  0.00     0.249 C 
HETATM    4  O           1     -27.655  -6.909 -19.263  0.00  0.00    -0.271 OA
ENDROOT
BRANCH   1   5
HETATM    5  C           1     -27.178  -5.997 -16.281  0.00  0.00     0.191 C 
BRANCH   5   6
HETATM    6  C           1     -25.793  -6.466 -15.907  0.00  0.00     0.197 C 
HETATM    7  O           1     -24.845  -5.653 -15.876  0.00  0.00    -0.646 OA
HETATM    8  O           1     -25.594  -7.669 -15.628  0.00  0.00    -0.646 OA
ENDBRANCH   5   6
BRANCH   5   9
HETATM    9  C           1     -28.147  -7.170 -16.209  0.00  0.00     0.094 C 
BRANCH   9  10
HETATM   10  C           1     -29.524  -6.702 -16.566  0.00  0.00     0.028 A 
HETATM   11  C           1     -30.133  -5.590 -16.035  0.00  0.00     0.114 A 
HETATM   12  N           1     -31.362  -5.540 -16.633  0.00  0.00    -0.360 N 
HETATM   13  H           1     -32.105  -4.816 -16.467  0.00  0.00     0.166 HD
HETATM   14  C           1     -31.448  -6.604 -17.485  0.00  0.00     0.180 A 
HETATM   15  N           1     -30.350  -7.324 -17.465  0.00  0.00    -0.354 N 
ATOM     16  HN          1     -30.154  -8.168 -18.004  1.00  0.00     0.166 HD
ENDBRANCH   9  10
ENDBRANCH   5   9
ENDBRANCH   1   5
BRANCH   3  17
HETATM   17  C           1     -25.364  -6.374 -19.104  0.00  0.00     0.284 C 
BRANCH  17  18
HETATM   18  C           1     -25.283  -6.404 -20.625  0.00  0.00     0.155 C 
BRANCH  18  19
HETATM   19  C           1     -24.973  -7.808 -21.085  0.00  0.00     0.175 C 
HETATM   20  O           1     -25.900  -8.567 -21.440  0.00  0.00    -0.648 OA
HETATM   21  O           1     -23.790  -8.211 -21.110  0.00  0.00    -0.648 OA
ENDBRANCH  18  19
ENDBRANCH  17  18
BRANCH  17  22
HETATM   22  N           1     -24.764  -7.631 -18.548  0.00  0.00    -0.066 N 
HETATM   23  H           1     -25.399  -8.437 -18.744  0.00  0.00     0.275 HD
HETATM   24  H           1     -23.836  -7.803 -18.998  0.00  0.00     0.275 HD
HETATM   25  H           1     -24.638  -7.530 -17.516  0.00  0.00     0.275 HD
ENDBRANCH  17  22
ENDBRANCH   3  17
TORSDOF 8
ENDMDL
MODEL 7
REMARK VINA RESULT:      -6.0     11.282     13.669
REMARK  8 active torsions:
REMARK  status: ('A' for Active; 'I' for Inactive)
REMARK    1  A    between atoms: C_4  and  C_16 
REMARK    2  A    between atoms: N_6  and  C_16 
REMARK       I    between atoms: N_6  and  C_13 
REMARK    3  A    between atoms: C_10  and  C_11 
REMARK    4  A    between atoms: C_11  and  C_12 
REMARK    5  A    between atoms: C_12  and  C_13 
REMARK    6  A    between atoms: C_12  and  N_25 
REMARK    7  A    between atoms: C_16  and  C_17 
REMARK    8  A    between atoms: C_17  and  C_18 
ROOT
HETATM    1  N           1     -22.147  -4.931  -6.379  0.00  0.00    -0.344 N 
HETATM    2  H           1     -22.931  -4.335  -6.140  0.00  0.00     0.163 HD
HETATM    3  C           1     -21.488  -5.622  -5.399  0.00  0.00     0.249 C 
HETATM    4  O           1     -20.544  -5.120  -4.836  0.00  0.00    -0.271 OA
ENDROOT
BRANCH   1   5
HETATM    5  C           1     -21.725  -5.052  -7.761  0.00  0.00     0.191 C 
BRANCH   5   6
HETATM    6  C           1     -20.218  -5.106  -7.823  0.00  0.00     0.197 C 
HETATM    7  O           1     -19.557  -4.047  -7.890  0.00  0.00    -0.646 OA
HETATM    8  O           1     -19.631  -6.210  -7.809  0.00  0.00    -0.646 OA
ENDBRANCH   5   6
BRANCH   5   9
HETATM    9  C           1     -22.223  -3.848  -8.551  0.00  0.00     0.094 C 
BRANCH   9  10
HETATM   10  C           1     -22.503  -4.258  -9.963  0.00  0.00     0.028 A 
HETATM   11  C           1     -21.625  -4.106 -11.010  0.00  0.00     0.114 A 
HETATM   12  N           1     -22.282  -4.607 -12.099  0.00  0.00    -0.360 N 
HETATM   13  H           1     -21.911  -4.655 -13.081  0.00  0.00     0.166 HD
HETATM   14  C           1     -23.509  -5.034 -11.678  0.00  0.00     0.180 A 
HETATM   15  N           1     -23.670  -4.835 -10.390  0.00  0.00    -0.354 N 
ATOM     16  HN          1     -24.490  -5.062  -9.827  1.00  0.00     0.166 HD
ENDBRANCH   9  10
ENDBRANCH   5   9
ENDBRANCH   1   5
BRANCH   3  17
HETATM   17  C           1     -21.942  -7.010  -5.019  0.00  0.00     0.284 C 
BRANCH  17  18
HETATM   18  C           1     -21.652  -7.254  -3.544  0.00  0.00     0.155 C 
BRANCH  18  19
HETATM   19  C           1     -21.020  -8.614  -3.372  0.00  0.00     0.175 C 
HETATM   20  O           1     -21.737  -9.639  -3.367  0.00  0.00    -0.648 OA
HETATM   21  O           1     -19.783  -8.716  -3.235  0.00  0.00    -0.648 OA
ENDBRANCH  18  19
ENDBRANCH  17  18
BRANCH  17  22
HETATM   22  N           1     -21.202  -8.020  -5.846  0.00  0.00    -0.066 N 
HETATM   23  H           1     -20.194  -7.753  -5.905  0.00  0.00     0.275 HD
HETATM   24  H           1     -21.286  -8.963  -5.400  0.00  0.00     0.275 HD
HETATM   25  H           1     -21.611  -8.051  -6.807  0.00  0.00     0.275 HD
ENDBRANCH  17  22
ENDBRANCH   3  17
TORSDOF 8
ENDMDL
MODEL 8
REMARK VINA RESULT:      -5.9     13.797     15.857
REMARK  8 active torsions:
REMARK  status: ('A' for Active; 'I' for Inactive)
REMARK    1  A    between atoms: C_4  and  C_16 
REMARK    2  A    between atoms: N_6  and  C_16 
REMARK       I    between atoms: N_6  and  C_13 
REMARK    3  A    between atoms: C_10  and  C_11 
REMARK    4  A    between atoms: C_11  and  C_12 
REMARK    5  A    between atoms: C_12  and  C_13 
REMARK    6  A    between atoms: C_12  and  N_25 
REMARK    7  A    between atoms: C_16  and  C_17 
REMARK    8  A    between atoms: C_17  and  C_18 
ROOT
HETATM    1  N           1     -21.491  -6.346  -3.242  0.00  0.00    -0.344 N 
HETATM    2  H           1     -21.351  -5.548  -2.635  0.00  0.00     0.163 HD
HETATM    3  C           1     -21.694  -6.158  -4.583  0.00  0.00     0.249 C 
HETATM    4  O           1     -22.815  -6.018  -5.011  0.00  0.00    -0.271 OA
ENDROOT
BRANCH   1   5
HETATM    5  C           1     -21.477  -7.687  -2.692  0.00  0.00     0.191 C 
BRANCH   5   6
HETATM    6  C           1     -21.855  -7.635  -1.232  0.00  0.00     0.197 C 
HETATM    7  O           1     -22.703  -6.807  -0.835  0.00  0.00    -0.646 OA
HETATM    8  O           1     -21.320  -8.420  -0.419  0.00  0.00    -0.646 OA
ENDBRANCH   5   6
BRANCH   5   9
HETATM    9  C           1     -20.081  -8.279  -2.834  0.00  0.00     0.094 C 
BRANCH   9  10
HETATM   10  C           1     -20.050  -9.208  -4.007  0.00  0.00     0.028 A 
HETATM   11  C           1     -18.956  -9.408  -4.816  0.00  0.00     0.114 A 
HETATM   12  N           1     -19.366 -10.323  -5.746  0.00  0.00    -0.360 N 
HETATM   13  H           1     -18.787 -10.715  -6.531  0.00  0.00     0.166 HD
HETATM   14  C           1     -20.667 -10.635  -5.470  0.00  0.00     0.180 A 
HETATM   15  N           1     -21.107  -9.975  -4.423  0.00  0.00    -0.354 N 
ATOM     16  HN          1     -22.037 -10.023  -4.007  1.00  0.00     0.166 HD
ENDBRANCH   9  10
ENDBRANCH   5   9
ENDBRANCH   1   5
BRANCH   3  17
HETATM   17  C           1     -20.517  -6.125  -5.527  0.00  0.00     0.284 C 
BRANCH  17  18
HETATM   18  C           1     -20.078  -4.682  -5.741  0.00  0.00     0.155 C 
BRANCH  18  19
HETATM   19  C           1     -20.527  -4.215  -7.104  0.00  0.00     0.175 C 
HETATM   20  O           1     -19.736  -4.262  -8.071  0.00  0.00    -0.648 OA
HETATM   21  O           1     -21.688  -3.782  -7.266  0.00  0.00    -0.648 OA
ENDBRANCH  18  19
ENDBRANCH  17  18
BRANCH  17  22
HETATM   22  N           1     -20.915  -6.725  -6.843  0.00  0.00    -0.066 N 
HETATM   23  H           1     -21.918  -6.506  -7.037  0.00  0.00     0.275 HD
HETATM   24  H           1     -20.319  -6.324  -7.603  0.00  0.00     0.275 HD
HETATM   25  H           1     -20.785  -7.761  -6.807  0.00  0.00     0.275 HD
ENDBRANCH  17  22
ENDBRANCH   3  17
TORSDOF 8
ENDMDL
MODEL 9
REMARK VINA RESULT:      -5.8     15.587     17.837
REMARK  8 active torsions:
REMARK  status: ('A' for Active; 'I' for Inactive)
REMARK    1  A    between atoms: C_4  and  C_16 
REMARK    2  A    between atoms: N_6  and  C_16 
REMARK       I    between atoms: N_6  and  C_13 
REMARK    3  A    between atoms: C_10  and  C_11 
REMARK    4  A    between atoms: C_11  and  C_12 
REMARK    5  A    between atoms: C_12  and  C_13 
REMARK    6  A    between atoms: C_12  and  N_25 
REMARK    7  A    between atoms: C_16  and  C_17 
REMARK    8  A    between atoms: C_17  and  C_18 
ROOT
HETATM    1  N           1     -21.149  -7.726  -1.959  0.00  0.00    -0.344 N 
HETATM    2  H           1     -20.149  -7.747  -1.802  0.00  0.00     0.163 HD
HETATM    3  C           1     -21.684  -6.837  -2.851  0.00  0.00     0.249 C 
HETATM    4  O           1     -22.024  -5.739  -2.480  0.00  0.00    -0.271 OA
ENDROOT
BRANCH   1   5
HETATM    5  C           1     -22.015  -8.639  -1.237  0.00  0.00     0.191 C 
BRANCH   5   6
HETATM    6  C           1     -22.350  -8.053   0.113  0.00  0.00     0.197 C 
HETATM    7  O           1     -23.461  -7.513   0.301  0.00  0.00    -0.646 OA
HETATM    8  O           1     -21.515  -8.106   1.042  0.00  0.00    -0.646 OA
ENDBRANCH   5   6
BRANCH   5   9
HETATM    9  C           1     -21.302  -9.972  -1.049  0.00  0.00     0.094 C 
BRANCH   9  10
HETATM   10  C           1     -22.306 -11.033  -0.722  0.00  0.00     0.028 A 
HETATM   11  C           1     -23.402 -11.336  -1.494  0.00  0.00     0.114 A 
HETATM   12  N           1     -24.033 -12.351  -0.830  0.00  0.00    -0.360 N 
HETATM   13  H           1     -24.915 -12.837  -1.131  0.00  0.00     0.166 HD
HETATM   14  C           1     -23.310 -12.617   0.298  0.00  0.00     0.180 A 
HETATM   15  N           1     -22.259 -11.834   0.389  0.00  0.00    -0.354 N 
ATOM     16  HN          1     -21.557 -11.825   1.129  1.00  0.00     0.166 HD
ENDBRANCH   9  10
ENDBRANCH   5   9
ENDBRANCH   1   5
BRANCH   3  17
HETATM   17  C           1     -21.846  -7.227  -4.300  0.00  0.00     0.284 C 
BRANCH  17  18
HETATM   18  C           1     -20.480  -7.265  -4.973  0.00  0.00     0.155 C 
BRANCH  18  19
HETATM   19  C           1     -20.386  -6.149  -5.985  0.00  0.00     0.175 C 
HETATM   20  O           1     -20.601  -6.383  -7.194  0.00  0.00    -0.648 OA
HETATM   21  O           1     -20.093  -4.992  -5.615  0.00  0.00    -0.648 OA
ENDBRANCH  18  19
ENDBRANCH  17  18
BRANCH  17  22
HETATM   22  N           1     -22.716  -6.221  -4.993  0.00  0.00    -0.066 N 
HETATM   23  H           1     -22.798  -6.468  -6.005  0.00  0.00     0.275 HD
HETATM   24  H           1     -23.666  -6.222  -4.556  0.00  0.00     0.275 HD
HETATM   25  H           1     -22.291  -5.270  -4.901  0.00  0.00     0.275 HD
ENDBRANCH  17  22
ENDBRANCH   3  17
TORSDOF 8
ENDMDL
