MODEL 1
REMARK VINA RESULT:      -5.4      0.000      0.000
REMARK  9 active torsions:
REMARK  status: ('A' for Active; 'I' for Inactive)
REMARK    1  A    between atoms: S_1  and  C_6 
REMARK    2  A    between atoms: N_5  and  C_9 
REMARK    3  A    between atoms: C_6  and  C_8 
REMARK    4  A    between atoms: C_8  and  C_9 
REMARK    5  A    between atoms: C_9  and  C_10 
REMARK       I    between atoms: C_10  and  N_18 
REMARK    6  A    between atoms: C_15  and  C_20 
REMARK    7  A    between atoms: S_17  and  C_19 
REMARK    8  A    between atoms: N_18  and  C_20 
REMARK    9  A    between atoms: C_19  and  C_20 
ROOT
HETATM    1  C           1     -34.370  -2.388 -12.339  0.00  0.00     0.249 C 
HETATM    2  O           1     -34.036  -1.929 -11.273  0.00  0.00    -0.271 OA
HETATM    3  H           1     -35.302  -1.985 -14.143  0.00  0.00     0.163 HD
HETATM    4  N           1     -35.023  -1.601 -13.249  0.00  0.00    -0.344 N 
ENDROOT
BRANCH   1   5
HETATM    5  C           1     -34.068  -3.830 -12.667  0.00  0.00     0.275 C 
BRANCH   5   6
HETATM    6  N           1     -33.859  -3.972 -14.146  0.00  0.00    -0.066 N 
HETATM    7  H           1     -33.436  -3.095 -14.524  0.00  0.00     0.275 HD
HETATM    8  H           1     -34.778  -4.145 -14.612  0.00  0.00     0.275 HD
HETATM    9  H           1     -33.218  -4.776 -14.332  0.00  0.00     0.275 HD
ENDBRANCH   5   6
BRANCH   5  10
HETATM   10  C           1     -32.807  -4.266 -11.933  0.00  0.00     0.053 C 
BRANCH  10  11
HETATM   11  C           1     -33.037  -5.628 -11.292  0.00  0.00     0.076 C 
BRANCH  11  12
HETATM   12  S           1     -34.697  -5.678 -10.559  0.00  0.00    -0.173 SA
HETATM   13  C           1     -34.689  -7.451 -10.170  0.00  0.00     0.089 C 
ENDBRANCH  11  12
ENDBRANCH  10  11
ENDBRANCH   5  10
ENDBRANCH   1   5
BRANCH   4  14
HETATM   14  C           1     -35.313  -0.216 -12.933  0.00  0.00     0.194 C 
BRANCH  14  15
HETATM   15  C           1     -36.645  -0.129 -12.230  0.00  0.00     0.197 C 
HETATM   16  O           1     -37.682  -0.526 -12.805  0.00  0.00    -0.646 OA
HETATM   17  O           1     -36.712   0.339 -11.073  0.00  0.00    -0.646 OA
ENDBRANCH  14  15
BRANCH  14  18
HETATM   18  C           1     -35.363   0.597 -14.220  0.00  0.00     0.106 C 
BRANCH  18  19
HETATM   19  S           1     -35.620  -0.516 -15.630  0.00  0.00    -0.180 SA
HETATM   20  H           1     -36.013   0.437 -16.493  0.00  0.00     0.101 HD
ENDBRANCH  18  19
ENDBRANCH  14  18
ENDBRANCH   4  14
TORSDOF 9
ENDMDL
MODEL 2
REMARK VINA RESULT:      -5.3     12.469     14.043
REMARK  9 active torsions:
REMARK  status: ('A' for Active; 'I' for Inactive)
REMARK    1  A    between atoms: S_1  and  C_6 
REMARK    2  A    between atoms: N_5  and  C_9 
REMARK    3  A    between atoms: C_6  and  C_8 
REMARK    4  A    between atoms: C_8  and  C_9 
REMARK    5  A    between atoms: C_9  and  C_10 
REMARK       I    between atoms: C_10  and  N_18 
REMARK    6  A    between atoms: C_15  and  C_20 
REMARK    7  A    between atoms: S_17  and  C_19 
REMARK    8  A    between atoms: N_18  and  C_20 
REMARK    9  A    between atoms: C_19  and  C_20 
ROOT
HETATM    1  C           1     -21.803  -4.671  -7.716  0.00  0.00     0.249 C 
HETATM    2  O           1     -21.804  -3.590  -7.174  0.00  0.00    -0.271 OA
HETATM    3  H           1     -22.302  -5.706  -9.437  0.00  0.00     0.163 HD
HETATM    4  N           1     -22.303  -4.802  -8.983  0.00  0.00    -0.344 N 
ENDROOT
BRANCH   1   5
HETATM    5  C           1     -21.249  -5.875  -6.994  0.00  0.00     0.275 C 
BRANCH   5   6
HETATM    6  N           1     -19.868  -6.168  -7.500  0.00  0.00    -0.066 N 
HETATM    7  H           1     -19.689  -5.613  -8.367  0.00  0.00     0.275 HD
HETATM    8  H           1     -19.784  -7.187  -7.714  0.00  0.00     0.275 HD
HETATM    9  H           1     -19.167  -5.907  -6.770  0.00  0.00     0.275 HD
ENDBRANCH   5   6
BRANCH   5  10
HETATM   10  C           1     -21.192  -5.591  -5.499  0.00  0.00     0.053 C 
BRANCH  10  11
HETATM   11  C           1     -22.147  -6.524  -4.768  0.00  0.00     0.076 C 
BRANCH  11  12
HETATM   12  S           1     -21.312  -7.231  -3.320  0.00  0.00    -0.173 SA
HETATM   13  C           1     -22.132  -6.183  -2.085  0.00  0.00     0.089 C 
ENDBRANCH  11  12
ENDBRANCH  10  11
ENDBRANCH   5  10
ENDBRANCH   1   5
BRANCH   4  14
HETATM   14  C           1     -22.835  -3.644  -9.676  0.00  0.00     0.194 C 
BRANCH  14  15
HETATM   15  C           1     -24.251  -3.928 -10.114  0.00  0.00     0.197 C 
HETATM   16  O           1     -24.787  -5.019  -9.826  0.00  0.00    -0.646 OA
HETATM   17  O           1     -24.887  -3.071 -10.766  0.00  0.00    -0.646 OA
ENDBRANCH  14  15
BRANCH  14  18
HETATM   18  C           1     -21.975  -3.345 -10.897  0.00  0.00     0.106 C 
BRANCH  18  19
HETATM   19  S           1     -20.475  -4.366 -10.845  0.00  0.00    -0.180 SA
HETATM   20  H           1     -20.914  -5.304 -11.703  0.00  0.00     0.101 HD
ENDBRANCH  18  19
ENDBRANCH  14  18
ENDBRANCH   4  14
TORSDOF 9
ENDMDL
MODEL 3
REMARK VINA RESULT:      -5.3     11.397     12.864
REMARK  9 active torsions:
REMARK  status: ('A' for Active; 'I' for Inactive)
REMARK    1  A    between atoms: S_1  and  C_6 
REMARK    2  A    between atoms: N_5  and  C_9 
REMARK    3  A    between atoms: C_6  and  C_8 
REMARK    4  A    between atoms: C_8  and  C_9 
REMARK    5  A    between atoms: C_9  and  C_10 
REMARK       I    between atoms: C_10  and  N_18 
REMARK    6  A    between atoms: C_15  and  C_20 
REMARK    7  A    between atoms: S_17  and  C_19 
REMARK    8  A    between atoms: N_18  and  C_20 
REMARK    9  A    between atoms: C_19  and  C_20 
ROOT
HETATM    1  C           1     -25.382  -6.826 -18.997  0.00  0.00     0.249 C 
HETATM    2  O           1     -24.328  -6.381 -18.609  0.00  0.00    -0.271 OA
HETATM    3  H           1     -27.392  -7.053 -18.560  0.00  0.00     0.163 HD
HETATM    4  N           1     -26.509  -6.681 -18.234  0.00  0.00    -0.344 N 
ENDROOT
BRANCH   1   5
HETATM    5  C           1     -25.454  -7.542 -20.324  0.00  0.00     0.275 C 
BRANCH   5   6
HETATM    6  N           1     -26.887  -7.847 -20.647  0.00  0.00    -0.066 N 
HETATM    7  H           1     -27.003  -7.917 -21.683  0.00  0.00     0.275 HD
HETATM    8  H           1     -27.498  -7.084 -20.278  0.00  0.00     0.275 HD
HETATM    9  H           1     -27.158  -8.754 -20.205  0.00  0.00     0.275 HD
ENDBRANCH   5   6
BRANCH   5  10
HETATM   10  C           1     -24.867  -6.656 -21.413  0.00  0.00     0.053 C 
BRANCH  10  11
HETATM   11  C           1     -24.066  -7.511 -22.387  0.00  0.00     0.076 C 
BRANCH  11  12
HETATM   12  S           1     -22.913  -8.563 -21.461  0.00  0.00    -0.173 SA
HETATM   13  C           1     -21.958  -9.125 -22.899  0.00  0.00     0.089 C 
ENDBRANCH  11  12
ENDBRANCH  10  11
ENDBRANCH   5  10
ENDBRANCH   1   5
BRANCH   4  14
HETATM   14  C           1     -26.438  -5.993 -16.960  0.00  0.00     0.194 C 
BRANCH  14  15
HETATM   15  C           1     -26.417  -7.006 -15.842  0.00  0.00     0.197 C 
HETATM   16  O           1     -27.490  -7.425 -15.358  0.00  0.00    -0.646 OA
HETATM   17  O           1     -25.325  -7.427 -15.401  0.00  0.00    -0.646 OA
ENDBRANCH  14  15
BRANCH  14  18
HETATM   18  C           1     -27.655  -5.089 -16.804  0.00  0.00     0.106 C 
BRANCH  18  19
HETATM   19  S           1     -28.772  -5.330 -18.214  0.00  0.00    -0.180 SA
HETATM   20  H           1     -28.361  -6.576 -18.508  0.00  0.00     0.101 HD
ENDBRANCH  18  19
ENDBRANCH  14  18
ENDBRANCH   4  14
TORSDOF 9
ENDMDL
MODEL 4
REMARK VINA RESULT:      -4.8     11.116     12.403
REMARK  9 active torsions:
REMARK  status: ('A' for Active; 'I' for Inactive)
REMARK    1  A    between atoms: S_1  and  C_6 
REMARK    2  A    between atoms: N_5  and  C_9 
REMARK    3  A    between atoms: C_6  and  C_8 
REMARK    4  A    between atoms: C_8  and  C_9 
REMARK    5  A    between atoms: C_9  and  C_10 
REMARK       I    between atoms: C_10  and  N_18 
REMARK    6  A    between atoms: C_15  and  C_20 
REMARK    7  A    between atoms: S_17  and  C_19 
REMARK    8  A    between atoms: N_18  and  C_20 
REMARK    9  A    between atoms: C_19  and  C_20 
ROOT
HETATM    1  C           1     -26.877  -6.546 -19.828  0.00  0.00     0.249 C 
HETATM    2  O           1     -27.208  -5.590 -20.488  0.00  0.00    -0.271 OA
HETATM    3  H           1     -27.082  -7.500 -18.002  0.00  0.00     0.163 HD
HETATM    4  N           1     -27.359  -6.699 -18.555  0.00  0.00    -0.344 N 
ENDROOT
BRANCH   1   5
HETATM    5  C           1     -25.933  -7.571 -20.406  0.00  0.00     0.275 C 
BRANCH   5   6
HETATM    6  N           1     -26.711  -8.564 -21.217  0.00  0.00    -0.066 N 
HETATM    7  H           1     -26.635  -8.322 -22.230  0.00  0.00     0.275 HD
HETATM    8  H           1     -27.714  -8.541 -20.927  0.00  0.00     0.275 HD
HETATM    9  H           1     -26.325  -9.522 -21.058  0.00  0.00     0.275 HD
ENDBRANCH   5   6
BRANCH   5  10
HETATM   10  C           1     -24.912  -6.877 -21.297  0.00  0.00     0.053 C 
BRANCH  10  11
HETATM   11  C           1     -24.228  -7.909 -22.185  0.00  0.00     0.076 C 
BRANCH  11  12
HETATM   12  S           1     -22.689  -8.460 -21.396  0.00  0.00    -0.173 SA
HETATM   13  C           1     -21.927  -9.138 -22.898  0.00  0.00     0.089 C 
ENDBRANCH  11  12
ENDBRANCH  10  11
ENDBRANCH   5  10
ENDBRANCH   1   5
BRANCH   4  14
HETATM   14  C           1     -28.266  -5.713 -18.000  0.00  0.00     0.194 C 
BRANCH  14  15
HETATM   15  C           1     -27.534  -4.873 -16.983  0.00  0.00     0.197 C 
HETATM   16  O           1     -26.457  -5.279 -16.496  0.00  0.00    -0.646 OA
HETATM   17  O           1     -28.006  -3.771 -16.627  0.00  0.00    -0.646 OA
ENDBRANCH  14  15
BRANCH  14  18
HETATM   18  C           1     -29.434  -6.423 -17.328  0.00  0.00     0.106 C 
BRANCH  18  19
HETATM   19  S           1     -30.133  -7.651 -18.467  0.00  0.00    -0.180 SA
HETATM   20  H           1     -29.285  -8.642 -18.143  0.00  0.00     0.101 HD
ENDBRANCH  18  19
ENDBRANCH  14  18
ENDBRANCH   4  14
TORSDOF 9
ENDMDL
MODEL 5
REMARK VINA RESULT:      -4.7      2.185      5.900
REMARK  9 active torsions:
REMARK  status: ('A' for Active; 'I' for Inactive)
REMARK    1  A    between atoms: S_1  and  C_6 
REMARK    2  A    between atoms: N_5  and  C_9 
REMARK    3  A    between atoms: C_6  and  C_8 
REMARK    4  A    between atoms: C_8  and  C_9 
REMARK    5  A    between atoms: C_9  and  C_10 
REMARK       I    between atoms: C_10  and  N_18 
REMARK    6  A    between atoms: C_15  and  C_20 
REMARK    7  A    between atoms: S_17  and  C_19 
REMARK    8  A    between atoms: N_18  and  C_20 
REMARK    9  A    between atoms: C_19  and  C_20 
ROOT
HETATM    1  C           1     -35.170  -2.130 -10.746  0.00  0.00     0.249 C 
HETATM    2  O           1     -34.116  -1.918 -10.195  0.00  0.00    -0.271 OA
HETATM    3  H           1     -36.281  -3.519 -11.804  0.00  0.00     0.163 HD
HETATM    4  N           1     -35.398  -3.341 -11.343  0.00  0.00    -0.344 N 
ENDROOT
BRANCH   1   5
HETATM    5  C           1     -36.234  -1.061 -10.774  0.00  0.00     0.275 C 
BRANCH   5   6
HETATM    6  N           1     -36.253  -0.340  -9.459  0.00  0.00    -0.066 N 
HETATM    7  H           1     -36.145   0.686  -9.622  0.00  0.00     0.275 HD
HETATM    8  H           1     -35.466  -0.684  -8.863  0.00  0.00     0.275 HD
HETATM    9  H           1     -37.161  -0.523  -8.975  0.00  0.00     0.275 HD
ENDBRANCH   5   6
BRANCH   5  10
HETATM   10  C           1     -35.931  -0.071 -11.891  0.00  0.00     0.053 C 
BRANCH  10  11
HETATM   11  C           1     -36.947  -0.243 -13.013  0.00  0.00     0.076 C 
BRANCH  11  12
HETATM   12  S           1     -36.163   0.144 -14.603  0.00  0.00    -0.173 SA
HETATM   13  C           1     -34.730   1.017 -13.911  0.00  0.00     0.089 C 
ENDBRANCH  11  12
ENDBRANCH  10  11
ENDBRANCH   5  10
ENDBRANCH   1   5
BRANCH   4  14
HETATM   14  C           1     -34.374  -4.367 -11.315  0.00  0.00     0.194 C 
BRANCH  14  15
HETATM   15  C           1     -33.359  -4.094 -12.397  0.00  0.00     0.197 C 
HETATM   16  O           1     -32.143  -4.277 -12.174  0.00  0.00    -0.646 OA
HETATM   17  O           1     -33.735  -3.685 -13.518  0.00  0.00    -0.646 OA
ENDBRANCH  14  15
BRANCH  14  18
HETATM   18  C           1     -35.016  -5.728 -11.551  0.00  0.00     0.106 C 
BRANCH  18  19
HETATM   19  S           1     -34.522  -6.869 -10.228  0.00  0.00    -0.180 SA
HETATM   20  H           1     -35.698  -6.847  -9.577  0.00  0.00     0.101 HD
ENDBRANCH  18  19
ENDBRANCH  14  18
ENDBRANCH   4  14
TORSDOF 9
ENDMDL
MODEL 6
REMARK VINA RESULT:      -4.4     13.766     16.243
REMARK  9 active torsions:
REMARK  status: ('A' for Active; 'I' for Inactive)
REMARK    1  A    between atoms: S_1  and  C_6 
REMARK    2  A    between atoms: N_5  and  C_9 
REMARK    3  A    between atoms: C_6  and  C_8 
REMARK    4  A    between atoms: C_8  and  C_9 
REMARK    5  A    between atoms: C_9  and  C_10 
REMARK       I    between atoms: C_10  and  N_18 
REMARK    6  A    between atoms: C_15  and  C_20 
REMARK    7  A    between atoms: S_17  and  C_19 
REMARK    8  A    between atoms: N_18  and  C_20 
REMARK    9  A    between atoms: C_19  and  C_20 
ROOT
HETATM    1  C           1     -21.801  -5.942  -5.645  0.00  0.00     0.249 C 
HETATM    2  O           1     -22.997  -5.971  -5.479  0.00  0.00    -0.271 OA
HETATM    3  H           1     -19.981  -6.703  -5.017  0.00  0.00     0.163 HD
HETATM    4  N           1     -20.983  -6.727  -4.877  0.00  0.00    -0.344 N 
ENDROOT
BRANCH   1   5
HETATM    5  C           1     -21.208  -5.041  -6.701  0.00  0.00     0.275 C 
BRANCH   5   6
HETATM    6  N           1     -20.317  -5.845  -7.600  0.00  0.00    -0.066 N 
HETATM    7  H           1     -19.328  -5.767  -7.273  0.00  0.00     0.275 HD
HETATM    8  H           1     -20.391  -5.483  -8.578  0.00  0.00     0.275 HD
HETATM    9  H           1     -20.613  -6.847  -7.578  0.00  0.00     0.275 HD
ENDBRANCH   5   6
BRANCH   5  10
HETATM   10  C           1     -22.327  -4.415  -7.523  0.00  0.00     0.053 C 
BRANCH  10  11
HETATM   11  C           1     -21.837  -4.171  -8.945  0.00  0.00     0.076 C 
BRANCH  11  12
HETATM   12  S           1     -23.140  -4.631 -10.121  0.00  0.00    -0.173 SA
HETATM   13  C           1     -24.344  -3.385  -9.581  0.00  0.00     0.089 C 
ENDBRANCH  11  12
ENDBRANCH  10  11
ENDBRANCH   5  10
ENDBRANCH   1   5
BRANCH   4  14
HETATM   14  C           1     -21.554  -7.592  -3.863  0.00  0.00     0.194 C 
BRANCH  14  15
HETATM   15  C           1     -21.469  -6.914  -2.518  0.00  0.00     0.197 C 
HETATM   16  O           1     -20.651  -7.320  -1.664  0.00  0.00    -0.646 OA
HETATM   17  O           1     -22.217  -5.947  -2.257  0.00  0.00    -0.646 OA
ENDBRANCH  14  15
BRANCH  14  18
HETATM   18  C           1     -20.779  -8.903  -3.822  0.00  0.00     0.106 C 
BRANCH  18  19
HETATM   19  S           1     -21.933 -10.281  -3.573  0.00  0.00    -0.180 SA
HETATM   20  H           1     -21.317 -10.788  -2.491  0.00  0.00     0.101 HD
ENDBRANCH  18  19
ENDBRANCH  14  18
ENDBRANCH   4  14
TORSDOF 9
ENDMDL
MODEL 7
REMARK VINA RESULT:      -4.4     15.170     16.579
REMARK  9 active torsions:
REMARK  status: ('A' for Active; 'I' for Inactive)
REMARK    1  A    between atoms: S_1  and  C_6 
REMARK    2  A    between atoms: N_5  and  C_9 
REMARK    3  A    between atoms: C_6  and  C_8 
REMARK    4  A    between atoms: C_8  and  C_9 
REMARK    5  A    between atoms: C_9  and  C_10 
REMARK       I    between atoms: C_10  and  N_18 
REMARK    6  A    between atoms: C_15  and  C_20 
REMARK    7  A    between atoms: S_17  and  C_19 
REMARK    8  A    between atoms: N_18  and  C_20 
REMARK    9  A    between atoms: C_19  and  C_20 
ROOT
HETATM    1  C           1     -21.423  -6.354  -4.285  0.00  0.00     0.249 C 
HETATM    2  O           1     -21.977  -7.281  -4.828  0.00  0.00    -0.271 OA
HETATM    3  H           1     -20.489  -4.530  -4.575  0.00  0.00     0.163 HD
HETATM    4  N           1     -20.952  -5.306  -5.030  0.00  0.00    -0.344 N 
ENDROOT
BRANCH   1   5
HETATM    5  C           1     -21.250  -6.353  -2.786  0.00  0.00     0.275 C 
BRANCH   5   6
HETATM    6  N           1     -22.508  -5.856  -2.139  0.00  0.00    -0.066 N 
HETATM    7  H           1     -22.768  -6.489  -1.349  0.00  0.00     0.275 HD
HETATM    8  H           1     -23.280  -5.843  -2.844  0.00  0.00     0.275 HD
HETATM    9  H           1     -22.355  -4.889  -1.774  0.00  0.00     0.275 HD
ENDBRANCH   5   6
BRANCH   5  10
HETATM   10  C           1     -20.957  -7.768  -2.306  0.00  0.00     0.053 C 
BRANCH  10  11
HETATM   11  C           1     -21.806  -8.073  -1.078  0.00  0.00     0.076 C 
BRANCH  11  12
HETATM   12  S           1     -22.126  -9.857  -0.993  0.00  0.00    -0.173 SA
HETATM   13  C           1     -21.927 -10.180  -2.767  0.00  0.00     0.089 C 
ENDBRANCH  11  12
ENDBRANCH  10  11
ENDBRANCH   5  10
ENDBRANCH   1   5
BRANCH   4  14
HETATM   14  C           1     -21.119  -5.309  -6.470  0.00  0.00     0.194 C 
BRANCH  14  15
HETATM   15  C           1     -19.796  -5.614  -7.129  0.00  0.00     0.197 C 
HETATM   16  O           1     -19.112  -4.687  -7.615  0.00  0.00    -0.646 OA
HETATM   17  O           1     -19.384  -6.793  -7.188  0.00  0.00    -0.646 OA
ENDBRANCH  14  15
BRANCH  14  18
HETATM   18  C           1     -21.610  -3.941  -6.925  0.00  0.00     0.106 C 
BRANCH  18  19
HETATM   19  S           1     -22.632  -4.128  -8.413  0.00  0.00    -0.180 SA
HETATM   20  H           1     -21.849  -3.388  -9.217  0.00  0.00     0.101 HD
ENDBRANCH  18  19
ENDBRANCH  14  18
ENDBRANCH   4  14
TORSDOF 9
ENDMDL
MODEL 8
REMARK VINA RESULT:      -4.2     15.202     17.684
REMARK  9 active torsions:
REMARK  status: ('A' for Active; 'I' for Inactive)
REMARK    1  A    between atoms: S_1  and  C_6 
REMARK    2  A    between atoms: N_5  and  C_9 
REMARK    3  A    between atoms: C_6  and  C_8 
REMARK    4  A    between atoms: C_8  and  C_9 
REMARK    5  A    between atoms: C_9  and  C_10 
REMARK       I    between atoms: C_10  and  N_18 
REMARK    6  A    between atoms: C_15  and  C_20 
REMARK    7  A    between atoms: S_17  and  C_19 
REMARK    8  A    between atoms: N_18  and  C_20 
REMARK    9  A    between atoms: C_19  and  C_20 
ROOT
HETATM    1  C           1     -21.172  -7.783  -4.047  0.00  0.00     0.249 C 
HETATM    2  O           1     -21.868  -8.690  -4.436  0.00  0.00    -0.271 OA
HETATM    3  H           1     -20.370  -6.853  -2.381  0.00  0.00     0.163 HD
HETATM    4  N           1     -20.954  -7.613  -2.706  0.00  0.00    -0.344 N 
ENDROOT
BRANCH   1   5
HETATM    5  C           1     -20.542  -6.837  -5.040  0.00  0.00     0.275 C 
BRANCH   5   6
HETATM    6  N           1     -19.818  -7.626  -6.090  0.00  0.00    -0.066 N 
HETATM    7  H           1     -19.471  -8.520  -5.677  0.00  0.00     0.275 HD
HETATM    8  H           1     -19.008  -7.070  -6.447  0.00  0.00     0.275 HD
HETATM    9  H           1     -20.469  -7.836  -6.880  0.00  0.00     0.275 HD
ENDBRANCH   5   6
BRANCH   5  10
HETATM   10  C           1     -21.626  -5.993  -5.698  0.00  0.00     0.053 C 
BRANCH  10  11
HETATM   11  C           1     -21.195  -5.625  -7.112  0.00  0.00     0.076 C 
BRANCH  11  12
HETATM   12  S           1     -21.426  -3.843  -7.370  0.00  0.00    -0.173 SA
HETATM   13  C           1     -22.713  -3.992  -8.641  0.00  0.00     0.089 C 
ENDBRANCH  11  12
ENDBRANCH  10  11
ENDBRANCH   5  10
ENDBRANCH   1   5
BRANCH   4  14
HETATM   14  C           1     -21.560  -8.522  -1.753  0.00  0.00     0.194 C 
BRANCH  14  15
HETATM   15  C           1     -22.126  -7.734  -0.597  0.00  0.00     0.197 C 
HETATM   16  O           1     -21.964  -8.139   0.574  0.00  0.00    -0.646 OA
HETATM   17  O           1     -22.758  -6.677  -0.812  0.00  0.00    -0.646 OA
ENDBRANCH  14  15
BRANCH  14  18
HETATM   18  C           1     -20.505  -9.493  -1.239  0.00  0.00     0.106 C 
BRANCH  18  19
HETATM   19  S           1     -21.034 -11.196  -1.575  0.00  0.00    -0.180 SA
HETATM   20  H           1     -20.998 -11.093  -2.915  0.00  0.00     0.101 HD
ENDBRANCH  18  19
ENDBRANCH  14  18
ENDBRANCH   4  14
TORSDOF 9
ENDMDL
MODEL 9
REMARK VINA RESULT:      -4.2     16.096     18.504
REMARK  9 active torsions:
REMARK  status: ('A' for Active; 'I' for Inactive)
REMARK    1  A    between atoms: S_1  and  C_6 
REMARK    2  A    between atoms: N_5  and  C_9 
REMARK    3  A    between atoms: C_6  and  C_8 
REMARK    4  A    between atoms: C_8  and  C_9 
REMARK    5  A    between atoms: C_9  and  C_10 
REMARK       I    between atoms: C_10  and  N_18 
REMARK    6  A    between atoms: C_15  and  C_20 
REMARK    7  A    between atoms: S_17  and  C_19 
REMARK    8  A    between atoms: N_18  and  C_20 
REMARK    9  A    between atoms: C_19  and  C_20 
ROOT
HETATM    1  C           1     -21.728  -7.690  -2.056  0.00  0.00     0.249 C 
HETATM    2  O           1     -22.169  -6.754  -1.432  0.00  0.00    -0.271 OA
HETATM    3  H           1     -21.435  -9.739  -2.061  0.00  0.00     0.163 HD
HETATM    4  N           1     -21.804  -8.955  -1.538  0.00  0.00    -0.344 N 
ENDROOT
BRANCH   1   5
HETATM    5  C           1     -21.092  -7.464  -3.406  0.00  0.00     0.275 C 
BRANCH   5   6
HETATM    6  N           1     -21.707  -8.394  -4.409  0.00  0.00    -0.066 N 
HETATM    7  H           1     -22.061  -9.248  -3.922  0.00  0.00     0.275 HD
HETATM    8  H           1     -20.988  -8.668  -5.116  0.00  0.00     0.275 HD
HETATM    9  H           1     -22.501  -7.914  -4.889  0.00  0.00     0.275 HD
ENDBRANCH   5   6
BRANCH   5  10
HETATM   10  C           1     -21.323  -6.023  -3.842  0.00  0.00     0.053 C 
BRANCH  10  11
HETATM   11  C           1     -21.406  -5.960  -5.362  0.00  0.00     0.076 C 
BRANCH  11  12
HETATM   12  S           1     -20.132  -4.831  -5.991  0.00  0.00    -0.173 SA
HETATM   13  C           1     -21.220  -3.908  -7.113  0.00  0.00     0.089 C 
ENDBRANCH  11  12
ENDBRANCH  10  11
ENDBRANCH   5  10
ENDBRANCH   1   5
BRANCH   4  14
HETATM   14  C           1     -22.415  -9.172  -0.241  0.00  0.00     0.194 C 
BRANCH  14  15
HETATM   15  C           1     -21.339  -9.431   0.784  0.00  0.00     0.197 C 
HETATM   16  O           1     -21.000  -8.526   1.577  0.00  0.00    -0.646 OA
HETATM   17  O           1     -20.787 -10.551   0.840  0.00  0.00    -0.646 OA
ENDBRANCH  14  15
BRANCH  14  18
HETATM   18  C           1     -23.348 -10.374  -0.315  0.00  0.00     0.106 C 
BRANCH  18  19
HETATM   19  S           1     -23.126 -11.215  -1.908  0.00  0.00    -0.180 SA
HETATM   20  H           1     -22.519 -12.306  -1.409  0.00  0.00     0.101 HD
ENDBRANCH  18  19
ENDBRANCH  14  18
ENDBRANCH   4  14
TORSDOF 9
ENDMDL
