MODEL 1
REMARK VINA RESULT:      -6.3      0.000      0.000
REMARK  8 active torsions:
REMARK  status: ('A' for Active; 'I' for Inactive)
REMARK    1  A    between atoms: C_1  and  C_2 
REMARK    2  A    between atoms: C_1  and  C_10 
REMARK    3  A    between atoms: C_1  and  N_16 
REMARK    4  A    between atoms: C_2  and  O_3 
REMARK    5  A    between atoms: N_7  and  C_14 
REMARK    6  A    between atoms: C_13  and  C_14 
REMARK    7  A    between atoms: C_13  and  C_19 
REMARK    8  A    between atoms: C_14  and  C_15 
REMARK       I    between atoms: C_15  and  N_16 
ROOT
HETATM    1  C           1     -21.143  -5.652  -6.923  0.00  0.00     0.280 C 
ENDROOT
BRANCH   1   2
HETATM    2  N           1     -19.922  -6.272  -7.534  0.00  0.00    -0.066 N 
HETATM    3  H           1     -19.202  -6.428  -6.792  0.00  0.00     0.275 HD
HETATM    4  H           1     -19.534  -5.633  -8.265  0.00  0.00     0.275 HD
HETATM    5  H           1     -20.176  -7.186  -7.971  0.00  0.00     0.275 HD
ENDBRANCH   1   2
BRANCH   1   6
HETATM    6  C           1     -20.799  -5.104  -5.545  0.00  0.00     0.101 C 
BRANCH   6   7
HETATM    7  C           1     -21.155  -6.116  -4.501  0.00  0.00     0.028 A 
HETATM    8  C           1     -21.249  -7.469  -4.724  0.00  0.00     0.114 A 
HETATM    9  N           1     -21.593  -8.005  -3.514  0.00  0.00    -0.360 N 
HETATM   10  H           1     -21.752  -9.022  -3.309  0.00  0.00     0.166 HD
HETATM   11  C           1     -21.691  -6.975  -2.623  0.00  0.00     0.180 A 
HETATM   12  N           1     -21.430  -5.821  -3.191  0.00  0.00    -0.355 N 
ATOM     13  HN          1     -21.433  -4.900  -2.752  1.00  0.00     0.166 HD
ENDBRANCH   6   7
ENDBRANCH   1   6
BRANCH   1  14
HETATM   14  C           1     -21.631  -4.529  -7.804  0.00  0.00     0.249 C 
HETATM   15  O           1     -21.617  -3.392  -7.397  0.00  0.00    -0.271 OA
HETATM   16  N           1     -22.090  -4.798  -9.066  0.00  0.00    -0.343 N 
HETATM   17  H           1     -22.101  -5.750  -9.407  0.00  0.00     0.163 HD
BRANCH  16  18
HETATM   18  C           1     -22.558  -3.718  -9.913  0.00  0.00     0.209 C 
BRANCH  18  19
HETATM   19  C           1     -21.773  -3.719 -11.218  0.00  0.00     0.200 C 
BRANCH  19  20
HETATM   20  O           1     -22.519  -4.367 -12.213  0.00  0.00    -0.398 OA
HETATM   21  H           1     -22.446  -3.844 -12.994  0.00  0.00     0.209 HD
ENDBRANCH  19  20
ENDBRANCH  18  19
BRANCH  18  22
HETATM   22  C           1     -24.024  -3.912 -10.210  0.00  0.00     0.198 C 
HETATM   23  O           1     -24.570  -5.012  -9.971  0.00  0.00    -0.646 OA
HETATM   24  O           1     -24.694  -2.974 -10.692  0.00  0.00    -0.646 OA
ENDBRANCH  18  22
ENDBRANCH  16  18
ENDBRANCH   1  14
TORSDOF 8
ENDMDL
MODEL 2
REMARK VINA RESULT:      -5.8      2.892      6.382
REMARK  8 active torsions:
REMARK  status: ('A' for Active; 'I' for Inactive)
REMARK    1  A    between atoms: C_1  and  C_2 
REMARK    2  A    between atoms: C_1  and  C_10 
REMARK    3  A    between atoms: C_1  and  N_16 
REMARK    4  A    between atoms: C_2  and  O_3 
REMARK    5  A    between atoms: N_7  and  C_14 
REMARK    6  A    between atoms: C_13  and  C_14 
REMARK    7  A    between atoms: C_13  and  C_19 
REMARK    8  A    between atoms: C_14  and  C_15 
REMARK       I    between atoms: C_15  and  N_16 
ROOT
HETATM    1  C           1     -21.682  -4.348  -7.245  0.00  0.00     0.280 C 
ENDROOT
BRANCH   1   2
HETATM    2  N           1     -20.238  -4.097  -6.928  0.00  0.00    -0.066 N 
HETATM    3  H           1     -19.663  -4.237  -7.790  0.00  0.00     0.275 HD
HETATM    4  H           1     -19.922  -4.762  -6.188  0.00  0.00     0.275 HD
HETATM    5  H           1     -20.122  -3.116  -6.587  0.00  0.00     0.275 HD
ENDBRANCH   1   2
BRANCH   1   6
HETATM    6  C           1     -21.805  -4.873  -8.669  0.00  0.00     0.101 C 
BRANCH   6   7
HETATM    7  C           1     -23.057  -4.339  -9.292  0.00  0.00     0.028 A 
HETATM    8  C           1     -23.428  -4.544 -10.600  0.00  0.00     0.114 A 
HETATM    9  N           1     -24.620  -3.888 -10.737  0.00  0.00    -0.360 N 
HETATM   10  H           1     -25.200  -3.830 -11.611  0.00  0.00     0.166 HD
HETATM   11  C           1     -24.918  -3.323  -9.530  0.00  0.00     0.180 A 
HETATM   12  N           1     -23.991  -3.580  -8.637  0.00  0.00    -0.355 N 
ATOM     13  HN          1     -23.970  -3.278  -7.662  1.00  0.00     0.166 HD
ENDBRANCH   6   7
ENDBRANCH   1   6
BRANCH   1  14
HETATM   14  C           1     -22.238  -5.368  -6.283  0.00  0.00     0.249 C 
HETATM   15  O           1     -23.415  -5.366  -6.012  0.00  0.00    -0.271 OA
HETATM   16  N           1     -21.407  -6.299  -5.717  0.00  0.00    -0.343 N 
HETATM   17  H           1     -20.421  -6.301  -5.944  0.00  0.00     0.163 HD
BRANCH  16  18
HETATM   18  C           1     -21.941  -7.281  -4.793  0.00  0.00     0.209 C 
BRANCH  18  19
HETATM   19  C           1     -21.300  -8.636  -5.065  0.00  0.00     0.200 C 
BRANCH  19  20
HETATM   20  O           1     -19.994  -8.449  -5.540  0.00  0.00    -0.398 OA
HETATM   21  H           1     -19.474  -8.165  -4.807  0.00  0.00     0.209 HD
ENDBRANCH  19  20
ENDBRANCH  18  19
BRANCH  18  22
HETATM   22  C           1     -21.637  -6.856  -3.378  0.00  0.00     0.198 C 
HETATM   23  O           1     -20.688  -7.384  -2.758  0.00  0.00    -0.646 OA
HETATM   24  O           1     -22.332  -5.977  -2.826  0.00  0.00    -0.646 OA
ENDBRANCH  18  22
ENDBRANCH  16  18
ENDBRANCH   1  14
TORSDOF 8
ENDMDL
MODEL 3
REMARK VINA RESULT:      -5.7      3.079      6.575
REMARK  8 active torsions:
REMARK  status: ('A' for Active; 'I' for Inactive)
REMARK    1  A    between atoms: C_1  and  C_2 
REMARK    2  A    between atoms: C_1  and  C_10 
REMARK    3  A    between atoms: C_1  and  N_16 
REMARK    4  A    between atoms: C_2  and  O_3 
REMARK    5  A    between atoms: N_7  and  C_14 
REMARK    6  A    between atoms: C_13  and  C_14 
REMARK    7  A    between atoms: C_13  and  C_19 
REMARK    8  A    between atoms: C_14  and  C_15 
REMARK       I    between atoms: C_15  and  N_16 
ROOT
HETATM    1  C           1     -22.026  -4.375  -7.132  0.00  0.00     0.280 C 
ENDROOT
BRANCH   1   2
HETATM    2  N           1     -21.441  -2.995  -7.082  0.00  0.00    -0.066 N 
HETATM    3  H           1     -21.043  -2.751  -8.017  0.00  0.00     0.275 HD
HETATM    4  H           1     -20.684  -2.962  -6.363  0.00  0.00     0.275 HD
HETATM    5  H           1     -22.188  -2.309  -6.831  0.00  0.00     0.275 HD
ENDBRANCH   1   2
BRANCH   1   6
HETATM    6  C           1     -22.009  -4.881  -8.568  0.00  0.00     0.101 C 
BRANCH   6   7
HETATM    7  C           1     -23.200  -4.346  -9.300  0.00  0.00     0.028 A 
HETATM    8  C           1     -23.453  -4.550 -10.636  0.00  0.00     0.114 A 
HETATM    9  N           1     -24.628  -3.894 -10.879  0.00  0.00    -0.360 N 
HETATM   10  H           1     -25.127  -3.835 -11.801  0.00  0.00     0.166 HD
HETATM   11  C           1     -25.033  -3.330  -9.703  0.00  0.00     0.180 A 
HETATM   12  N           1     -24.189  -3.587  -8.730  0.00  0.00    -0.355 N 
ATOM     13  HN          1     -24.255  -3.287  -7.758  1.00  0.00     0.166 HD
ENDBRANCH   6   7
ENDBRANCH   1   6
BRANCH   1  14
HETATM   14  C           1     -21.208  -5.299  -6.264  0.00  0.00     0.249 C 
HETATM   15  O           1     -20.049  -5.510  -6.528  0.00  0.00    -0.271 OA
HETATM   16  N           1     -21.781  -5.898  -5.173  0.00  0.00    -0.343 N 
HETATM   17  H           1     -22.752  -5.721  -4.951  0.00  0.00     0.163 HD
BRANCH  16  18
HETATM   18  C           1     -20.996  -6.786  -4.338  0.00  0.00     0.209 C 
BRANCH  18  19
HETATM   19  C           1     -21.271  -6.479  -2.871  0.00  0.00     0.200 C 
BRANCH  19  20
HETATM   20  O           1     -22.593  -6.032  -2.726  0.00  0.00    -0.398 OA
HETATM   21  H           1     -23.139  -6.633  -3.205  0.00  0.00     0.209 HD
ENDBRANCH  19  20
ENDBRANCH  18  19
BRANCH  18  22
HETATM   22  C           1     -21.374  -8.217  -4.631  0.00  0.00     0.198 C 
HETATM   23  O           1     -21.169  -8.696  -5.767  0.00  0.00    -0.646 OA
HETATM   24  O           1     -21.890  -8.922  -3.738  0.00  0.00    -0.646 OA
ENDBRANCH  18  22
ENDBRANCH  16  18
ENDBRANCH   1  14
TORSDOF 8
ENDMDL
MODEL 4
REMARK VINA RESULT:      -5.7      1.601      2.397
REMARK  8 active torsions:
REMARK  status: ('A' for Active; 'I' for Inactive)
REMARK    1  A    between atoms: C_1  and  C_2 
REMARK    2  A    between atoms: C_1  and  C_10 
REMARK    3  A    between atoms: C_1  and  N_16 
REMARK    4  A    between atoms: C_2  and  O_3 
REMARK    5  A    between atoms: N_7  and  C_14 
REMARK    6  A    between atoms: C_13  and  C_14 
REMARK    7  A    between atoms: C_13  and  C_19 
REMARK    8  A    between atoms: C_14  and  C_15 
REMARK       I    between atoms: C_15  and  N_16 
ROOT
HETATM    1  C           1     -21.635  -4.207  -6.838  0.00  0.00     0.280 C 
ENDROOT
BRANCH   1   2
HETATM    2  N           1     -22.931  -4.769  -6.336  0.00  0.00    -0.066 N 
HETATM    3  H           1     -22.750  -5.366  -5.498  0.00  0.00     0.275 HD
HETATM    4  H           1     -23.375  -5.346  -7.085  0.00  0.00     0.275 HD
HETATM    5  H           1     -23.572  -3.986  -6.075  0.00  0.00     0.275 HD
ENDBRANCH   1   2
BRANCH   1   6
HETATM    6  C           1     -20.485  -4.769  -6.013  0.00  0.00     0.101 C 
BRANCH   6   7
HETATM    7  C           1     -20.882  -6.093  -5.438  0.00  0.00     0.028 A 
HETATM    8  C           1     -21.296  -6.289  -4.141  0.00  0.00     0.114 A 
HETATM    9  N           1     -21.555  -7.628  -4.051  0.00  0.00    -0.360 N 
HETATM   10  H           1     -21.893  -8.139  -3.198  0.00  0.00     0.166 HD
HETATM   11  C           1     -21.293  -8.180  -5.272  0.00  0.00     0.180 A 
HETATM   12  N           1     -20.885  -7.274  -6.131  0.00  0.00    -0.355 N 
ATOM     13  HN          1     -20.626  -7.420  -7.107  1.00  0.00     0.166 HD
ENDBRANCH   6   7
ENDBRANCH   1   6
BRANCH   1  14
HETATM   14  C           1     -21.448  -4.587  -8.286  0.00  0.00     0.249 C 
HETATM   15  O           1     -20.463  -5.196  -8.629  0.00  0.00    -0.271 OA
HETATM   16  N           1     -22.397  -4.244  -9.212  0.00  0.00    -0.343 N 
HETATM   17  H           1     -23.222  -3.734  -8.925  0.00  0.00     0.163 HD
BRANCH  16  18
HETATM   18  C           1     -22.219  -4.610 -10.603  0.00  0.00     0.209 C 
BRANCH  18  19
HETATM   19  C           1     -23.581  -4.742 -11.273  0.00  0.00     0.200 C 
BRANCH  19  20
HETATM   20  O           1     -23.418  -4.755 -12.665  0.00  0.00    -0.398 OA
HETATM   21  H           1     -24.231  -5.057 -13.033  0.00  0.00     0.209 HD
ENDBRANCH  19  20
ENDBRANCH  18  19
BRANCH  18  22
HETATM   22  C           1     -21.415  -3.544 -11.305  0.00  0.00     0.198 C 
HETATM   23  O           1     -21.959  -2.467 -11.632  0.00  0.00    -0.646 OA
HETATM   24  O           1     -20.207  -3.737 -11.558  0.00  0.00    -0.646 OA
ENDBRANCH  18  22
ENDBRANCH  16  18
ENDBRANCH   1  14
TORSDOF 8
ENDMDL
MODEL 5
REMARK VINA RESULT:      -5.3      3.065      6.759
REMARK  8 active torsions:
REMARK  status: ('A' for Active; 'I' for Inactive)
REMARK    1  A    between atoms: C_1  and  C_2 
REMARK    2  A    between atoms: C_1  and  C_10 
REMARK    3  A    between atoms: C_1  and  N_16 
REMARK    4  A    between atoms: C_2  and  O_3 
REMARK    5  A    between atoms: N_7  and  C_14 
REMARK    6  A    between atoms: C_13  and  C_14 
REMARK    7  A    between atoms: C_13  and  C_19 
REMARK    8  A    between atoms: C_14  and  C_15 
REMARK       I    between atoms: C_15  and  N_16 
ROOT
HETATM    1  C           1     -22.430  -4.866  -7.250  0.00  0.00     0.280 C 
ENDROOT
BRANCH   1   2
HETATM    2  N           1     -23.816  -4.555  -6.770  0.00  0.00    -0.066 N 
HETATM    3  H           1     -24.288  -5.439  -6.473  0.00  0.00     0.275 HD
HETATM    4  H           1     -24.362  -4.111  -7.543  0.00  0.00     0.275 HD
HETATM    5  H           1     -23.764  -3.897  -5.959  0.00  0.00     0.275 HD
ENDBRANCH   1   2
BRANCH   1   6
HETATM    6  C           1     -21.835  -3.632  -7.916  0.00  0.00     0.101 C 
BRANCH   6   7
HETATM    7  C           1     -21.551  -3.929  -9.356  0.00  0.00     0.028 A 
HETATM    8  C           1     -22.512  -4.090 -10.325  0.00  0.00     0.114 A 
HETATM    9  N           1     -21.817  -4.343 -11.475  0.00  0.00    -0.360 N 
HETATM   10  H           1     -22.231  -4.518 -12.424  0.00  0.00     0.166 HD
HETATM   11  C           1     -20.488  -4.325 -11.163  0.00  0.00     0.180 A 
HETATM   12  N           1     -20.297  -4.076  -9.888  0.00  0.00    -0.355 N 
ATOM     13  HN          1     -19.404  -4.007  -9.398  1.00  0.00     0.166 HD
ENDBRANCH   6   7
ENDBRANCH   1   6
BRANCH   1  14
HETATM   14  C           1     -21.570  -5.268  -6.078  0.00  0.00     0.249 C 
HETATM   15  O           1     -20.518  -4.710  -5.880  0.00  0.00    -0.271 OA
HETATM   16  N           1     -21.984  -6.267  -5.237  0.00  0.00    -0.343 N 
HETATM   17  H           1     -22.865  -6.734  -5.402  0.00  0.00     0.163 HD
BRANCH  16  18
HETATM   18  C           1     -21.158  -6.654  -4.109  0.00  0.00     0.209 C 
BRANCH  18  19
HETATM   19  C           1     -22.036  -6.851  -2.880  0.00  0.00     0.200 C 
BRANCH  19  20
HETATM   20  O           1     -22.216  -5.620  -2.231  0.00  0.00    -0.398 OA
HETATM   21  H           1     -21.664  -4.996  -2.671  0.00  0.00     0.209 HD
ENDBRANCH  19  20
ENDBRANCH  18  19
BRANCH  18  22
HETATM   22  C           1     -20.444  -7.944  -4.428  0.00  0.00     0.198 C 
HETATM   23  O           1     -20.550  -8.451  -5.566  0.00  0.00    -0.646 OA
HETATM   24  O           1     -19.748  -8.505  -3.556  0.00  0.00    -0.646 OA
ENDBRANCH  18  22
ENDBRANCH  16  18
ENDBRANCH   1  14
TORSDOF 8
ENDMDL
MODEL 6
REMARK VINA RESULT:      -5.1      2.839      4.539
REMARK  8 active torsions:
REMARK  status: ('A' for Active; 'I' for Inactive)
REMARK    1  A    between atoms: C_1  and  C_2 
REMARK    2  A    between atoms: C_1  and  C_10 
REMARK    3  A    between atoms: C_1  and  N_16 
REMARK    4  A    between atoms: C_2  and  O_3 
REMARK    5  A    between atoms: N_7  and  C_14 
REMARK    6  A    between atoms: C_13  and  C_14 
REMARK    7  A    between atoms: C_13  and  C_19 
REMARK    8  A    between atoms: C_14  and  C_15 
REMARK       I    between atoms: C_15  and  N_16 
ROOT
HETATM    1  C           1     -21.807  -8.031  -3.890  0.00  0.00     0.280 C 
ENDROOT
BRANCH   1   2
HETATM    2  N           1     -21.719  -9.526  -3.957  0.00  0.00    -0.066 N 
HETATM    3  H           1     -22.595  -9.944  -3.569  0.00  0.00     0.275 HD
HETATM    4  H           1     -20.901  -9.853  -3.395  0.00  0.00     0.275 HD
HETATM    5  H           1     -21.600  -9.824  -4.951  0.00  0.00     0.275 HD
ENDBRANCH   1   2
BRANCH   1   6
HETATM    6  C           1     -20.809  -7.509  -2.865  0.00  0.00     0.101 C 
BRANCH   6   7
HETATM    7  C           1     -21.337  -7.749  -1.485  0.00  0.00     0.028 A 
HETATM    8  C           1     -22.371  -7.048  -0.911  0.00  0.00     0.114 A 
HETATM    9  N           1     -22.517  -7.590   0.336  0.00  0.00    -0.360 N 
HETATM   10  H           1     -23.218  -7.299   1.061  0.00  0.00     0.166 HD
HETATM   11  C           1     -21.584  -8.579   0.465  0.00  0.00     0.180 A 
HETATM   12  N           1     -20.856  -8.698  -0.621  0.00  0.00    -0.355 N 
ATOM     13  HN          1     -20.095  -9.358  -0.787  1.00  0.00     0.166 HD
ENDBRANCH   6   7
ENDBRANCH   1   6
BRANCH   1  14
HETATM   14  C           1     -21.490  -7.447  -5.244  0.00  0.00     0.249 C 
HETATM   15  O           1     -21.007  -8.143  -6.104  0.00  0.00    -0.271 OA
HETATM   16  N           1     -21.751  -6.126  -5.498  0.00  0.00    -0.343 N 
HETATM   17  H           1     -22.156  -5.543  -4.777  0.00  0.00     0.163 HD
BRANCH  16  18
HETATM   18  C           1     -21.447  -5.565  -6.799  0.00  0.00     0.209 C 
BRANCH  18  19
HETATM   19  C           1     -22.510  -4.538  -7.171  0.00  0.00     0.200 C 
BRANCH  19  20
HETATM   20  O           1     -21.913  -3.278  -7.315  0.00  0.00    -0.398 OA
HETATM   21  H           1     -22.596  -2.679  -7.566  0.00  0.00     0.209 HD
ENDBRANCH  19  20
ENDBRANCH  18  19
BRANCH  18  22
HETATM   22  C           1     -20.096  -4.894  -6.755  0.00  0.00     0.198 C 
HETATM   23  O           1     -19.440  -4.741  -7.808  0.00  0.00    -0.646 OA
HETATM   24  O           1     -19.634  -4.492  -5.666  0.00  0.00    -0.646 OA
ENDBRANCH  18  22
ENDBRANCH  16  18
ENDBRANCH   1  14
TORSDOF 8
ENDMDL
MODEL 7
REMARK VINA RESULT:      -5.1      2.338      3.475
REMARK  8 active torsions:
REMARK  status: ('A' for Active; 'I' for Inactive)
REMARK    1  A    between atoms: C_1  and  C_2 
REMARK    2  A    between atoms: C_1  and  C_10 
REMARK    3  A    between atoms: C_1  and  N_16 
REMARK    4  A    between atoms: C_2  and  O_3 
REMARK    5  A    between atoms: N_7  and  C_14 
REMARK    6  A    between atoms: C_13  and  C_14 
REMARK    7  A    between atoms: C_13  and  C_19 
REMARK    8  A    between atoms: C_14  and  C_15 
REMARK       I    between atoms: C_15  and  N_16 
ROOT
HETATM    1  C           1     -21.382  -7.925  -4.500  0.00  0.00     0.280 C 
ENDROOT
BRANCH   1   2
HETATM    2  N           1     -21.085  -8.929  -5.573  0.00  0.00    -0.066 N 
HETATM    3  H           1     -21.842  -9.650  -5.593  0.00  0.00     0.275 HD
HETATM    4  H           1     -20.170  -9.392  -5.375  0.00  0.00     0.275 HD
HETATM    5  H           1     -21.038  -8.447  -6.498  0.00  0.00     0.275 HD
ENDBRANCH   1   2
BRANCH   1   6
HETATM    6  C           1     -20.428  -8.135  -3.331  0.00  0.00     0.101 C 
BRANCH   6   7
HETATM    7  C           1     -21.181  -8.010  -2.043  0.00  0.00     0.028 A 
HETATM    8  C           1     -21.137  -8.926  -1.019  0.00  0.00     0.114 A 
HETATM    9  N           1     -21.962  -8.419  -0.054  0.00  0.00    -0.360 N 
HETATM   10  H           1     -22.172  -8.859   0.876  0.00  0.00     0.166 HD
HETATM   11  C           1     -22.463  -7.238  -0.522  0.00  0.00     0.180 A 
HETATM   12  N           1     -22.007  -6.965  -1.723  0.00  0.00    -0.355 N 
ATOM     13  HN          1     -22.222  -6.148  -2.295  1.00  0.00     0.166 HD
ENDBRANCH   6   7
ENDBRANCH   1   6
BRANCH   1  14
HETATM   14  C           1     -21.202  -6.532  -5.051  0.00  0.00     0.249 C 
HETATM   15  O           1     -21.005  -5.606  -4.301  0.00  0.00    -0.271 OA
HETATM   16  N           1     -21.260  -6.318  -6.402  0.00  0.00    -0.343 N 
HETATM   17  H           1     -21.424  -7.094  -7.031  0.00  0.00     0.163 HD
BRANCH  16  18
HETATM   18  C           1     -21.086  -4.980  -6.933  0.00  0.00     0.209 C 
BRANCH  18  19
HETATM   19  C           1     -20.100  -5.017  -8.093  0.00  0.00     0.200 C 
BRANCH  19  20
HETATM   20  O           1     -19.576  -3.733  -8.303  0.00  0.00    -0.398 OA
HETATM   21  H           1     -20.167  -3.126  -7.891  0.00  0.00     0.209 HD
ENDBRANCH  19  20
ENDBRANCH  18  19
BRANCH  18  22
HETATM   22  C           1     -22.415  -4.456  -7.419  0.00  0.00     0.198 C 
HETATM   23  O           1     -23.437  -4.594  -6.713  0.00  0.00    -0.646 OA
HETATM   24  O           1     -22.493  -3.882  -8.527  0.00  0.00    -0.646 OA
ENDBRANCH  18  22
ENDBRANCH  16  18
ENDBRANCH   1  14
TORSDOF 8
ENDMDL
MODEL 8
REMARK VINA RESULT:      -5.1      3.962      6.749
REMARK  8 active torsions:
REMARK  status: ('A' for Active; 'I' for Inactive)
REMARK    1  A    between atoms: C_1  and  C_2 
REMARK    2  A    between atoms: C_1  and  C_10 
REMARK    3  A    between atoms: C_1  and  N_16 
REMARK    4  A    between atoms: C_2  and  O_3 
REMARK    5  A    between atoms: N_7  and  C_14 
REMARK    6  A    between atoms: C_13  and  C_14 
REMARK    7  A    between atoms: C_13  and  C_19 
REMARK    8  A    between atoms: C_14  and  C_15 
REMARK       I    between atoms: C_15  and  N_16 
ROOT
HETATM    1  C           1     -21.009  -5.563  -5.823  0.00  0.00     0.280 C 
ENDROOT
BRANCH   1   2
HETATM    2  N           1     -20.024  -4.522  -5.383  0.00  0.00    -0.066 N 
HETATM    3  H           1     -19.081  -4.747  -5.774  0.00  0.00     0.275 HD
HETATM    4  H           1     -19.972  -4.509  -4.339  0.00  0.00     0.275 HD
HETATM    5  H           1     -20.330  -3.585  -5.728  0.00  0.00     0.275 HD
ENDBRANCH   1   2
BRANCH   1   6
HETATM    6  C           1     -20.859  -5.803  -7.320  0.00  0.00     0.101 C 
BRANCH   6   7
HETATM    7  C           1     -21.778  -4.888  -8.068  0.00  0.00     0.028 A 
HETATM    8  C           1     -22.937  -4.356  -7.555  0.00  0.00     0.114 A 
HETATM    9  N           1     -23.452  -3.591  -8.565  0.00  0.00    -0.360 N 
HETATM   10  H           1     -24.340  -3.031  -8.529  0.00  0.00     0.166 HD
HETATM   11  C           1     -22.601  -3.688  -9.628  0.00  0.00     0.180 A 
HETATM   12  N           1     -21.578  -4.466  -9.356  0.00  0.00    -0.355 N 
ATOM     13  HN          1     -20.801  -4.705  -9.972  1.00  0.00     0.166 HD
ENDBRANCH   6   7
ENDBRANCH   1   6
BRANCH   1  14
HETATM   14  C           1     -20.748  -6.850  -5.079  0.00  0.00     0.249 C 
HETATM   15  O           1     -21.090  -6.961  -3.927  0.00  0.00    -0.271 OA
HETATM   16  N           1     -20.125  -7.892  -5.713  0.00  0.00    -0.343 N 
HETATM   17  H           1     -19.839  -7.799  -6.678  0.00  0.00     0.163 HD
BRANCH  16  18
HETATM   18  C           1     -19.875  -9.129  -4.998  0.00  0.00     0.209 C 
BRANCH  18  19
HETATM   19  C           1     -20.915 -10.167  -5.400  0.00  0.00     0.200 C 
BRANCH  19  20
HETATM   20  O           1     -20.360 -11.047  -6.339  0.00  0.00    -0.398 OA
HETATM   21  H           1     -20.813 -10.902  -7.152  0.00  0.00     0.209 HD
ENDBRANCH  19  20
ENDBRANCH  18  19
BRANCH  18  22
HETATM   22  C           1     -18.498  -9.639  -5.344  0.00  0.00     0.198 C 
HETATM   23  O           1     -17.896 -10.396  -4.551  0.00  0.00    -0.646 OA
HETATM   24  O           1     -17.960  -9.306  -6.421  0.00  0.00    -0.646 OA
ENDBRANCH  18  22
ENDBRANCH  16  18
ENDBRANCH   1  14
TORSDOF 8
ENDMDL
MODEL 9
REMARK VINA RESULT:      -5.0      3.221      6.720
REMARK  8 active torsions:
REMARK  status: ('A' for Active; 'I' for Inactive)
REMARK    1  A    between atoms: C_1  and  C_2 
REMARK    2  A    between atoms: C_1  and  C_10 
REMARK    3  A    between atoms: C_1  and  N_16 
REMARK    4  A    between atoms: C_2  and  O_3 
REMARK    5  A    between atoms: N_7  and  C_14 
REMARK    6  A    between atoms: C_13  and  C_14 
REMARK    7  A    between atoms: C_13  and  C_19 
REMARK    8  A    between atoms: C_14  and  C_15 
REMARK       I    between atoms: C_15  and  N_16 
ROOT
HETATM    1  C           1     -21.154  -4.956  -6.359  0.00  0.00     0.280 C 
ENDROOT
BRANCH   1   2
HETATM    2  N           1     -19.742  -4.643  -5.964  0.00  0.00    -0.066 N 
HETATM    3  H           1     -19.200  -5.533  -5.874  0.00  0.00     0.275 HD
HETATM    4  H           1     -19.739  -4.141  -5.047  0.00  0.00     0.275 HD
HETATM    5  H           1     -19.302  -4.038  -6.693  0.00  0.00     0.275 HD
ENDBRANCH   1   2
BRANCH   1   6
HETATM    6  C           1     -21.176  -5.479  -7.790  0.00  0.00     0.101 C 
BRANCH   6   7
HETATM    7  C           1     -22.133  -4.666  -8.605  0.00  0.00     0.028 A 
HETATM    8  C           1     -23.279  -4.085  -8.115  0.00  0.00     0.114 A 
HETATM    9  N           1     -23.839  -3.449  -9.188  0.00  0.00    -0.360 N 
HETATM   10  H           1     -24.731  -2.895  -9.185  0.00  0.00     0.166 HD
HETATM   11  C           1     -23.026  -3.664 -10.264  0.00  0.00     0.180 A 
HETATM   12  N           1     -21.985  -4.397  -9.940  0.00  0.00    -0.355 N 
ATOM     13  HN          1     -21.228  -4.701 -10.553  1.00  0.00     0.166 HD
ENDBRANCH   6   7
ENDBRANCH   1   6
BRANCH   1  14
HETATM   14  C           1     -21.716  -6.005  -5.431  0.00  0.00     0.249 C 
HETATM   15  O           1     -22.904  -6.053  -5.222  0.00  0.00    -0.271 OA
HETATM   16  N           1     -20.878  -6.904  -4.828  0.00  0.00    -0.343 N 
HETATM   17  H           1     -19.882  -6.865  -5.004  0.00  0.00     0.163 HD
BRANCH  16  18
HETATM   18  C           1     -21.417  -7.913  -3.937  0.00  0.00     0.209 C 
BRANCH  18  19
HETATM   19  C           1     -20.759  -9.256  -4.231  0.00  0.00     0.200 C 
BRANCH  19  20
HETATM   20  O           1     -20.871  -9.541  -5.599  0.00  0.00    -0.398 OA
HETATM   21  H           1     -21.343 -10.353  -5.671  0.00  0.00     0.209 HD
ENDBRANCH  19  20
ENDBRANCH  18  19
BRANCH  18  22
HETATM   22  C           1     -21.140  -7.521  -2.507  0.00  0.00     0.198 C 
HETATM   23  O           1     -21.849  -6.658  -1.948  0.00  0.00    -0.646 OA
HETATM   24  O           1     -20.201  -8.060  -1.881  0.00  0.00    -0.646 OA
ENDBRANCH  18  22
ENDBRANCH  16  18
ENDBRANCH   1  14
TORSDOF 8
ENDMDL
