MODEL 1
REMARK VINA RESULT:      -6.4      0.000      0.000
REMARK  7 active torsions:
REMARK  status: ('A' for Active; 'I' for Inactive)
REMARK       I    between atoms: C_1  and  N_9 
REMARK    1  A    between atoms: C_1  and  C_11 
REMARK    2  A    between atoms: N_4  and  C_20 
REMARK       I    between atoms: N_4  and  C_5 
REMARK    3  A    between atoms: C_5  and  C_6 
REMARK    4  A    between atoms: C_6  and  N_15 
REMARK    5  A    between atoms: C_11  and  C_19 
REMARK    6  A    between atoms: C_19  and  C_20 
REMARK    7  A    between atoms: C_20  and  C_21 
ROOT
HETATM    1  C           1     -28.760  -6.382 -18.227  0.00  0.00     0.186 C 
ENDROOT
BRANCH   1   2
HETATM    2  N           1     -27.632  -6.692 -19.084  0.00  0.00    -0.345 N 
HETATM    3  C           1     -26.356  -6.462 -18.647  0.00  0.00     0.248 C 
HETATM    4  O           1     -26.168  -6.000 -17.546  0.00  0.00    -0.271 OA
HETATM    5  H           1     -27.789  -7.079 -20.005  0.00  0.00     0.163 HD
BRANCH   3   6
HETATM    6  C           1     -25.183  -6.785 -19.539  0.00  0.00     0.270 C 
HETATM    7  C           1     -25.663  -7.593 -20.738  0.00  0.00     0.050 C 
BRANCH   6   8
HETATM    8  N           1     -24.175  -7.586 -18.769  0.00  0.00    -0.067 N 
HETATM    9  H           1     -24.603  -8.493 -18.474  0.00  0.00     0.275 HD
HETATM   10  H           1     -23.344  -7.773 -19.373  0.00  0.00     0.275 HD
HETATM   11  H           1     -23.877  -7.049 -17.924  0.00  0.00     0.275 HD
ENDBRANCH   6   8
ENDBRANCH   3   6
ENDBRANCH   1   2
BRANCH   1  12
HETATM   12  C           1     -29.378  -5.060 -18.660  0.00  0.00     0.045 C 
BRANCH  12  13
HETATM   13  C           1     -29.628  -4.189 -17.436  0.00  0.00     0.105 C 
BRANCH  13  14
HETATM   14  C           1     -31.109  -3.940 -17.288  0.00  0.00     0.215 C 
HETATM   15  O           1     -31.617  -2.982 -17.821  0.00  0.00    -0.274 OA
HETATM   16  N           1     -31.877  -4.799 -16.550  0.00  0.00    -0.370 N 
HETATM   17  H           1     -31.452  -5.602 -16.104  0.00  0.00     0.159 HD
HETATM   18  H           1     -32.871  -4.633 -16.451  0.00  0.00     0.159 HD
ENDBRANCH  13  14
ENDBRANCH  12  13
ENDBRANCH   1  12
BRANCH   1  19
HETATM   19  C           1     -29.790  -7.479 -18.333  0.00  0.00     0.196 C 
HETATM   20  O           1     -29.607  -8.434 -19.119  0.00  0.00    -0.646 OA
HETATM   21  O           1     -30.827  -7.432 -17.637  0.00  0.00    -0.646 OA
ENDBRANCH   1  19
TORSDOF 7
ENDMDL
MODEL 2
REMARK VINA RESULT:      -6.3      8.839     10.387
REMARK  7 active torsions:
REMARK  status: ('A' for Active; 'I' for Inactive)
REMARK       I    between atoms: C_1  and  N_9 
REMARK    1  A    between atoms: C_1  and  C_11 
REMARK    2  A    between atoms: N_4  and  C_20 
REMARK       I    between atoms: N_4  and  C_5 
REMARK    3  A    between atoms: C_5  and  C_6 
REMARK    4  A    between atoms: C_6  and  N_15 
REMARK    5  A    between atoms: C_11  and  C_19 
REMARK    6  A    between atoms: C_19  and  C_20 
REMARK    7  A    between atoms: C_20  and  C_21 
ROOT
HETATM    1  C           1     -35.194  -0.183 -12.749  0.00  0.00     0.186 C 
ENDROOT
BRANCH   1   2
HETATM    2  N           1     -34.971  -1.582 -13.055  0.00  0.00    -0.345 N 
HETATM    3  C           1     -34.232  -2.359 -12.205  0.00  0.00     0.248 C 
HETATM    4  O           1     -33.765  -1.879 -11.199  0.00  0.00    -0.271 OA
HETATM    5  H           1     -35.362  -1.984 -13.897  0.00  0.00     0.163 HD
BRANCH   3   6
HETATM    6  C           1     -34.001  -3.816 -12.523  0.00  0.00     0.270 C 
HETATM    7  C           1     -32.714  -4.284 -11.856  0.00  0.00     0.050 C 
BRANCH   6   8
HETATM    8  N           1     -33.887  -3.991 -14.008  0.00  0.00    -0.067 N 
HETATM    9  H           1     -34.805  -3.769 -14.457  0.00  0.00     0.275 HD
HETATM   10  H           1     -33.152  -3.347 -14.380  0.00  0.00     0.275 HD
HETATM   11  H           1     -33.624  -4.979 -14.222  0.00  0.00     0.275 HD
ENDBRANCH   6   8
ENDBRANCH   3   6
ENDBRANCH   1   2
BRANCH   1  12
HETATM   12  C           1     -35.371   0.598 -14.045  0.00  0.00     0.045 C 
BRANCH  12  13
HETATM   13  C           1     -35.550  -0.373 -15.204  0.00  0.00     0.105 C 
BRANCH  13  14
HETATM   14  C           1     -36.902  -0.158 -15.837  0.00  0.00     0.215 C 
HETATM   15  O           1     -37.186  -0.729 -16.863  0.00  0.00    -0.274 OA
HETATM   16  N           1     -37.808   0.682 -15.249  0.00  0.00    -0.370 N 
HETATM   17  H           1     -37.570   1.160 -14.389  0.00  0.00     0.159 HD
HETATM   18  H           1     -38.715   0.826 -15.674  0.00  0.00     0.159 HD
ENDBRANCH  13  14
ENDBRANCH  12  13
ENDBRANCH   1  12
BRANCH   1  19
HETATM   19  C           1     -36.436  -0.043 -11.904  0.00  0.00     0.196 C 
HETATM   20  O           1     -37.547  -0.383 -12.365  0.00  0.00    -0.646 OA
HETATM   21  O           1     -36.354   0.411 -10.743  0.00  0.00    -0.646 OA
ENDBRANCH   1  19
TORSDOF 7
ENDMDL
MODEL 3
REMARK VINA RESULT:      -6.2      2.002      2.639
REMARK  7 active torsions:
REMARK  status: ('A' for Active; 'I' for Inactive)
REMARK       I    between atoms: C_1  and  N_9 
REMARK    1  A    between atoms: C_1  and  C_11 
REMARK    2  A    between atoms: N_4  and  C_20 
REMARK       I    between atoms: N_4  and  C_5 
REMARK    3  A    between atoms: C_5  and  C_6 
REMARK    4  A    between atoms: C_6  and  N_15 
REMARK    5  A    between atoms: C_11  and  C_19 
REMARK    6  A    between atoms: C_19  and  C_20 
REMARK    7  A    between atoms: C_20  and  C_21 
ROOT
HETATM    1  C           1     -26.718  -5.867 -16.926  0.00  0.00     0.186 C 
ENDROOT
BRANCH   1   2
HETATM    2  N           1     -26.733  -6.448 -18.254  0.00  0.00    -0.345 N 
HETATM    3  C           1     -25.556  -6.739 -18.888  0.00  0.00     0.248 C 
HETATM    4  O           1     -24.503  -6.510 -18.341  0.00  0.00    -0.271 OA
HETATM    5  H           1     -27.615  -6.640 -18.712  0.00  0.00     0.163 HD
BRANCH   3   6
HETATM    6  C           1     -25.572  -7.344 -20.270  0.00  0.00     0.270 C 
HETATM    7  C           1     -25.192  -6.283 -21.294  0.00  0.00     0.050 C 
BRANCH   6   8
HETATM    8  N           1     -26.946  -7.862 -20.573  0.00  0.00    -0.067 N 
HETATM    9  H           1     -26.981  -8.889 -20.382  0.00  0.00     0.275 HD
HETATM   10  H           1     -27.645  -7.371 -19.970  0.00  0.00     0.275 HD
HETATM   11  H           1     -27.170  -7.686 -21.577  0.00  0.00     0.275 HD
ENDBRANCH   6   8
ENDBRANCH   3   6
ENDBRANCH   1   2
BRANCH   1  12
HETATM   12  C           1     -27.880  -4.893 -16.785  0.00  0.00     0.045 C 
BRANCH  12  13
HETATM   13  C           1     -28.722  -4.918 -18.053  0.00  0.00     0.105 C 
BRANCH  13  14
HETATM   14  C           1     -30.138  -4.510 -17.727  0.00  0.00     0.215 C 
HETATM   15  O           1     -30.886  -5.297 -17.199  0.00  0.00    -0.274 OA
HETATM   16  N           1     -30.573  -3.249 -18.030  0.00  0.00    -0.370 N 
HETATM   17  H           1     -29.946  -2.589 -18.472  0.00  0.00     0.159 HD
HETATM   18  H           1     -31.523  -2.975 -17.811  0.00  0.00     0.159 HD
ENDBRANCH  13  14
ENDBRANCH  12  13
ENDBRANCH   1  12
BRANCH   1  19
HETATM   19  C           1     -26.851  -6.962 -15.896  0.00  0.00     0.196 C 
HETATM   20  O           1     -25.830  -7.441 -15.358  0.00  0.00    -0.646 OA
HETATM   21  O           1     -27.982  -7.390 -15.581  0.00  0.00    -0.646 OA
ENDBRANCH   1  19
TORSDOF 7
ENDMDL
MODEL 4
REMARK VINA RESULT:      -6.1      1.949      2.165
REMARK  7 active torsions:
REMARK  status: ('A' for Active; 'I' for Inactive)
REMARK       I    between atoms: C_1  and  N_9 
REMARK    1  A    between atoms: C_1  and  C_11 
REMARK    2  A    between atoms: N_4  and  C_20 
REMARK       I    between atoms: N_4  and  C_5 
REMARK    3  A    between atoms: C_5  and  C_6 
REMARK    4  A    between atoms: C_6  and  N_15 
REMARK    5  A    between atoms: C_11  and  C_19 
REMARK    6  A    between atoms: C_19  and  C_20 
REMARK    7  A    between atoms: C_20  and  C_21 
ROOT
HETATM    1  C           1     -27.753  -6.045 -16.925  0.00  0.00     0.186 C 
ENDROOT
BRANCH   1   2
HETATM    2  N           1     -26.532  -6.520 -17.547  0.00  0.00    -0.345 N 
HETATM    3  C           1     -25.333  -6.367 -16.906  0.00  0.00     0.248 C 
HETATM    4  O           1     -25.291  -5.835 -15.821  0.00  0.00    -0.271 OA
HETATM    5  H           1     -26.568  -6.966 -18.454  0.00  0.00     0.163 HD
BRANCH   3   6
HETATM    6  C           1     -24.063  -6.862 -17.552  0.00  0.00     0.270 C 
HETATM    7  C           1     -24.356  -7.297 -18.982  0.00  0.00     0.050 C 
BRANCH   6   8
HETATM    8  N           1     -23.528  -8.029 -16.775  0.00  0.00    -0.067 N 
HETATM    9  H           1     -24.286  -8.738 -16.646  0.00  0.00     0.275 HD
HETATM   10  H           1     -22.733  -8.460 -17.298  0.00  0.00     0.275 HD
HETATM   11  H           1     -23.194  -7.701 -15.842  0.00  0.00     0.275 HD
ENDBRANCH   6   8
ENDBRANCH   3   6
ENDBRANCH   1   2
BRANCH   1  12
HETATM   12  C           1     -28.688  -5.498 -17.996  0.00  0.00     0.045 C 
BRANCH  12  13
HETATM   13  C           1     -29.132  -4.093 -17.615  0.00  0.00     0.105 C 
BRANCH  13  14
HETATM   14  C           1     -30.618  -4.086 -17.353  0.00  0.00     0.215 C 
HETATM   15  O           1     -31.131  -5.006 -16.761  0.00  0.00    -0.274 OA
HETATM   16  N           1     -31.385  -3.040 -17.787  0.00  0.00    -0.370 N 
HETATM   17  H           1     -30.956  -2.269 -18.283  0.00  0.00     0.159 HD
HETATM   18  H           1     -32.382  -3.036 -17.612  0.00  0.00     0.159 HD
ENDBRANCH  13  14
ENDBRANCH  12  13
ENDBRANCH   1  12
BRANCH   1  19
HETATM   19  C           1     -28.427  -7.185 -16.202  0.00  0.00     0.196 C 
HETATM   20  O           1     -28.052  -7.505 -15.053  0.00  0.00    -0.646 OA
HETATM   21  O           1     -29.359  -7.810 -16.752  0.00  0.00    -0.646 OA
ENDBRANCH   1  19
TORSDOF 7
ENDMDL
MODEL 5
REMARK VINA RESULT:      -5.4     11.920     13.223
REMARK  7 active torsions:
REMARK  status: ('A' for Active; 'I' for Inactive)
REMARK       I    between atoms: C_1  and  N_9 
REMARK    1  A    between atoms: C_1  and  C_11 
REMARK    2  A    between atoms: N_4  and  C_20 
REMARK       I    between atoms: N_4  and  C_5 
REMARK    3  A    between atoms: C_5  and  C_6 
REMARK    4  A    between atoms: C_6  and  N_15 
REMARK    5  A    between atoms: C_11  and  C_19 
REMARK    6  A    between atoms: C_19  and  C_20 
REMARK    7  A    between atoms: C_20  and  C_21 
ROOT
HETATM    1  C           1     -21.585  -4.850  -8.083  0.00  0.00     0.186 C 
ENDROOT
BRANCH   1   2
HETATM    2  N           1     -21.397  -4.973  -6.651  0.00  0.00    -0.345 N 
HETATM    3  C           1     -21.219  -6.208  -6.088  0.00  0.00     0.248 C 
HETATM    4  O           1     -21.218  -7.196  -6.785  0.00  0.00    -0.271 OA
HETATM    5  H           1     -21.397  -4.146  -6.068  0.00  0.00     0.163 HD
BRANCH   3   6
HETATM    6  C           1     -21.023  -6.336  -4.598  0.00  0.00     0.270 C 
HETATM    7  C           1     -20.480  -7.722  -4.273  0.00  0.00     0.050 C 
BRANCH   6   8
HETATM    8  N           1     -22.338  -6.140  -3.902  0.00  0.00    -0.067 N 
HETATM    9  H           1     -22.346  -6.688  -3.012  0.00  0.00     0.275 HD
HETATM   10  H           1     -22.471  -5.126  -3.688  0.00  0.00     0.275 HD
HETATM   11  H           1     -23.111  -6.470  -4.521  0.00  0.00     0.275 HD
ENDBRANCH   6   8
ENDBRANCH   3   6
ENDBRANCH   1   2
BRANCH   1  12
HETATM   12  C           1     -22.527  -3.689  -8.374  0.00  0.00     0.045 C 
BRANCH  12  13
HETATM   13  C           1     -23.860  -4.229  -8.874  0.00  0.00     0.105 C 
BRANCH  13  14
HETATM   14  C           1     -23.986  -3.970 -10.355  0.00  0.00     0.215 C 
HETATM   15  O           1     -24.845  -3.228 -10.768  0.00  0.00    -0.274 OA
HETATM   16  N           1     -23.126  -4.576 -11.231  0.00  0.00    -0.370 N 
HETATM   17  H           1     -22.406  -5.197 -10.885  0.00  0.00     0.159 HD
HETATM   18  H           1     -23.210  -4.402 -12.225  0.00  0.00     0.159 HD
ENDBRANCH  13  14
ENDBRANCH  12  13
ENDBRANCH   1  12
BRANCH   1  19
HETATM   19  C           1     -20.253  -4.594  -8.745  0.00  0.00     0.196 C 
HETATM   20  O           1     -19.255  -4.304  -8.050  0.00  0.00    -0.646 OA
HETATM   21  O           1     -20.147  -4.673  -9.988  0.00  0.00    -0.646 OA
ENDBRANCH   1  19
TORSDOF 7
ENDMDL
MODEL 6
REMARK VINA RESULT:      -5.4      9.097     10.421
REMARK  7 active torsions:
REMARK  status: ('A' for Active; 'I' for Inactive)
REMARK       I    between atoms: C_1  and  N_9 
REMARK    1  A    between atoms: C_1  and  C_11 
REMARK    2  A    between atoms: N_4  and  C_20 
REMARK       I    between atoms: N_4  and  C_5 
REMARK    3  A    between atoms: C_5  and  C_6 
REMARK    4  A    between atoms: C_6  and  N_15 
REMARK    5  A    between atoms: C_11  and  C_19 
REMARK    6  A    between atoms: C_19  and  C_20 
REMARK    7  A    between atoms: C_20  and  C_21 
ROOT
HETATM    1  C           1     -35.048  -1.874 -11.492  0.00  0.00     0.186 C 
ENDROOT
BRANCH   1   2
HETATM    2  N           1     -35.094  -3.323 -11.465  0.00  0.00    -0.345 N 
HETATM    3  C           1     -33.933  -4.044 -11.395  0.00  0.00     0.248 C 
HETATM    4  O           1     -32.868  -3.473 -11.356  0.00  0.00    -0.271 OA
HETATM    5  H           1     -35.985  -3.801 -11.497  0.00  0.00     0.163 HD
BRANCH   3   6
HETATM    6  C           1     -33.982  -5.551 -11.367  0.00  0.00     0.270 C 
HETATM    7  C           1     -34.619  -6.016 -10.064  0.00  0.00     0.050 C 
BRANCH   6   8
HETATM    8  N           1     -32.588  -6.098 -11.464  0.00  0.00    -0.067 N 
HETATM    9  H           1     -32.274  -6.420 -10.519  0.00  0.00     0.275 HD
HETATM   10  H           1     -32.575  -6.904 -12.128  0.00  0.00     0.275 HD
HETATM   11  H           1     -31.945  -5.352 -11.809  0.00  0.00     0.275 HD
ENDBRANCH   6   8
ENDBRANCH   3   6
ENDBRANCH   1   2
BRANCH   1  12
HETATM   12  C           1     -35.233  -1.386 -12.922  0.00  0.00     0.045 C 
BRANCH  12  13
HETATM   13  C           1     -35.037   0.123 -12.975  0.00  0.00     0.105 C 
BRANCH  13  14
HETATM   14  C           1     -35.014   0.578 -14.413  0.00  0.00     0.215 C 
HETATM   15  O           1     -34.685  -0.190 -15.285  0.00  0.00    -0.274 OA
HETATM   16  N           1     -35.367   1.862 -14.731  0.00  0.00    -0.370 N 
HETATM   17  H           1     -35.643   2.506 -14.000  0.00  0.00     0.159 HD
HETATM   18  H           1     -35.352   2.167 -15.696  0.00  0.00     0.159 HD
ENDBRANCH  13  14
ENDBRANCH  12  13
ENDBRANCH   1  12
BRANCH   1  19
HETATM   19  C           1     -36.151  -1.319 -10.624  0.00  0.00     0.196 C 
HETATM   20  O           1     -37.346  -1.538 -10.916  0.00  0.00    -0.646 OA
HETATM   21  O           1     -35.869  -0.640  -9.613  0.00  0.00    -0.646 OA
ENDBRANCH   1  19
TORSDOF 7
ENDMDL
MODEL 7
REMARK VINA RESULT:      -5.1      1.945      5.825
REMARK  7 active torsions:
REMARK  status: ('A' for Active; 'I' for Inactive)
REMARK       I    between atoms: C_1  and  N_9 
REMARK    1  A    between atoms: C_1  and  C_11 
REMARK    2  A    between atoms: N_4  and  C_20 
REMARK       I    between atoms: N_4  and  C_5 
REMARK    3  A    between atoms: C_5  and  C_6 
REMARK    4  A    between atoms: C_6  and  N_15 
REMARK    5  A    between atoms: C_11  and  C_19 
REMARK    6  A    between atoms: C_19  and  C_20 
REMARK    7  A    between atoms: C_20  and  C_21 
ROOT
HETATM    1  C           1     -27.995  -6.103 -17.959  0.00  0.00     0.186 C 
ENDROOT
BRANCH   1   2
HETATM    2  N           1     -28.899  -5.004 -17.687  0.00  0.00    -0.345 N 
HETATM    3  C           1     -30.163  -5.255 -17.226  0.00  0.00     0.248 C 
HETATM    4  O           1     -30.526  -6.394 -17.046  0.00  0.00    -0.271 OA
HETATM    5  H           1     -28.596  -4.050 -17.836  0.00  0.00     0.163 HD
BRANCH   3   6
HETATM    6  C           1     -31.105  -4.111 -16.942  0.00  0.00     0.270 C 
HETATM    7  C           1     -32.531  -4.637 -16.850  0.00  0.00     0.050 C 
BRANCH   6   8
HETATM    8  N           1     -31.015  -3.103 -18.050  0.00  0.00    -0.067 N 
HETATM    9  H           1     -30.920  -2.145 -17.642  0.00  0.00     0.275 HD
HETATM   10  H           1     -30.181  -3.312 -18.645  0.00  0.00     0.275 HD
HETATM   11  H           1     -31.879  -3.150 -18.633  0.00  0.00     0.275 HD
ENDBRANCH   6   8
ENDBRANCH   3   6
ENDBRANCH   1   2
BRANCH   1  12
HETATM   12  C           1     -27.179  -5.792 -19.206  0.00  0.00     0.045 C 
BRANCH  12  13
HETATM   13  C           1     -26.909  -7.081 -19.972  0.00  0.00     0.105 C 
BRANCH  13  14
HETATM   14  C           1     -25.423  -7.242 -20.179  0.00  0.00     0.215 C 
HETATM   15  O           1     -24.648  -6.569 -19.542  0.00  0.00    -0.274 OA
HETATM   16  N           1     -24.953  -8.151 -21.088  0.00  0.00    -0.370 N 
HETATM   17  H           1     -25.602  -8.715 -21.621  0.00  0.00     0.159 HD
HETATM   18  H           1     -23.956  -8.259 -21.227  0.00  0.00     0.159 HD
ENDBRANCH  13  14
ENDBRANCH  12  13
ENDBRANCH   1  12
BRANCH   1  19
HETATM   19  C           1     -27.066  -6.294 -16.784  0.00  0.00     0.196 C 
HETATM   20  O           1     -26.049  -5.576 -16.668  0.00  0.00    -0.646 OA
HETATM   21  O           1     -27.313  -7.169 -15.928  0.00  0.00    -0.646 OA
ENDBRANCH   1  19
TORSDOF 7
ENDMDL
MODEL 8
REMARK VINA RESULT:      -5.1     14.516     15.695
REMARK  7 active torsions:
REMARK  status: ('A' for Active; 'I' for Inactive)
REMARK       I    between atoms: C_1  and  N_9 
REMARK    1  A    between atoms: C_1  and  C_11 
REMARK    2  A    between atoms: N_4  and  C_20 
REMARK       I    between atoms: N_4  and  C_5 
REMARK    3  A    between atoms: C_5  and  C_6 
REMARK    4  A    between atoms: C_6  and  N_15 
REMARK    5  A    between atoms: C_11  and  C_19 
REMARK    6  A    between atoms: C_19  and  C_20 
REMARK    7  A    between atoms: C_20  and  C_21 
ROOT
HETATM    1  C           1     -20.813  -6.779  -5.054  0.00  0.00     0.186 C 
ENDROOT
BRANCH   1   2
HETATM    2  N           1     -21.244  -6.367  -6.375  0.00  0.00    -0.345 N 
HETATM    3  C           1     -21.023  -5.085  -6.798  0.00  0.00     0.248 C 
HETATM    4  O           1     -20.469  -4.295  -6.070  0.00  0.00    -0.271 OA
HETATM    5  H           1     -21.708  -7.028  -6.985  0.00  0.00     0.163 HD
BRANCH   3   6
HETATM    6  C           1     -21.472  -4.656  -8.173  0.00  0.00     0.270 C 
HETATM    7  C           1     -20.266  -4.197  -8.982  0.00  0.00     0.050 C 
BRANCH   6   8
HETATM    8  N           1     -22.450  -3.525  -8.050  0.00  0.00    -0.067 N 
HETATM    9  H           1     -21.943  -2.656  -7.766  0.00  0.00     0.275 HD
HETATM   10  H           1     -22.921  -3.370  -8.970  0.00  0.00     0.275 HD
HETATM   11  H           1     -23.166  -3.762  -7.328  0.00  0.00     0.275 HD
ENDBRANCH   6   8
ENDBRANCH   3   6
ENDBRANCH   1   2
BRANCH   1  12
HETATM   12  C           1     -21.987  -6.696  -4.087  0.00  0.00     0.045 C 
BRANCH  12  13
HETATM   13  C           1     -21.512  -6.124  -2.758  0.00  0.00     0.105 C 
BRANCH  13  14
HETATM   14  C           1     -21.875  -7.072  -1.643  0.00  0.00     0.215 C 
HETATM   15  O           1     -22.704  -6.752  -0.824  0.00  0.00    -0.274 OA
HETATM   16  N           1     -21.266  -8.294  -1.557  0.00  0.00    -0.370 N 
HETATM   17  H           1     -20.572  -8.562  -2.243  0.00  0.00     0.159 HD
HETATM   18  H           1     -21.510  -8.931  -0.809  0.00  0.00     0.159 HD
ENDBRANCH  13  14
ENDBRANCH  12  13
ENDBRANCH   1  12
BRANCH   1  19
HETATM   19  C           1     -20.306  -8.200  -5.110  0.00  0.00     0.196 C 
HETATM   20  O           1     -20.910  -9.104  -4.492  0.00  0.00    -0.646 OA
HETATM   21  O           1     -19.284  -8.473  -5.774  0.00  0.00    -0.646 OA
ENDBRANCH   1  19
TORSDOF 7
ENDMDL
MODEL 9
REMARK VINA RESULT:      -5.0     17.264     18.356
REMARK  7 active torsions:
REMARK  status: ('A' for Active; 'I' for Inactive)
REMARK       I    between atoms: C_1  and  N_9 
REMARK    1  A    between atoms: C_1  and  C_11 
REMARK    2  A    between atoms: N_4  and  C_20 
REMARK       I    between atoms: N_4  and  C_5 
REMARK    3  A    between atoms: C_5  and  C_6 
REMARK    4  A    between atoms: C_6  and  N_15 
REMARK    5  A    between atoms: C_11  and  C_19 
REMARK    6  A    between atoms: C_19  and  C_20 
REMARK    7  A    between atoms: C_20  and  C_21 
ROOT
HETATM    1  C           1     -21.227  -7.966  -1.561  0.00  0.00     0.186 C 
ENDROOT
BRANCH   1   2
HETATM    2  N           1     -21.910  -9.244  -1.508  0.00  0.00    -0.345 N 
HETATM    3  C           1     -21.723 -10.076  -0.437  0.00  0.00     0.248 C 
HETATM    4  O           1     -20.989  -9.746   0.465  0.00  0.00    -0.271 OA
HETATM    5  H           1     -22.525  -9.521  -2.262  0.00  0.00     0.163 HD
BRANCH   3   6
HETATM    6  C           1     -22.434 -11.406  -0.382  0.00  0.00     0.270 C 
HETATM    7  C           1     -23.929 -11.177  -0.203  0.00  0.00     0.050 C 
BRANCH   6   8
HETATM    8  N           1     -21.910 -12.205   0.774  0.00  0.00    -0.067 N 
HETATM    9  H           1     -22.440 -11.955   1.640  0.00  0.00     0.275 HD
HETATM   10  H           1     -22.028 -13.224   0.575  0.00  0.00     0.275 HD
HETATM   11  H           1     -20.897 -11.993   0.912  0.00  0.00     0.275 HD
ENDBRANCH   6   8
ENDBRANCH   3   6
ENDBRANCH   1   2
BRANCH   1  12
HETATM   12  C           1     -20.615  -7.775  -2.942  0.00  0.00     0.045 C 
BRANCH  12  13
HETATM   13  C           1     -21.510  -8.423  -3.989  0.00  0.00     0.105 C 
BRANCH  13  14
HETATM   14  C           1     -21.746  -7.454  -5.121  0.00  0.00     0.215 C 
HETATM   15  O           1     -21.234  -7.648  -6.198  0.00  0.00    -0.274 OA
HETATM   16  N           1     -22.539  -6.356  -4.929  0.00  0.00    -0.370 N 
HETATM   17  H           1     -22.968  -6.194  -4.027  0.00  0.00     0.159 HD
HETATM   18  H           1     -22.697  -5.706  -5.688  0.00  0.00     0.159 HD
ENDBRANCH  13  14
ENDBRANCH  12  13
ENDBRANCH   1  12
BRANCH   1  19
HETATM   19  C           1     -22.214  -6.857  -1.288  0.00  0.00     0.196 C 
HETATM   20  O           1     -22.193  -5.818  -1.983  0.00  0.00    -0.646 OA
HETATM   21  O           1     -23.051  -6.977  -0.368  0.00  0.00    -0.646 OA
ENDBRANCH   1  19
TORSDOF 7
ENDMDL
