MODEL 1
REMARK VINA RESULT:      -8.4      0.000      0.000
REMARK  11 active torsions:
REMARK  status: ('A' for Active; 'I' for Inactive)
REMARK    1  A    between atoms: C_1  and  C_32 
REMARK    2  A    between atoms: C_1  and  C_2 
REMARK    3  A    between atoms: C_4  and  O_7 
REMARK    4  A    between atoms: C_5  and  C_19 
REMARK    5  A    between atoms: C_5  and  C_10 
REMARK    6  A    between atoms: N_6  and  C_32 
REMARK    7  A    between atoms: N_8  and  C_28 
REMARK       I    between atoms: N_8  and  C_17 
REMARK    8  A    between atoms: C_10  and  C_28 
REMARK    9  A    between atoms: C_16  and  C_28 
REMARK   10  A    between atoms: C_17  and  C_32 
REMARK   11  A    between atoms: C_19  and  N_20 
REMARK       I    between atoms: N_20  and  C_27 
REMARK       I    between atoms: N_26  and  C_27 
ROOT
HETATM    1  N           1     -33.447  -3.772 -14.295  0.00  0.00    -0.345 N 
HETATM    2  H           1     -32.583  -3.254 -14.401  0.00  0.00     0.163 HD
HETATM    3  C           1     -33.957  -4.474 -15.354  0.00  0.00     0.249 C 
HETATM    4  O           1     -34.988  -5.091 -15.228  0.00  0.00    -0.271 OA
ENDROOT
BRANCH   1   5
HETATM    5  C           1     -34.142  -3.770 -13.024  0.00  0.00     0.185 C 
BRANCH   5   6
HETATM    6  C           1     -33.131  -3.882 -11.891  0.00  0.00     0.038 C 
BRANCH   6   7
HETATM    7  C           1     -33.784  -4.555 -10.691  0.00  0.00     0.023 C 
BRANCH   7   8
HETATM    8  C           1     -34.621  -5.736 -11.163  0.00  0.00     0.138 C 
BRANCH   8   9
HETATM    9  N           1     -33.827  -6.970 -11.066  0.00  0.00    -0.227 N 
HETATM   10  H           1     -32.975  -7.094 -11.666  0.00  0.00     0.177 HD
HETATM   11  C           1     -34.171  -7.882 -10.259  0.00  0.00     0.665 C 
HETATM   12  N           1     -35.199  -7.732  -9.534  0.00  0.00    -0.235 N 
HETATM   13  N           1     -33.469  -8.972 -10.173  0.00  0.00    -0.235 N 
HETATM   14  H           1     -35.765  -6.851  -9.604  0.00  0.00     0.174 HD
HETATM   15  H           1     -35.483  -8.489  -8.865  0.00  0.00     0.174 HD
HETATM   16  H           1     -32.621  -9.097 -10.771  0.00  0.00     0.174 HD
HETATM   17  H           1     -33.753  -9.726  -9.507  0.00  0.00     0.174 HD
ENDBRANCH   8   9
ENDBRANCH   7   8
ENDBRANCH   6   7
ENDBRANCH   5   6
BRANCH   5  18
HETATM   18  C           1     -34.920  -2.484 -12.878  0.00  0.00     0.196 C 
HETATM   19  O           1     -34.657  -1.509 -13.614  0.00  0.00    -0.646 OA
HETATM   20  O           1     -35.826  -2.395 -12.022  0.00  0.00    -0.646 OA
ENDBRANCH   5  18
ENDBRANCH   1   5
BRANCH   3  21
HETATM   21  C           1     -33.233  -4.476 -16.678  0.00  0.00     0.278 C 
BRANCH  21  22
HETATM   22  C           1     -31.729  -4.457 -16.435  0.00  0.00     0.081 C 
BRANCH  22  23
HETATM   23  C           1     -31.090  -5.595 -17.167  0.00  0.00    -0.056 A 
HETATM   24  C           1     -29.727  -5.554 -17.465  0.00  0.00     0.010 A 
HETATM   25  C           1     -29.131  -6.614 -18.148  0.00  0.00     0.037 A 
HETATM   26  C           1     -29.897  -7.714 -18.534  0.00  0.00     0.065 A 
HETATM   27  C           1     -31.259  -7.755 -18.236  0.00  0.00     0.037 A 
HETATM   28  C           1     -31.855  -6.695 -17.553  0.00  0.00     0.010 A 
BRANCH  26  29
HETATM   29  O           1     -29.317  -8.743 -19.197  0.00  0.00    -0.361 OA
HETATM   30  H           1     -29.756  -8.830 -20.060  0.00  0.00     0.217 HD
ENDBRANCH  26  29
ENDBRANCH  22  23
ENDBRANCH  21  22
BRANCH  21  31
HETATM   31  N           1     -33.626  -3.260 -17.464  0.00  0.00    -0.066 N 
HETATM   32  H           1     -34.666  -3.229 -17.560  0.00  0.00     0.275 HD
HETATM   33  H           1     -33.297  -2.403 -16.964  0.00  0.00     0.275 HD
HETATM   34  H           1     -33.189  -3.302 -18.412  0.00  0.00     0.275 HD
ENDBRANCH  21  31
ENDBRANCH   3  21
TORSDOF 11
ENDMDL
MODEL 2
REMARK VINA RESULT:      -7.6     13.729     15.005
REMARK  11 active torsions:
REMARK  status: ('A' for Active; 'I' for Inactive)
REMARK    1  A    between atoms: C_1  and  C_32 
REMARK    2  A    between atoms: C_1  and  C_2 
REMARK    3  A    between atoms: C_4  and  O_7 
REMARK    4  A    between atoms: C_5  and  C_19 
REMARK    5  A    between atoms: C_5  and  C_10 
REMARK    6  A    between atoms: N_6  and  C_32 
REMARK    7  A    between atoms: N_8  and  C_28 
REMARK       I    between atoms: N_8  and  C_17 
REMARK    8  A    between atoms: C_10  and  C_28 
REMARK    9  A    between atoms: C_16  and  C_28 
REMARK   10  A    between atoms: C_17  and  C_32 
REMARK   11  A    between atoms: C_19  and  N_20 
REMARK       I    between atoms: N_20  and  C_27 
REMARK       I    between atoms: N_26  and  C_27 
ROOT
HETATM    1  N           1     -21.573  -7.069  -5.029  0.00  0.00    -0.345 N 
HETATM    2  H           1     -22.498  -6.852  -4.678  0.00  0.00     0.163 HD
HETATM    3  C           1     -21.129  -6.491  -6.187  0.00  0.00     0.249 C 
HETATM    4  O           1     -20.026  -6.749  -6.607  0.00  0.00    -0.271 OA
ENDROOT
BRANCH   1   5
HETATM    5  C           1     -20.721  -7.991  -4.305  0.00  0.00     0.185 C 
BRANCH   5   6
HETATM    6  C           1     -20.544  -7.503  -2.874  0.00  0.00     0.038 C 
BRANCH   6   7
HETATM    7  C           1     -21.563  -6.412  -2.578  0.00  0.00     0.023 C 
BRANCH   7   8
HETATM    8  C           1     -22.286  -6.730  -1.276  0.00  0.00     0.138 C 
BRANCH   8   9
HETATM    9  N           1     -21.849  -8.043  -0.780  0.00  0.00    -0.227 N 
HETATM   10  H           1     -20.967  -8.477  -1.149  0.00  0.00     0.177 HD
HETATM   11  C           1     -22.535  -8.649   0.094  0.00  0.00     0.665 C 
HETATM   12  N           1     -23.597  -8.125   0.541  0.00  0.00    -0.235 N 
HETATM   13  N           1     -22.148  -9.810   0.534  0.00  0.00    -0.235 N 
HETATM   14  H           1     -23.909  -7.188   0.186  0.00  0.00     0.174 HD
HETATM   15  H           1     -24.166  -8.629   1.266  0.00  0.00     0.174 HD
HETATM   16  H           1     -21.271 -10.243   0.165  0.00  0.00     0.174 HD
HETATM   17  H           1     -22.715 -10.311   1.256  0.00  0.00     0.174 HD
ENDBRANCH   8   9
ENDBRANCH   7   8
ENDBRANCH   6   7
ENDBRANCH   5   6
BRANCH   5  18
HETATM   18  C           1     -21.356  -9.360  -4.294  0.00  0.00     0.196 C 
HETATM   19  O           1     -21.236 -10.112  -5.285  0.00  0.00    -0.646 OA
HETATM   20  O           1     -22.001  -9.742  -3.295  0.00  0.00    -0.646 OA
ENDBRANCH   5  18
ENDBRANCH   1   5
BRANCH   3  21
HETATM   21  C           1     -22.017  -5.530  -6.940  0.00  0.00     0.278 C 
BRANCH  21  22
HETATM   22  C           1     -21.202  -4.318  -7.374  0.00  0.00     0.081 C 
BRANCH  22  23
HETATM   23  C           1     -21.323  -4.138  -8.855  0.00  0.00    -0.056 A 
HETATM   24  C           1     -22.538  -3.736  -9.411  0.00  0.00     0.010 A 
HETATM   25  C           1     -22.652  -3.567 -10.791  0.00  0.00     0.037 A 
HETATM   26  C           1     -21.550  -3.802 -11.614  0.00  0.00     0.065 A 
HETATM   27  C           1     -20.336  -4.204 -11.059  0.00  0.00     0.037 A 
HETATM   28  C           1     -20.223  -4.372  -9.679  0.00  0.00     0.010 A 
BRANCH  26  29
HETATM   29  O           1     -21.661  -3.638 -12.955  0.00  0.00    -0.361 OA
HETATM   30  H           1     -21.543  -4.507 -13.375  0.00  0.00     0.217 HD
ENDBRANCH  26  29
ENDBRANCH  22  23
ENDBRANCH  21  22
BRANCH  21  31
HETATM   31  N           1     -23.139  -5.085  -6.050  0.00  0.00    -0.066 N 
HETATM   32  H           1     -22.792  -4.351  -5.393  0.00  0.00     0.275 HD
HETATM   33  H           1     -23.911  -4.692  -6.635  0.00  0.00     0.275 HD
HETATM   34  H           1     -23.495  -5.902  -5.504  0.00  0.00     0.275 HD
ENDBRANCH  21  31
ENDBRANCH   3  21
TORSDOF 11
ENDMDL
MODEL 3
REMARK VINA RESULT:      -7.2     13.929     15.356
REMARK  11 active torsions:
REMARK  status: ('A' for Active; 'I' for Inactive)
REMARK    1  A    between atoms: C_1  and  C_32 
REMARK    2  A    between atoms: C_1  and  C_2 
REMARK    3  A    between atoms: C_4  and  O_7 
REMARK    4  A    between atoms: C_5  and  C_19 
REMARK    5  A    between atoms: C_5  and  C_10 
REMARK    6  A    between atoms: N_6  and  C_32 
REMARK    7  A    between atoms: N_8  and  C_28 
REMARK       I    between atoms: N_8  and  C_17 
REMARK    8  A    between atoms: C_10  and  C_28 
REMARK    9  A    between atoms: C_16  and  C_28 
REMARK   10  A    between atoms: C_17  and  C_32 
REMARK   11  A    between atoms: C_19  and  N_20 
REMARK       I    between atoms: N_20  and  C_27 
REMARK       I    between atoms: N_26  and  C_27 
ROOT
HETATM    1  N           1     -20.832  -7.868  -5.882  0.00  0.00    -0.345 N 
HETATM    2  H           1     -21.183  -8.296  -6.730  0.00  0.00     0.163 HD
HETATM    3  C           1     -21.074  -6.544  -5.634  0.00  0.00     0.249 C 
HETATM    4  O           1     -20.656  -6.032  -4.623  0.00  0.00    -0.271 OA
ENDROOT
BRANCH   1   5
HETATM    5  C           1     -20.076  -8.657  -4.930  0.00  0.00     0.185 C 
BRANCH   5   6
HETATM    6  C           1     -21.012  -9.609  -4.199  0.00  0.00     0.038 C 
BRANCH   6   7
HETATM    7  C           1     -20.476  -9.876  -2.800  0.00  0.00     0.023 C 
BRANCH   7   8
HETATM    8  C           1     -21.292  -9.089  -1.783  0.00  0.00     0.138 C 
BRANCH   8   9
HETATM    9  N           1     -21.450  -7.704  -2.247  0.00  0.00    -0.227 N 
HETATM   10  H           1     -21.032  -7.405  -3.163  0.00  0.00     0.177 HD
HETATM   11  C           1     -22.091  -6.870  -1.543  0.00  0.00     0.665 C 
HETATM   12  N           1     -22.597  -7.229  -0.439  0.00  0.00    -0.235 N 
HETATM   13  N           1     -22.232  -5.645  -1.953  0.00  0.00    -0.235 N 
HETATM   14  H           1     -22.483  -8.219  -0.107  0.00  0.00     0.174 HD
HETATM   15  H           1     -23.128  -6.537   0.145  0.00  0.00     0.174 HD
HETATM   16  H           1     -21.816  -5.347  -2.865  0.00  0.00     0.174 HD
HETATM   17  H           1     -22.762  -4.956  -1.372  0.00  0.00     0.174 HD
ENDBRANCH   8   9
ENDBRANCH   7   8
ENDBRANCH   6   7
ENDBRANCH   5   6
BRANCH   5  18
HETATM   18  C           1     -19.022  -9.453  -5.663  0.00  0.00     0.196 C 
HETATM   19  O           1     -18.253  -8.881  -6.465  0.00  0.00    -0.646 OA
HETATM   20  O           1     -18.918 -10.682  -5.466  0.00  0.00    -0.646 OA
ENDBRANCH   5  18
ENDBRANCH   1   5
BRANCH   3  21
HETATM   21  C           1     -21.863  -5.722  -6.625  0.00  0.00     0.278 C 
BRANCH  21  22
HETATM   22  C           1     -21.024  -4.537  -7.084  0.00  0.00     0.081 C 
BRANCH  22  23
HETATM   23  C           1     -21.196  -4.342  -8.558  0.00  0.00    -0.056 A 
HETATM   24  C           1     -20.134  -4.606  -9.424  0.00  0.00     0.010 A 
HETATM   25  C           1     -20.294  -4.425 -10.798  0.00  0.00     0.037 A 
HETATM   26  C           1     -21.514  -3.979 -11.305  0.00  0.00     0.065 A 
HETATM   27  C           1     -22.575  -3.715 -10.439  0.00  0.00     0.037 A 
HETATM   28  C           1     -22.416  -3.896  -9.066  0.00  0.00     0.010 A 
BRANCH  26  29
HETATM   29  O           1     -21.669  -3.803 -12.639  0.00  0.00    -0.361 OA
HETATM   30  H           1     -22.279  -3.058 -12.776  0.00  0.00     0.217 HD
ENDBRANCH  26  29
ENDBRANCH  22  23
ENDBRANCH  21  22
BRANCH  21  31
HETATM   31  N           1     -23.118  -5.223  -5.973  0.00  0.00    -0.066 N 
HETATM   32  H           1     -23.941  -5.735  -6.364  0.00  0.00     0.275 HD
HETATM   33  H           1     -23.063  -5.390  -4.942  0.00  0.00     0.275 HD
HETATM   34  H           1     -23.223  -4.200  -6.157  0.00  0.00     0.275 HD
ENDBRANCH  21  31
ENDBRANCH   3  21
TORSDOF 11
ENDMDL
MODEL 4
REMARK VINA RESULT:      -7.1      1.636      2.155
REMARK  11 active torsions:
REMARK  status: ('A' for Active; 'I' for Inactive)
REMARK    1  A    between atoms: C_1  and  C_32 
REMARK    2  A    between atoms: C_1  and  C_2 
REMARK    3  A    between atoms: C_4  and  O_7 
REMARK    4  A    between atoms: C_5  and  C_19 
REMARK    5  A    between atoms: C_5  and  C_10 
REMARK    6  A    between atoms: N_6  and  C_32 
REMARK    7  A    between atoms: N_8  and  C_28 
REMARK       I    between atoms: N_8  and  C_17 
REMARK    8  A    between atoms: C_10  and  C_28 
REMARK    9  A    between atoms: C_16  and  C_28 
REMARK   10  A    between atoms: C_17  and  C_32 
REMARK   11  A    between atoms: C_19  and  N_20 
REMARK       I    between atoms: N_20  and  C_27 
REMARK       I    between atoms: N_26  and  C_27 
ROOT
HETATM    1  N           1     -33.962  -4.126 -13.220  0.00  0.00    -0.345 N 
HETATM    2  H           1     -33.454  -4.952 -12.929  0.00  0.00     0.163 HD
HETATM    3  C           1     -34.102  -3.845 -14.552  0.00  0.00     0.249 C 
HETATM    4  O           1     -34.707  -2.859 -14.901  0.00  0.00    -0.271 OA
ENDROOT
BRANCH   1   5
HETATM    5  C           1     -34.541  -3.242 -12.228  0.00  0.00     0.185 C 
BRANCH   5   6
HETATM    6  C           1     -35.429  -4.045 -11.288  0.00  0.00     0.038 C 
BRANCH   6   7
HETATM    7  C           1     -35.172  -5.532 -11.490  0.00  0.00     0.023 C 
BRANCH   7   8
HETATM    8  C           1     -34.259  -6.046 -10.385  0.00  0.00     0.138 C 
BRANCH   8   9
HETATM    9  N           1     -33.708  -7.353 -10.771  0.00  0.00    -0.227 N 
HETATM   10  H           1     -33.129  -7.443 -11.642  0.00  0.00     0.177 HD
HETATM   11  C           1     -33.931  -8.371 -10.053  0.00  0.00     0.665 C 
HETATM   12  N           1     -34.628  -8.264  -9.001  0.00  0.00    -0.235 N 
HETATM   13  N           1     -33.443  -9.527 -10.393  0.00  0.00    -0.235 N 
HETATM   14  H           1     -35.022  -7.330  -8.726  0.00  0.00     0.174 HD
HETATM   15  H           1     -34.812  -9.109  -8.405  0.00  0.00     0.174 HD
HETATM   16  H           1     -32.867  -9.616 -11.261  0.00  0.00     0.174 HD
HETATM   17  H           1     -33.627 -10.367  -9.800  0.00  0.00     0.174 HD
ENDBRANCH   8   9
ENDBRANCH   7   8
ENDBRANCH   6   7
ENDBRANCH   5   6
BRANCH   5  18
HETATM   18  C           1     -33.436  -2.584 -11.436  0.00  0.00     0.196 C 
HETATM   19  O           1     -33.637  -1.481 -10.884  0.00  0.00    -0.646 OA
HETATM   20  O           1     -32.323  -3.142 -11.333  0.00  0.00    -0.646 OA
ENDBRANCH   5  18
ENDBRANCH   1   5
BRANCH   3  21
HETATM   21  C           1     -33.500  -4.765 -15.586  0.00  0.00     0.278 C 
BRANCH  21  22
HETATM   22  C           1     -32.949  -3.941 -16.742  0.00  0.00     0.081 C 
BRANCH  22  23
HETATM   23  C           1     -31.591  -4.448 -17.116  0.00  0.00    -0.056 A 
HETATM   24  C           1     -31.281  -5.798 -16.949  0.00  0.00     0.010 A 
HETATM   25  C           1     -30.017  -6.272 -17.297  0.00  0.00     0.037 A 
HETATM   26  C           1     -29.062  -5.395 -17.813  0.00  0.00     0.065 A 
HETATM   27  C           1     -29.372  -4.046 -17.980  0.00  0.00     0.037 A 
HETATM   28  C           1     -30.636  -3.572 -17.632  0.00  0.00     0.010 A 
BRANCH  26  29
HETATM   29  O           1     -27.833  -5.855 -18.151  0.00  0.00    -0.361 OA
HETATM   30  H           1     -27.749  -5.805 -19.119  0.00  0.00     0.217 HD
ENDBRANCH  26  29
ENDBRANCH  22  23
ENDBRANCH  21  22
BRANCH  21  31
HETATM   31  N           1     -34.556  -5.700 -16.098  0.00  0.00    -0.066 N 
HETATM   32  H           1     -35.358  -5.146 -16.476  0.00  0.00     0.275 HD
HETATM   33  H           1     -34.154  -6.293 -16.859  0.00  0.00     0.275 HD
HETATM   34  H           1     -34.889  -6.310 -15.318  0.00  0.00     0.275 HD
ENDBRANCH  21  31
ENDBRANCH   3  21
TORSDOF 11
ENDMDL
MODEL 5
REMARK VINA RESULT:      -6.9      5.333      8.580
REMARK  11 active torsions:
REMARK  status: ('A' for Active; 'I' for Inactive)
REMARK    1  A    between atoms: C_1  and  C_32 
REMARK    2  A    between atoms: C_1  and  C_2 
REMARK    3  A    between atoms: C_4  and  O_7 
REMARK    4  A    between atoms: C_5  and  C_19 
REMARK    5  A    between atoms: C_5  and  C_10 
REMARK    6  A    between atoms: N_6  and  C_32 
REMARK    7  A    between atoms: N_8  and  C_28 
REMARK       I    between atoms: N_8  and  C_17 
REMARK    8  A    between atoms: C_10  and  C_28 
REMARK    9  A    between atoms: C_16  and  C_28 
REMARK   10  A    between atoms: C_17  and  C_32 
REMARK   11  A    between atoms: C_19  and  N_20 
REMARK       I    between atoms: N_20  and  C_27 
REMARK       I    between atoms: N_26  and  C_27 
ROOT
HETATM    1  N           1     -27.203  -6.604 -17.967  0.00  0.00    -0.345 N 
HETATM    2  H           1     -27.366  -7.093 -18.838  0.00  0.00     0.163 HD
HETATM    3  C           1     -25.926  -6.280 -17.593  0.00  0.00     0.249 C 
HETATM    4  O           1     -25.730  -5.698 -16.553  0.00  0.00    -0.271 OA
ENDROOT
BRANCH   1   5
HETATM    5  C           1     -28.320  -6.247 -17.115  0.00  0.00     0.185 C 
BRANCH   5   6
HETATM    6  C           1     -29.533  -5.924 -17.976  0.00  0.00     0.038 C 
BRANCH   6   7
HETATM    7  C           1     -29.500  -4.454 -18.370  0.00  0.00     0.023 C 
BRANCH   7   8
HETATM    8  C           1     -30.083  -3.612 -17.243  0.00  0.00     0.138 C 
BRANCH   8   9
HETATM    9  N           1     -31.385  -3.071 -17.657  0.00  0.00    -0.227 N 
HETATM   10  H           1     -31.432  -2.290 -18.356  0.00  0.00     0.177 HD
HETATM   11  C           1     -32.452  -3.549 -17.171  0.00  0.00     0.665 C 
HETATM   12  N           1     -32.397  -4.493 -16.328  0.00  0.00    -0.235 N 
HETATM   13  N           1     -33.604  -3.072 -17.537  0.00  0.00    -0.235 N 
HETATM   14  H           1     -31.466  -4.879 -16.033  0.00  0.00     0.174 HD
HETATM   15  H           1     -33.282  -4.889 -15.925  0.00  0.00     0.174 HD
HETATM   16  H           1     -33.650  -2.293 -18.233  0.00  0.00     0.174 HD
HETATM   17  H           1     -34.485  -3.467 -17.136  0.00  0.00     0.174 HD
ENDBRANCH   8   9
ENDBRANCH   7   8
ENDBRANCH   6   7
ENDBRANCH   5   6
BRANCH   5  18
HETATM   18  C           1     -28.645  -7.405 -16.202  0.00  0.00     0.196 C 
HETATM   19  O           1     -29.372  -8.336 -16.609  0.00  0.00    -0.646 OA
HETATM   20  O           1     -28.188  -7.432 -15.039  0.00  0.00    -0.646 OA
ENDBRANCH   5  18
ENDBRANCH   1   5
BRANCH   3  21
HETATM   21  C           1     -24.763  -6.652 -18.481  0.00  0.00     0.278 C 
BRANCH  21  22
HETATM   22  C           1     -25.279  -7.031 -19.863  0.00  0.00     0.081 C 
BRANCH  22  23
HETATM   23  C           1     -24.165  -7.622 -20.669  0.00  0.00    -0.056 A 
HETATM   24  C           1     -22.917  -7.834 -20.082  0.00  0.00     0.010 A 
HETATM   25  C           1     -21.878  -8.384 -20.832  0.00  0.00     0.037 A 
HETATM   26  C           1     -22.087  -8.721 -22.169  0.00  0.00     0.065 A 
HETATM   27  C           1     -23.334  -8.509 -22.756  0.00  0.00     0.037 A 
HETATM   28  C           1     -24.373  -7.959 -22.006  0.00  0.00     0.010 A 
BRANCH  26  29
HETATM   29  O           1     -21.078  -9.256 -22.898  0.00  0.00    -0.361 OA
HETATM   30  H           1     -20.591  -9.876 -22.329  0.00  0.00     0.217 HD
ENDBRANCH  26  29
ENDBRANCH  22  23
ENDBRANCH  21  22
BRANCH  21  31
HETATM   31  N           1     -24.033  -7.819 -17.884  0.00  0.00    -0.066 N 
HETATM   32  H           1     -24.408  -8.707 -18.286  0.00  0.00     0.275 HD
HETATM   33  H           1     -23.014  -7.740 -18.104  0.00  0.00     0.275 HD
HETATM   34  H           1     -24.167  -7.820 -16.848  0.00  0.00     0.275 HD
ENDBRANCH  21  31
ENDBRANCH   3  21
TORSDOF 11
ENDMDL
MODEL 6
REMARK VINA RESULT:      -6.9     14.040     16.256
REMARK  11 active torsions:
REMARK  status: ('A' for Active; 'I' for Inactive)
REMARK    1  A    between atoms: C_1  and  C_32 
REMARK    2  A    between atoms: C_1  and  C_2 
REMARK    3  A    between atoms: C_4  and  O_7 
REMARK    4  A    between atoms: C_5  and  C_19 
REMARK    5  A    between atoms: C_5  and  C_10 
REMARK    6  A    between atoms: N_6  and  C_32 
REMARK    7  A    between atoms: N_8  and  C_28 
REMARK       I    between atoms: N_8  and  C_17 
REMARK    8  A    between atoms: C_10  and  C_28 
REMARK    9  A    between atoms: C_16  and  C_28 
REMARK   10  A    between atoms: C_17  and  C_32 
REMARK   11  A    between atoms: C_19  and  N_20 
REMARK       I    between atoms: N_20  and  C_27 
REMARK       I    between atoms: N_26  and  C_27 
ROOT
HETATM    1  N           1     -21.052  -4.947  -6.409  0.00  0.00    -0.345 N 
HETATM    2  H           1     -20.926  -4.104  -5.863  0.00  0.00     0.163 HD
HETATM    3  C           1     -21.016  -6.171  -5.796  0.00  0.00     0.249 C 
HETATM    4  O           1     -21.165  -7.177  -6.447  0.00  0.00    -0.271 OA
ENDROOT
BRANCH   1   5
HETATM    5  C           1     -21.270  -4.860  -7.839  0.00  0.00     0.185 C 
BRANCH   5   6
HETATM    6  C           1     -22.237  -3.721  -8.137  0.00  0.00     0.038 C 
BRANCH   6   7
HETATM    7  C           1     -23.633  -4.285  -8.363  0.00  0.00     0.023 C 
BRANCH   7   8
HETATM    8  C           1     -23.980  -4.205  -9.844  0.00  0.00     0.138 C 
BRANCH   8   9
HETATM    9  N           1     -22.785  -3.821 -10.609  0.00  0.00    -0.227 N 
HETATM   10  H           1     -22.117  -3.112 -10.218  0.00  0.00     0.177 HD
HETATM   11  C           1     -22.561  -4.346 -11.738  0.00  0.00     0.665 C 
HETATM   12  N           1     -23.366  -5.202 -12.210  0.00  0.00    -0.235 N 
HETATM   13  N           1     -21.504  -4.006 -12.415  0.00  0.00    -0.235 N 
HETATM   14  H           1     -24.220  -5.476 -11.664  0.00  0.00     0.174 HD
HETATM   15  H           1     -23.179  -5.637 -13.147  0.00  0.00     0.174 HD
HETATM   16  H           1     -20.839  -3.300 -12.026  0.00  0.00     0.174 HD
HETATM   17  H           1     -21.319  -4.440 -13.348  0.00  0.00     0.174 HD
ENDBRANCH   8   9
ENDBRANCH   7   8
ENDBRANCH   6   7
ENDBRANCH   5   6
BRANCH   5  18
HETATM   18  C           1     -19.956  -4.598  -8.534  0.00  0.00     0.196 C 
HETATM   19  O           1     -18.955  -4.256  -7.867  0.00  0.00    -0.646 OA
HETATM   20  O           1     -19.868  -4.723  -9.774  0.00  0.00    -0.646 OA
ENDBRANCH   5  18
ENDBRANCH   1   5
BRANCH   3  21
HETATM   21  C           1     -20.788  -6.262  -4.307  0.00  0.00     0.278 C 
BRANCH  21  22
HETATM   22  C           1     -22.097  -6.617  -3.613  0.00  0.00     0.081 C 
BRANCH  22  23
HETATM   23  C           1     -21.806  -7.296  -2.311  0.00  0.00    -0.056 A 
HETATM   24  C           1     -22.404  -6.838  -1.137  0.00  0.00     0.010 A 
HETATM   25  C           1     -22.133  -7.469   0.076  0.00  0.00     0.037 A 
HETATM   26  C           1     -21.263  -8.558   0.115  0.00  0.00     0.065 A 
HETATM   27  C           1     -20.664  -9.016  -1.058  0.00  0.00     0.037 A 
HETATM   28  C           1     -20.935  -8.384  -2.271  0.00  0.00     0.010 A 
BRANCH  26  29
HETATM   29  O           1     -20.999  -9.172   1.295  0.00  0.00    -0.361 OA
HETATM   30  H           1     -20.043  -9.345   1.336  0.00  0.00     0.217 HD
ENDBRANCH  26  29
ENDBRANCH  22  23
ENDBRANCH  21  22
BRANCH  21  31
HETATM   31  N           1     -20.295  -4.940  -3.795  0.00  0.00    -0.066 N 
HETATM   32  H           1     -20.055  -5.026  -2.782  0.00  0.00     0.275 HD
HETATM   33  H           1     -19.444  -4.656  -4.332  0.00  0.00     0.275 HD
HETATM   34  H           1     -21.042  -4.219  -3.917  0.00  0.00     0.275 HD
ENDBRANCH  21  31
ENDBRANCH   3  21
TORSDOF 11
ENDMDL
MODEL 7
REMARK VINA RESULT:      -6.8     14.364     15.636
REMARK  11 active torsions:
REMARK  status: ('A' for Active; 'I' for Inactive)
REMARK    1  A    between atoms: C_1  and  C_32 
REMARK    2  A    between atoms: C_1  and  C_2 
REMARK    3  A    between atoms: C_4  and  O_7 
REMARK    4  A    between atoms: C_5  and  C_19 
REMARK    5  A    between atoms: C_5  and  C_10 
REMARK    6  A    between atoms: N_6  and  C_32 
REMARK    7  A    between atoms: N_8  and  C_28 
REMARK       I    between atoms: N_8  and  C_17 
REMARK    8  A    between atoms: C_10  and  C_28 
REMARK    9  A    between atoms: C_16  and  C_28 
REMARK   10  A    between atoms: C_17  and  C_32 
REMARK   11  A    between atoms: C_19  and  N_20 
REMARK       I    between atoms: N_20  and  C_27 
REMARK       I    between atoms: N_26  and  C_27 
ROOT
HETATM    1  N           1     -21.185  -6.491  -3.542  0.00  0.00    -0.345 N 
HETATM    2  H           1     -20.925  -5.591  -3.158  0.00  0.00     0.163 HD
HETATM    3  C           1     -21.312  -6.646  -4.896  0.00  0.00     0.249 C 
HETATM    4  O           1     -21.623  -7.720  -5.354  0.00  0.00    -0.271 OA
ENDROOT
BRANCH   1   5
HETATM    5  C           1     -21.422  -7.615  -2.658  0.00  0.00     0.185 C 
BRANCH   5   6
HETATM    6  C           1     -20.090  -8.218  -2.232  0.00  0.00     0.038 C 
BRANCH   6   7
HETATM    7  C           1     -20.073  -9.702  -2.570  0.00  0.00     0.023 C 
BRANCH   7   8
HETATM    8  C           1     -19.192  -9.936  -3.790  0.00  0.00     0.138 C 
BRANCH   8   9
HETATM    9  N           1     -20.037 -10.108  -4.980  0.00  0.00    -0.227 N 
HETATM   10  H           1     -20.659  -9.325  -5.301  0.00  0.00     0.177 HD
HETATM   11  C           1     -20.015 -11.200  -5.620  0.00  0.00     0.665 C 
HETATM   12  N           1     -19.264 -12.144  -5.235  0.00  0.00    -0.235 N 
HETATM   13  N           1     -20.762 -11.352  -6.673  0.00  0.00    -0.235 N 
HETATM   14  H           1     -18.661 -12.021  -4.384  0.00  0.00     0.174 HD
HETATM   15  H           1     -19.246 -13.050  -5.765  0.00  0.00     0.174 HD
HETATM   16  H           1     -21.381 -10.573  -6.992  0.00  0.00     0.174 HD
HETATM   17  H           1     -20.743 -12.254  -7.201  0.00  0.00     0.174 HD
ENDBRANCH   8   9
ENDBRANCH   7   8
ENDBRANCH   6   7
ENDBRANCH   5   6
BRANCH   5  18
HETATM   18  C           1     -22.174  -7.143  -1.436  0.00  0.00     0.196 C 
HETATM   19  O           1     -22.424  -5.928  -1.287  0.00  0.00    -0.646 OA
HETATM   20  O           1     -22.547  -7.968  -0.575  0.00  0.00    -0.646 OA
ENDBRANCH   5  18
ENDBRANCH   1   5
BRANCH   3  21
HETATM   21  C           1     -21.065  -5.476  -5.816  0.00  0.00     0.278 C 
BRANCH  21  22
HETATM   22  C           1     -20.451  -5.974  -7.118  0.00  0.00     0.081 C 
BRANCH  22  23
HETATM   23  C           1     -20.935  -5.129  -8.255  0.00  0.00    -0.056 A 
HETATM   24  C           1     -22.223  -4.593  -8.226  0.00  0.00     0.010 A 
HETATM   25  C           1     -22.675  -3.806  -9.285  0.00  0.00     0.037 A 
HETATM   26  C           1     -21.839  -3.556 -10.373  0.00  0.00     0.065 A 
HETATM   27  C           1     -20.552  -4.091 -10.403  0.00  0.00     0.037 A 
HETATM   28  C           1     -20.100  -4.878  -9.344  0.00  0.00     0.010 A 
BRANCH  26  29
HETATM   29  O           1     -22.278  -2.791 -11.402  0.00  0.00    -0.361 OA
HETATM   30  H           1     -22.951  -3.297 -11.887  0.00  0.00     0.217 HD
ENDBRANCH  26  29
ENDBRANCH  22  23
ENDBRANCH  21  22
BRANCH  21  31
HETATM   31  N           1     -20.123  -4.513  -5.157  0.00  0.00    -0.066 N 
HETATM   32  H           1     -19.523  -4.059  -5.883  0.00  0.00     0.275 HD
HETATM   33  H           1     -20.672  -3.780  -4.652  0.00  0.00     0.275 HD
HETATM   34  H           1     -19.519  -5.027  -4.476  0.00  0.00     0.275 HD
ENDBRANCH  21  31
ENDBRANCH   3  21
TORSDOF 11
ENDMDL
MODEL 8
REMARK VINA RESULT:      -6.6     14.957     17.345
REMARK  11 active torsions:
REMARK  status: ('A' for Active; 'I' for Inactive)
REMARK    1  A    between atoms: C_1  and  C_32 
REMARK    2  A    between atoms: C_1  and  C_2 
REMARK    3  A    between atoms: C_4  and  O_7 
REMARK    4  A    between atoms: C_5  and  C_19 
REMARK    5  A    between atoms: C_5  and  C_10 
REMARK    6  A    between atoms: N_6  and  C_32 
REMARK    7  A    between atoms: N_8  and  C_28 
REMARK       I    between atoms: N_8  and  C_17 
REMARK    8  A    between atoms: C_10  and  C_28 
REMARK    9  A    between atoms: C_16  and  C_28 
REMARK   10  A    between atoms: C_17  and  C_32 
REMARK   11  A    between atoms: C_19  and  N_20 
REMARK       I    between atoms: N_20  and  C_27 
REMARK       I    between atoms: N_26  and  C_27 
ROOT
HETATM    1  N           1     -21.084  -8.593  -4.441  0.00  0.00    -0.345 N 
HETATM    2  H           1     -21.996  -9.025  -4.524  0.00  0.00     0.163 HD
HETATM    3  C           1     -20.025  -9.319  -3.967  0.00  0.00     0.249 C 
HETATM    4  O           1     -18.936  -8.805  -3.867  0.00  0.00    -0.271 OA
ENDROOT
BRANCH   1   5
HETATM    5  C           1     -20.900  -7.208  -4.824  0.00  0.00     0.185 C 
BRANCH   5   6
HETATM    6  C           1     -20.866  -7.100  -6.342  0.00  0.00     0.038 C 
BRANCH   6   7
HETATM    7  C           1     -19.987  -5.925  -6.749  0.00  0.00     0.023 C 
BRANCH   7   8
HETATM    8  C           1     -20.605  -5.218  -7.948  0.00  0.00     0.138 C 
BRANCH   8   9
HETATM    9  N           1     -21.964  -4.774  -7.608  0.00  0.00    -0.227 N 
HETATM   10  H           1     -22.302  -4.828  -6.616  0.00  0.00     0.177 HD
HETATM   11  C           1     -22.726  -4.323  -8.512  0.00  0.00     0.665 C 
HETATM   12  N           1     -22.319  -4.255  -9.710  0.00  0.00    -0.235 N 
HETATM   13  N           1     -23.928  -3.929  -8.213  0.00  0.00    -0.235 N 
HETATM   14  H           1     -21.348  -4.573  -9.952  0.00  0.00     0.174 HD
HETATM   15  H           1     -22.952  -3.881 -10.459  0.00  0.00     0.174 HD
HETATM   16  H           1     -24.265  -3.984  -7.224  0.00  0.00     0.174 HD
HETATM   17  H           1     -24.558  -3.556  -8.959  0.00  0.00     0.174 HD
ENDBRANCH   8   9
ENDBRANCH   7   8
ENDBRANCH   6   7
ENDBRANCH   5   6
BRANCH   5  18
HETATM   18  C           1     -22.044  -6.382  -4.287  0.00  0.00     0.196 C 
HETATM   19  O           1     -22.995  -6.072  -5.036  0.00  0.00    -0.646 OA
HETATM   20  O           1     -22.040  -6.009  -3.095  0.00  0.00    -0.646 OA
ENDBRANCH   5  18
ENDBRANCH   1   5
BRANCH   3  21
HETATM   21  C           1     -20.217 -10.762  -3.568  0.00  0.00     0.278 C 
BRANCH  21  22
HETATM   22  C           1     -19.953 -10.917  -2.076  0.00  0.00     0.081 C 
BRANCH  22  23
HETATM   23  C           1     -20.972 -10.136  -1.305  0.00  0.00    -0.056 A 
HETATM   24  C           1     -22.245 -10.667  -1.096  0.00  0.00     0.010 A 
HETATM   25  C           1     -23.194  -9.941  -0.377  0.00  0.00     0.037 A 
HETATM   26  C           1     -22.870  -8.683   0.131  0.00  0.00     0.065 A 
HETATM   27  C           1     -21.598  -8.152  -0.078  0.00  0.00     0.037 A 
HETATM   28  C           1     -20.649  -8.878  -0.796  0.00  0.00     0.010 A 
BRANCH  26  29
HETATM   29  O           1     -23.793  -7.977   0.829  0.00  0.00    -0.361 OA
HETATM   30  H           1     -23.458  -7.858   1.734  0.00  0.00     0.217 HD
ENDBRANCH  26  29
ENDBRANCH  22  23
ENDBRANCH  21  22
BRANCH  21  31
HETATM   31  N           1     -19.259 -11.624  -4.336  0.00  0.00    -0.066 N 
HETATM   32  H           1     -18.310 -11.184  -4.327  0.00  0.00     0.275 HD
HETATM   33  H           1     -19.208 -12.569  -3.891  0.00  0.00     0.275 HD
HETATM   34  H           1     -19.589 -11.719  -5.323  0.00  0.00     0.275 HD
ENDBRANCH  21  31
ENDBRANCH   3  21
TORSDOF 11
ENDMDL
MODEL 9
REMARK VINA RESULT:      -6.6     14.374     16.043
REMARK  11 active torsions:
REMARK  status: ('A' for Active; 'I' for Inactive)
REMARK    1  A    between atoms: C_1  and  C_32 
REMARK    2  A    between atoms: C_1  and  C_2 
REMARK    3  A    between atoms: C_4  and  O_7 
REMARK    4  A    between atoms: C_5  and  C_19 
REMARK    5  A    between atoms: C_5  and  C_10 
REMARK    6  A    between atoms: N_6  and  C_32 
REMARK    7  A    between atoms: N_8  and  C_28 
REMARK       I    between atoms: N_8  and  C_17 
REMARK    8  A    between atoms: C_10  and  C_28 
REMARK    9  A    between atoms: C_16  and  C_28 
REMARK   10  A    between atoms: C_17  and  C_32 
REMARK   11  A    between atoms: C_19  and  N_20 
REMARK       I    between atoms: N_20  and  C_27 
REMARK       I    between atoms: N_26  and  C_27 
ROOT
HETATM    1  N           1     -20.757  -5.548  -5.374  0.00  0.00    -0.345 N 
HETATM    2  H           1     -19.821  -5.392  -5.021  0.00  0.00     0.163 HD
HETATM    3  C           1     -21.701  -6.133  -4.575  0.00  0.00     0.249 C 
HETATM    4  O           1     -22.818  -6.320  -4.996  0.00  0.00    -0.271 OA
ENDROOT
BRANCH   1   5
HETATM    5  C           1     -21.096  -5.151  -6.726  0.00  0.00     0.185 C 
BRANCH   5   6
HETATM    6  C           1     -21.611  -3.718  -6.722  0.00  0.00     0.038 C 
BRANCH   6   7
HETATM    7  C           1     -22.058  -3.334  -8.126  0.00  0.00     0.023 C 
BRANCH   7   8
HETATM    8  C           1     -23.218  -4.224  -8.552  0.00  0.00     0.138 C 
BRANCH   8   9
HETATM    9  N           1     -22.933  -4.804  -9.872  0.00  0.00    -0.227 N 
HETATM   10  H           1     -22.086  -5.409 -10.009  0.00  0.00     0.177 HD
HETATM   11  C           1     -23.710  -4.575 -10.845  0.00  0.00     0.665 C 
HETATM   12  N           1     -24.732  -3.847 -10.682  0.00  0.00    -0.235 N 
HETATM   13  N           1     -23.458  -5.089 -12.012  0.00  0.00    -0.235 N 
HETATM   14  H           1     -24.936  -3.432  -9.738  0.00  0.00     0.174 HD
HETATM   15  H           1     -25.377  -3.657 -11.489  0.00  0.00     0.174 HD
HETATM   16  H           1     -22.614  -5.691 -12.148  0.00  0.00     0.174 HD
HETATM   17  H           1     -24.100  -4.900 -12.816  0.00  0.00     0.174 HD
ENDBRANCH   8   9
ENDBRANCH   7   8
ENDBRANCH   6   7
ENDBRANCH   5   6
BRANCH   5  18
HETATM   18  C           1     -19.869  -5.242  -7.600  0.00  0.00     0.196 C 
HETATM   19  O           1     -18.804  -4.697  -7.239  0.00  0.00    -0.646 OA
HETATM   20  O           1     -19.917  -5.863  -8.683  0.00  0.00    -0.646 OA
ENDBRANCH   5  18
ENDBRANCH   1   5
BRANCH   3  21
HETATM   21  C           1     -21.347  -6.545  -3.167  0.00  0.00     0.278 C 
BRANCH  21  22
HETATM   22  C           1     -21.409  -8.063  -3.051  0.00  0.00     0.081 C 
BRANCH  22  23
HETATM   23  C           1     -20.087  -8.648  -3.442  0.00  0.00    -0.056 A 
HETATM   24  C           1     -19.137  -8.939  -2.463  0.00  0.00     0.010 A 
HETATM   25  C           1     -17.906  -9.484  -2.826  0.00  0.00     0.037 A 
HETATM   26  C           1     -17.625  -9.738  -4.169  0.00  0.00     0.065 A 
HETATM   27  C           1     -18.575  -9.448  -5.147  0.00  0.00     0.037 A 
HETATM   28  C           1     -19.806  -8.903  -4.784  0.00  0.00     0.010 A 
BRANCH  26  29
HETATM   29  O           1     -16.429 -10.268  -4.522  0.00  0.00    -0.361 OA
HETATM   30  H           1     -15.736  -9.626  -4.290  0.00  0.00     0.217 HD
ENDBRANCH  26  29
ENDBRANCH  22  23
ENDBRANCH  21  22
BRANCH  21  31
HETATM   31  N           1     -22.323  -5.932  -2.207  0.00  0.00    -0.066 N 
HETATM   32  H           1     -21.911  -5.928  -1.246  0.00  0.00     0.275 HD
HETATM   33  H           1     -22.529  -4.950  -2.500  0.00  0.00     0.275 HD
HETATM   34  H           1     -23.207  -6.489  -2.205  0.00  0.00     0.275 HD
ENDBRANCH  21  31
ENDBRANCH   3  21
TORSDOF 11
ENDMDL
