MODEL 1
REMARK VINA RESULT:      -8.5      0.000      0.000
REMARK  8 active torsions:
REMARK  status: ('A' for Active; 'I' for Inactive)
REMARK    1  A    between atoms: C_2  and  C_3 
REMARK    2  A    between atoms: C_3  and  C_4 
REMARK    3  A    between atoms: C_4  and  C_30 
REMARK    4  A    between atoms: C_4  and  N_22 
REMARK    5  A    between atoms: N_6  and  C_11 
REMARK    6  A    between atoms: C_11  and  C_23 
REMARK    7  A    between atoms: C_11  and  C_13 
REMARK    8  A    between atoms: C_13  and  C_17 
REMARK       I    between atoms: N_22  and  C_23 
ROOT
HETATM    1  C           1     -21.670  -6.280  -5.368  0.00  0.00     0.278 C 
ENDROOT
BRANCH   1   2
HETATM    2  N           1     -21.782  -5.955  -3.908  0.00  0.00    -0.066 N 
HETATM    3  H           1     -20.833  -5.975  -3.471  0.00  0.00     0.275 HD
HETATM    4  H           1     -22.196  -5.001  -3.795  0.00  0.00     0.275 HD
HETATM    5  H           1     -22.396  -6.658  -3.440  0.00  0.00     0.275 HD
ENDBRANCH   1   2
BRANCH   1   6
HETATM    6  C           1     -20.809  -7.507  -5.543  0.00  0.00     0.249 C 
HETATM    7  O           1     -19.773  -7.436  -6.160  0.00  0.00    -0.271 OA
HETATM    8  N           1     -21.202  -8.702  -5.003  0.00  0.00    -0.344 N 
HETATM    9  H           1     -22.071  -8.762  -4.486  0.00  0.00     0.163 HD
BRANCH   8  10
HETATM   10  C           1     -20.377  -9.881  -5.172  0.00  0.00     0.189 C 
BRANCH  10  11
HETATM   11  C           1     -19.695 -10.217  -3.852  0.00  0.00     0.074 C 
BRANCH  11  12
HETATM   12  C           1     -18.218 -10.014  -3.986  0.00  0.00    -0.056 A 
HETATM   13  C           1     -17.608 -10.133  -5.234  0.00  0.00     0.007 A 
HETATM   14  C           1     -16.231  -9.945  -5.358  0.00  0.00     0.001 A 
HETATM   15  C           1     -15.465  -9.638  -4.234  0.00  0.00     0.000 A 
HETATM   16  C           1     -16.075  -9.519  -2.986  0.00  0.00     0.001 A 
HETATM   17  C           1     -17.452  -9.708  -2.861  0.00  0.00     0.007 A 
ENDBRANCH  11  12
ENDBRANCH  10  11
BRANCH  10  18
HETATM   18  C           1     -21.239 -11.043  -5.601  0.00  0.00     0.197 C 
HETATM   19  O           1     -21.231 -11.422  -6.792  0.00  0.00    -0.646 OA
HETATM   20  O           1     -21.963 -11.627  -4.764  0.00  0.00    -0.646 OA
ENDBRANCH  10  18
ENDBRANCH   8  10
ENDBRANCH   1   6
BRANCH   1  21
HETATM   21  C           1     -21.034  -5.106  -6.100  0.00  0.00     0.083 C 
BRANCH  21  22
HETATM   22  C           1     -21.922  -4.683  -7.230  0.00  0.00    -0.028 A 
HETATM   23  C           1     -23.268  -4.407  -7.143  0.00  0.00     0.096 A 
HETATM   24  N           1     -23.705  -4.059  -8.395  0.00  0.00    -0.365 N 
HETATM   25  H           1     -24.692  -3.795  -8.634  0.00  0.00     0.165 HD
HETATM   26  C           1     -22.662  -4.104  -9.293  0.00  0.00     0.042 A 
HETATM   27  C           1     -22.638  -3.831 -10.665  0.00  0.00     0.030 A 
HETATM   28  C           1     -21.527  -4.495  -8.583  0.00  0.00    -0.002 A 
HETATM   29  C           1     -21.415  -3.963 -11.330  0.00  0.00     0.002 A 
HETATM   30  C           1     -20.264  -4.352 -10.646  0.00  0.00     0.001 A 
HETATM   31  C           1     -20.306  -4.622  -9.273  0.00  0.00     0.014 A 
ENDBRANCH  21  22
ENDBRANCH   1  21
TORSDOF 8
ENDMDL
MODEL 2
REMARK VINA RESULT:      -8.4      2.620      3.983
REMARK  8 active torsions:
REMARK  status: ('A' for Active; 'I' for Inactive)
REMARK    1  A    between atoms: C_2  and  C_3 
REMARK    2  A    between atoms: C_3  and  C_4 
REMARK    3  A    between atoms: C_4  and  C_30 
REMARK    4  A    between atoms: C_4  and  N_22 
REMARK    5  A    between atoms: N_6  and  C_11 
REMARK    6  A    between atoms: C_11  and  C_23 
REMARK    7  A    between atoms: C_11  and  C_13 
REMARK    8  A    between atoms: C_13  and  C_17 
REMARK       I    between atoms: N_22  and  C_23 
ROOT
HETATM    1  C           1     -21.110  -5.382  -5.195  0.00  0.00     0.278 C 
ENDROOT
BRANCH   1   2
HETATM    2  N           1     -19.866  -4.550  -5.092  0.00  0.00    -0.066 N 
HETATM    3  H           1     -19.671  -4.098  -6.014  0.00  0.00     0.275 HD
HETATM    4  H           1     -20.000  -3.812  -4.364  0.00  0.00     0.275 HD
HETATM    5  H           1     -19.060  -5.159  -4.826  0.00  0.00     0.275 HD
ENDBRANCH   1   2
BRANCH   1   6
HETATM    6  C           1     -21.084  -6.458  -4.137  0.00  0.00     0.249 C 
HETATM    7  O           1     -21.596  -6.260  -3.061  0.00  0.00    -0.271 OA
HETATM    8  N           1     -20.480  -7.658  -4.397  0.00  0.00    -0.344 N 
HETATM    9  H           1     -20.050  -7.824  -5.298  0.00  0.00     0.163 HD
BRANCH   8  10
HETATM   10  C           1     -20.453  -8.692  -3.381  0.00  0.00     0.189 C 
BRANCH  10  11
HETATM   11  C           1     -21.492  -9.755  -3.712  0.00  0.00     0.074 C 
BRANCH  11  12
HETATM   12  C           1     -22.275 -10.092  -2.481  0.00  0.00    -0.056 A 
HETATM   13  C           1     -22.177  -9.282  -1.350  0.00  0.00     0.007 A 
HETATM   14  C           1     -22.906  -9.596  -0.203  0.00  0.00     0.001 A 
HETATM   15  C           1     -23.733 -10.719  -0.188  0.00  0.00     0.000 A 
HETATM   16  C           1     -23.831 -11.528  -1.320  0.00  0.00     0.001 A 
HETATM   17  C           1     -23.102 -11.215  -2.466  0.00  0.00     0.007 A 
ENDBRANCH  11  12
ENDBRANCH  10  11
BRANCH  10  18
HETATM   18  C           1     -19.083  -9.323  -3.340  0.00  0.00     0.197 C 
HETATM   19  O           1     -18.735  -9.998  -2.347  0.00  0.00    -0.646 OA
HETATM   20  O           1     -18.296  -9.173  -4.301  0.00  0.00    -0.646 OA
ENDBRANCH  10  18
ENDBRANCH   8  10
ENDBRANCH   1   6
BRANCH   1  21
HETATM   21  C           1     -21.175  -6.027  -6.573  0.00  0.00     0.083 C 
BRANCH  21  22
HETATM   22  C           1     -21.965  -5.152  -7.497  0.00  0.00    -0.028 A 
HETATM   23  C           1     -23.225  -4.649  -7.258  0.00  0.00     0.096 A 
HETATM   24  N           1     -23.589  -3.901  -8.347  0.00  0.00    -0.365 N 
HETATM   25  H           1     -24.502  -3.393  -8.448  0.00  0.00     0.165 HD
HETATM   26  C           1     -22.585  -3.911  -9.289  0.00  0.00     0.042 A 
HETATM   27  C           1     -22.515  -3.293 -10.543  0.00  0.00     0.030 A 
HETATM   28  C           1     -21.550  -4.693  -8.777  0.00  0.00    -0.002 A 
HETATM   29  C           1     -21.351  -3.482 -11.294  0.00  0.00     0.002 A 
HETATM   30  C           1     -20.301  -4.259 -10.808  0.00  0.00     0.001 A 
HETATM   31  C           1     -20.387  -4.870  -9.551  0.00  0.00     0.014 A 
ENDBRANCH  21  22
ENDBRANCH   1  21
TORSDOF 8
ENDMDL
MODEL 3
REMARK VINA RESULT:      -8.4      2.226      3.312
REMARK  8 active torsions:
REMARK  status: ('A' for Active; 'I' for Inactive)
REMARK    1  A    between atoms: C_2  and  C_3 
REMARK    2  A    between atoms: C_3  and  C_4 
REMARK    3  A    between atoms: C_4  and  C_30 
REMARK    4  A    between atoms: C_4  and  N_22 
REMARK    5  A    between atoms: N_6  and  C_11 
REMARK    6  A    between atoms: C_11  and  C_23 
REMARK    7  A    between atoms: C_11  and  C_13 
REMARK    8  A    between atoms: C_13  and  C_17 
REMARK       I    between atoms: N_22  and  C_23 
ROOT
HETATM    1  C           1     -21.766  -6.554  -5.663  0.00  0.00     0.278 C 
ENDROOT
BRANCH   1   2
HETATM    2  N           1     -22.572  -6.167  -4.459  0.00  0.00    -0.066 N 
HETATM    3  H           1     -23.530  -6.578  -4.534  0.00  0.00     0.275 HD
HETATM    4  H           1     -22.105  -6.528  -3.597  0.00  0.00     0.275 HD
HETATM    5  H           1     -22.643  -5.126  -4.407  0.00  0.00     0.275 HD
ENDBRANCH   1   2
BRANCH   1   6
HETATM    6  C           1     -20.716  -7.560  -5.262  0.00  0.00     0.249 C 
HETATM    7  O           1     -19.719  -7.695  -5.931  0.00  0.00    -0.271 OA
HETATM    8  N           1     -20.891  -8.321  -4.137  0.00  0.00    -0.344 N 
HETATM    9  H           1     -21.725  -8.208  -3.575  0.00  0.00     0.163 HD
BRANCH   8  10
HETATM   10  C           1     -19.883  -9.288  -3.751  0.00  0.00     0.189 C 
BRANCH  10  11
HETATM   11  C           1     -19.446  -9.021  -2.316  0.00  0.00     0.074 C 
BRANCH  11  12
HETATM   12  C           1     -20.647  -8.711  -1.477  0.00  0.00    -0.056 A 
HETATM   13  C           1     -21.159  -7.414  -1.444  0.00  0.00     0.007 A 
HETATM   14  C           1     -22.277  -7.125  -0.662  0.00  0.00     0.001 A 
HETATM   15  C           1     -22.884  -8.134   0.087  0.00  0.00     0.000 A 
HETATM   16  C           1     -22.372  -9.431   0.053  0.00  0.00     0.001 A 
HETATM   17  C           1     -21.254  -9.719  -0.729  0.00  0.00     0.007 A 
ENDBRANCH  11  12
ENDBRANCH  10  11
BRANCH  10  18
HETATM   18  C           1     -20.456 -10.680  -3.850  0.00  0.00     0.197 C 
HETATM   19  O           1     -21.646 -10.843  -4.196  0.00  0.00    -0.646 OA
HETATM   20  O           1     -19.741 -11.671  -3.587  0.00  0.00    -0.646 OA
ENDBRANCH  10  18
ENDBRANCH   8  10
ENDBRANCH   1   6
BRANCH   1  21
HETATM   21  C           1     -21.089  -5.317  -6.239  0.00  0.00     0.083 C 
BRANCH  21  22
HETATM   22  C           1     -21.931  -4.756  -7.344  0.00  0.00    -0.028 A 
HETATM   23  C           1     -23.255  -4.393  -7.250  0.00  0.00     0.096 A 
HETATM   24  N           1     -23.650  -3.930  -8.478  0.00  0.00    -0.365 N 
HETATM   25  H           1     -24.613  -3.581  -8.707  0.00  0.00     0.165 HD
HETATM   26  C           1     -22.601  -3.988  -9.369  0.00  0.00     0.042 A 
HETATM   27  C           1     -22.540  -3.625 -10.719  0.00  0.00     0.030 A 
HETATM   28  C           1     -21.505  -4.506  -8.678  0.00  0.00    -0.002 A 
HETATM   29  C           1     -21.321  -3.799 -11.381  0.00  0.00     0.002 A 
HETATM   30  C           1     -20.209  -4.314 -10.716  0.00  0.00     0.001 A 
HETATM   31  C           1     -20.287  -4.673  -9.365  0.00  0.00     0.014 A 
ENDBRANCH  21  22
ENDBRANCH   1  21
TORSDOF 8
ENDMDL
MODEL 4
REMARK VINA RESULT:      -8.1      2.449      3.736
REMARK  8 active torsions:
REMARK  status: ('A' for Active; 'I' for Inactive)
REMARK    1  A    between atoms: C_2  and  C_3 
REMARK    2  A    between atoms: C_3  and  C_4 
REMARK    3  A    between atoms: C_4  and  C_30 
REMARK    4  A    between atoms: C_4  and  N_22 
REMARK    5  A    between atoms: N_6  and  C_11 
REMARK    6  A    between atoms: C_11  and  C_23 
REMARK    7  A    between atoms: C_11  and  C_13 
REMARK    8  A    between atoms: C_13  and  C_17 
REMARK       I    between atoms: N_22  and  C_23 
ROOT
HETATM    1  C           1     -21.640  -6.365  -5.791  0.00  0.00     0.278 C 
ENDROOT
BRANCH   1   2
HETATM    2  N           1     -22.718  -6.194  -4.762  0.00  0.00    -0.066 N 
HETATM    3  H           1     -23.539  -5.713  -5.194  0.00  0.00     0.275 HD
HETATM    4  H           1     -23.012  -7.132  -4.407  0.00  0.00     0.275 HD
HETATM    5  H           1     -22.355  -5.620  -3.969  0.00  0.00     0.275 HD
ENDBRANCH   1   2
BRANCH   1   6
HETATM    6  C           1     -20.688  -7.448  -5.345  0.00  0.00     0.249 C 
HETATM    7  O           1     -19.705  -7.697  -6.002  0.00  0.00    -0.271 OA
HETATM    8  N           1     -20.938  -8.149  -4.196  0.00  0.00    -0.344 N 
HETATM    9  H           1     -21.762  -7.941  -3.645  0.00  0.00     0.163 HD
BRANCH   8  10
HETATM   10  C           1     -20.025  -9.189  -3.768  0.00  0.00     0.189 C 
BRANCH  10  11
HETATM   11  C           1     -19.553  -8.898  -2.349  0.00  0.00     0.074 C 
BRANCH  11  12
HETATM   12  C           1     -20.730  -8.555  -1.490  0.00  0.00    -0.056 A 
HETATM   13  C           1     -21.257  -9.507  -0.617  0.00  0.00     0.007 A 
HETATM   14  C           1     -22.354  -9.188   0.183  0.00  0.00     0.001 A 
HETATM   15  C           1     -22.924  -7.917   0.110  0.00  0.00     0.000 A 
HETATM   16  C           1     -22.396  -6.965  -0.763  0.00  0.00     0.001 A 
HETATM   17  C           1     -21.300  -7.284  -1.563  0.00  0.00     0.007 A 
ENDBRANCH  11  12
ENDBRANCH  10  11
BRANCH  10  18
HETATM   18  C           1     -20.731 -10.523  -3.797  0.00  0.00     0.197 C 
HETATM   19  O           1     -20.146 -11.549  -3.389  0.00  0.00    -0.646 OA
HETATM   20  O           1     -21.902 -10.601  -4.230  0.00  0.00    -0.646 OA
ENDBRANCH  10  18
ENDBRANCH   8  10
ENDBRANCH   1   6
BRANCH   1  21
HETATM   21  C           1     -20.879  -5.055  -5.950  0.00  0.00     0.083 C 
BRANCH  21  22
HETATM   22  C           1     -20.779  -4.709  -7.404  0.00  0.00    -0.028 A 
HETATM   23  C           1     -19.624  -4.679  -8.152  0.00  0.00     0.096 A 
HETATM   24  N           1     -19.964  -4.316  -9.429  0.00  0.00    -0.365 N 
HETATM   25  H           1     -19.286  -4.211 -10.224  0.00  0.00     0.165 HD
HETATM   26  C           1     -21.323  -4.112  -9.522  0.00  0.00     0.042 A 
HETATM   27  C           1     -22.108  -3.735 -10.617  0.00  0.00     0.030 A 
HETATM   28  C           1     -21.860  -4.353  -8.257  0.00  0.00    -0.002 A 
HETATM   29  C           1     -23.484  -3.601 -10.410  0.00  0.00     0.002 A 
HETATM   30  C           1     -24.049  -3.835  -9.158  0.00  0.00     0.001 A 
HETATM   31  C           1     -23.249  -4.211  -8.072  0.00  0.00     0.014 A 
ENDBRANCH  21  22
ENDBRANCH   1  21
TORSDOF 8
ENDMDL
MODEL 5
REMARK VINA RESULT:      -8.0      2.853      7.971
REMARK  8 active torsions:
REMARK  status: ('A' for Active; 'I' for Inactive)
REMARK    1  A    between atoms: C_2  and  C_3 
REMARK    2  A    between atoms: C_3  and  C_4 
REMARK    3  A    between atoms: C_4  and  C_30 
REMARK    4  A    between atoms: C_4  and  N_22 
REMARK    5  A    between atoms: N_6  and  C_11 
REMARK    6  A    between atoms: C_11  and  C_23 
REMARK    7  A    between atoms: C_11  and  C_13 
REMARK    8  A    between atoms: C_13  and  C_17 
REMARK       I    between atoms: N_22  and  C_23 
ROOT
HETATM    1  C           1     -21.224  -9.785  -5.065  0.00  0.00     0.278 C 
ENDROOT
BRANCH   1   2
HETATM    2  N           1     -20.920 -10.785  -6.141  0.00  0.00    -0.066 N 
HETATM    3  H           1     -21.371 -11.698  -5.907  0.00  0.00     0.275 HD
HETATM    4  H           1     -21.292 -10.437  -7.055  0.00  0.00     0.275 HD
HETATM    5  H           1     -19.886 -10.916  -6.214  0.00  0.00     0.275 HD
ENDBRANCH   1   2
BRANCH   1   6
HETATM    6  C           1     -20.732  -8.424  -5.492  0.00  0.00     0.249 C 
HETATM    7  O           1     -19.556  -8.242  -5.697  0.00  0.00    -0.271 OA
HETATM    8  N           1     -21.620  -7.394  -5.647  0.00  0.00    -0.344 N 
HETATM    9  H           1     -22.606  -7.545  -5.476  0.00  0.00     0.163 HD
BRANCH   8  10
HETATM   10  C           1     -21.149  -6.085  -6.057  0.00  0.00     0.189 C 
BRANCH  10  11
HETATM   11  C           1     -22.273  -5.339  -6.763  0.00  0.00     0.074 C 
BRANCH  11  12
HETATM   12  C           1     -21.798  -4.872  -8.104  0.00  0.00    -0.056 A 
HETATM   13  C           1     -20.462  -5.036  -8.467  0.00  0.00     0.007 A 
HETATM   14  C           1     -20.020  -4.599  -9.716  0.00  0.00     0.001 A 
HETATM   15  C           1     -20.915  -3.999 -10.602  0.00  0.00     0.000 A 
HETATM   16  C           1     -22.252  -3.836 -10.239  0.00  0.00     0.001 A 
HETATM   17  C           1     -22.693  -4.272  -8.990  0.00  0.00     0.007 A 
ENDBRANCH  11  12
ENDBRANCH  10  11
BRANCH  10  18
HETATM   18  C           1     -20.714  -5.304  -4.841  0.00  0.00     0.197 C 
HETATM   19  O           1     -19.854  -4.403  -4.952  0.00  0.00    -0.646 OA
HETATM   20  O           1     -21.215  -5.556  -3.723  0.00  0.00    -0.646 OA
ENDBRANCH  10  18
ENDBRANCH   8  10
ENDBRANCH   1   6
BRANCH   1  21
HETATM   21  C           1     -20.522 -10.197  -3.778  0.00  0.00     0.083 C 
BRANCH  21  22
HETATM   22  C           1     -21.539 -10.407  -2.700  0.00  0.00    -0.028 A 
HETATM   23  C           1     -22.280 -11.549  -2.494  0.00  0.00     0.096 A 
HETATM   24  N           1     -23.091 -11.332  -1.411  0.00  0.00    -0.365 N 
HETATM   25  H           1     -23.769 -12.031  -1.019  0.00  0.00     0.165 HD
HETATM   26  C           1     -22.889 -10.065  -0.910  0.00  0.00     0.042 A 
HETATM   27  C           1     -23.487  -9.415   0.175  0.00  0.00     0.030 A 
HETATM   28  C           1     -21.915  -9.461  -1.706  0.00  0.00    -0.002 A 
HETATM   29  C           1     -23.077  -8.108   0.453  0.00  0.00     0.002 A 
HETATM   30  C           1     -22.106  -7.479  -0.325  0.00  0.00     0.001 A 
HETATM   31  C           1     -21.517  -8.143  -1.407  0.00  0.00     0.014 A 
ENDBRANCH  21  22
ENDBRANCH   1  21
TORSDOF 8
ENDMDL
MODEL 6
REMARK VINA RESULT:      -8.0      3.160      4.393
REMARK  8 active torsions:
REMARK  status: ('A' for Active; 'I' for Inactive)
REMARK    1  A    between atoms: C_2  and  C_3 
REMARK    2  A    between atoms: C_3  and  C_4 
REMARK    3  A    between atoms: C_4  and  C_30 
REMARK    4  A    between atoms: C_4  and  N_22 
REMARK    5  A    between atoms: N_6  and  C_11 
REMARK    6  A    between atoms: C_11  and  C_23 
REMARK    7  A    between atoms: C_11  and  C_13 
REMARK    8  A    between atoms: C_13  and  C_17 
REMARK       I    between atoms: N_22  and  C_23 
ROOT
HETATM    1  C           1     -20.598  -5.881  -5.920  0.00  0.00     0.278 C 
ENDROOT
BRANCH   1   2
HETATM    2  N           1     -20.798  -6.670  -7.180  0.00  0.00    -0.066 N 
HETATM    3  H           1     -20.681  -6.042  -8.007  0.00  0.00     0.275 HD
HETATM    4  H           1     -20.091  -7.439  -7.225  0.00  0.00     0.275 HD
HETATM    5  H           1     -21.759  -7.079  -7.186  0.00  0.00     0.275 HD
ENDBRANCH   1   2
BRANCH   1   6
HETATM    6  C           1     -21.460  -6.458  -4.824  0.00  0.00     0.249 C 
HETATM    7  O           1     -22.663  -6.423  -4.920  0.00  0.00    -0.271 OA
HETATM    8  N           1     -20.878  -7.021  -3.720  0.00  0.00    -0.344 N 
HETATM    9  H           1     -19.870  -7.050  -3.638  0.00  0.00     0.163 HD
BRANCH   8  10
HETATM   10  C           1     -21.706  -7.575  -2.667  0.00  0.00     0.189 C 
BRANCH  10  11
HETATM   11  C           1     -20.912  -8.618  -1.892  0.00  0.00     0.074 C 
BRANCH  11  12
HETATM   12  C           1     -21.807  -9.763  -1.531  0.00  0.00    -0.056 A 
HETATM   13  C           1     -21.954 -10.139  -0.196  0.00  0.00     0.007 A 
HETATM   14  C           1     -22.787 -11.206   0.139  0.00  0.00     0.001 A 
HETATM   15  C           1     -23.474 -11.896  -0.860  0.00  0.00     0.000 A 
HETATM   16  C           1     -23.328 -11.518  -2.194  0.00  0.00     0.001 A 
HETATM   17  C           1     -22.494 -10.452  -2.530  0.00  0.00     0.007 A 
ENDBRANCH  11  12
ENDBRANCH  10  11
BRANCH  10  18
HETATM   18  C           1     -22.133  -6.472  -1.730  0.00  0.00     0.197 C 
HETATM   19  O           1     -22.821  -6.740  -0.720  0.00  0.00    -0.646 OA
HETATM   20  O           1     -21.799  -5.289  -1.962  0.00  0.00    -0.646 OA
ENDBRANCH  10  18
ENDBRANCH   8  10
ENDBRANCH   1   6
BRANCH   1  21
HETATM   21  C           1     -20.989  -4.430  -6.163  0.00  0.00     0.083 C 
BRANCH  21  22
HETATM   22  C           1     -21.902  -4.351  -7.348  0.00  0.00    -0.028 A 
HETATM   23  C           1     -23.278  -4.363  -7.315  0.00  0.00     0.096 A 
HETATM   24  N           1     -23.728  -4.275  -8.606  0.00  0.00    -0.365 N 
HETATM   25  H           1     -24.738  -4.261  -8.890  0.00  0.00     0.165 HD
HETATM   26  C           1     -22.665  -4.206  -9.478  0.00  0.00     0.042 A 
HETATM   27  C           1     -22.644  -4.107 -10.874  0.00  0.00     0.030 A 
HETATM   28  C           1     -21.501  -4.253  -8.710  0.00  0.00    -0.002 A 
HETATM   29  C           1     -21.396  -4.054 -11.501  0.00  0.00     0.002 A 
HETATM   30  C           1     -20.216  -4.100 -10.759  0.00  0.00     0.001 A 
HETATM   31  C           1     -20.255  -4.199  -9.363  0.00  0.00     0.014 A 
ENDBRANCH  21  22
ENDBRANCH   1  21
TORSDOF 8
ENDMDL
MODEL 7
REMARK VINA RESULT:      -7.9      2.881      7.838
REMARK  8 active torsions:
REMARK  status: ('A' for Active; 'I' for Inactive)
REMARK    1  A    between atoms: C_2  and  C_3 
REMARK    2  A    between atoms: C_3  and  C_4 
REMARK    3  A    between atoms: C_4  and  C_30 
REMARK    4  A    between atoms: C_4  and  N_22 
REMARK    5  A    between atoms: N_6  and  C_11 
REMARK    6  A    between atoms: C_11  and  C_23 
REMARK    7  A    between atoms: C_11  and  C_13 
REMARK    8  A    between atoms: C_13  and  C_17 
REMARK       I    between atoms: N_22  and  C_23 
ROOT
HETATM    1  C           1     -21.212 -10.820  -5.232  0.00  0.00     0.278 C 
ENDROOT
BRANCH   1   2
HETATM    2  N           1     -20.868 -11.264  -6.623  0.00  0.00    -0.066 N 
HETATM    3  H           1     -20.403 -10.480  -7.135  0.00  0.00     0.275 HD
HETATM    4  H           1     -20.219 -12.082  -6.577  0.00  0.00     0.275 HD
HETATM    5  H           1     -21.741 -11.540  -7.126  0.00  0.00     0.275 HD
ENDBRANCH   1   2
BRANCH   1   6
HETATM    6  C           1     -20.854  -9.363  -5.068  0.00  0.00     0.249 C 
HETATM    7  O           1     -19.785  -8.956  -5.453  0.00  0.00    -0.271 OA
HETATM    8  N           1     -21.743  -8.502  -4.483  0.00  0.00    -0.344 N 
HETATM    9  H           1     -22.640  -8.843  -4.160  0.00  0.00     0.163 HD
BRANCH   8  10
HETATM   10  C           1     -21.400  -7.103  -4.324  0.00  0.00     0.189 C 
BRANCH  10  11
HETATM   11  C           1     -22.331  -6.252  -5.179  0.00  0.00     0.074 C 
BRANCH  11  12
HETATM   12  C           1     -21.525  -5.463  -6.163  0.00  0.00    -0.056 A 
HETATM   13  C           1     -22.167  -4.661  -7.107  0.00  0.00     0.007 A 
HETATM   14  C           1     -21.415  -3.927  -8.024  0.00  0.00     0.001 A 
HETATM   15  C           1     -20.022  -3.993  -7.997  0.00  0.00     0.000 A 
HETATM   16  C           1     -19.381  -4.795  -7.053  0.00  0.00     0.001 A 
HETATM   17  C           1     -20.132  -5.530  -6.136  0.00  0.00     0.007 A 
ENDBRANCH  11  12
ENDBRANCH  10  11
BRANCH  10  18
HETATM   18  C           1     -21.550  -6.709  -2.875  0.00  0.00     0.197 C 
HETATM   19  O           1     -22.431  -5.887  -2.538  0.00  0.00    -0.646 OA
HETATM   20  O           1     -20.794  -7.204  -2.011  0.00  0.00    -0.646 OA
ENDBRANCH  10  18
ENDBRANCH   8  10
ENDBRANCH   1   6
BRANCH   1  21
HETATM   21  C           1     -20.426 -11.651  -4.227  0.00  0.00     0.083 C 
BRANCH  21  22
HETATM   22  C           1     -20.619 -11.087  -2.853  0.00  0.00    -0.028 A 
HETATM   23  C           1     -19.663 -10.446  -2.098  0.00  0.00     0.096 A 
HETATM   24  N           1     -20.242 -10.087  -0.908  0.00  0.00    -0.365 N 
HETATM   25  H           1     -19.752  -9.581  -0.131  0.00  0.00     0.165 HD
HETATM   26  C           1     -21.560 -10.486  -0.880  0.00  0.00     0.042 A 
HETATM   27  C           1     -22.529 -10.335   0.118  0.00  0.00     0.030 A 
HETATM   28  C           1     -21.823 -11.119  -2.095  0.00  0.00    -0.002 A 
HETATM   29  C           1     -23.804 -10.849  -0.135  0.00  0.00     0.002 A 
HETATM   30  C           1     -24.096 -11.487  -1.340  0.00  0.00     0.001 A 
HETATM   31  C           1     -23.114 -11.629  -2.328  0.00  0.00     0.014 A 
ENDBRANCH  21  22
ENDBRANCH   1  21
TORSDOF 8
ENDMDL
MODEL 8
REMARK VINA RESULT:      -7.8      1.415      2.083
REMARK  8 active torsions:
REMARK  status: ('A' for Active; 'I' for Inactive)
REMARK    1  A    between atoms: C_2  and  C_3 
REMARK    2  A    between atoms: C_3  and  C_4 
REMARK    3  A    between atoms: C_4  and  C_30 
REMARK    4  A    between atoms: C_4  and  N_22 
REMARK    5  A    between atoms: N_6  and  C_11 
REMARK    6  A    between atoms: C_11  and  C_23 
REMARK    7  A    between atoms: C_11  and  C_13 
REMARK    8  A    between atoms: C_13  and  C_17 
REMARK       I    between atoms: N_22  and  C_23 
ROOT
HETATM    1  C           1     -21.543  -6.192  -5.856  0.00  0.00     0.278 C 
ENDROOT
BRANCH   1   2
HETATM    2  N           1     -22.445  -6.085  -4.662  0.00  0.00    -0.066 N 
HETATM    3  H           1     -23.207  -6.797  -4.735  0.00  0.00     0.275 HD
HETATM    4  H           1     -21.892  -6.257  -3.792  0.00  0.00     0.275 HD
HETATM    5  H           1     -22.863  -5.129  -4.625  0.00  0.00     0.275 HD
ENDBRANCH   1   2
BRANCH   1   6
HETATM    6  C           1     -20.518  -7.272  -5.616  0.00  0.00     0.249 C 
HETATM    7  O           1     -19.538  -7.344  -6.319  0.00  0.00    -0.271 OA
HETATM    8  N           1     -20.696  -8.172  -4.600  0.00  0.00    -0.344 N 
HETATM    9  H           1     -21.517  -8.112  -4.009  0.00  0.00     0.163 HD
BRANCH   8  10
HETATM   10  C           1     -19.712  -9.210  -4.369  0.00  0.00     0.189 C 
BRANCH  10  11
HETATM   11  C           1     -19.635  -9.514  -2.878  0.00  0.00     0.074 C 
BRANCH  11  12
HETATM   12  C           1     -18.280 -10.059  -2.548  0.00  0.00    -0.056 A 
HETATM   13  C           1     -17.135  -9.406  -3.002  0.00  0.00     0.007 A 
HETATM   14  C           1     -15.873  -9.915  -2.694  0.00  0.00     0.001 A 
HETATM   15  C           1     -15.757 -11.077  -1.932  0.00  0.00     0.000 A 
HETATM   16  C           1     -16.902 -11.730  -1.478  0.00  0.00     0.001 A 
HETATM   17  C           1     -18.164 -11.222  -1.786  0.00  0.00     0.007 A 
ENDBRANCH  11  12
ENDBRANCH  10  11
BRANCH  10  18
HETATM   18  C           1     -20.113 -10.459  -5.115  0.00  0.00     0.197 C 
HETATM   19  O           1     -19.504 -10.788  -6.156  0.00  0.00    -0.646 OA
HETATM   20  O           1     -21.053 -11.166  -4.691  0.00  0.00    -0.646 OA
ENDBRANCH  10  18
ENDBRANCH   8  10
ENDBRANCH   1   6
BRANCH   1  21
HETATM   21  C           1     -20.836  -4.861  -6.076  0.00  0.00     0.083 C 
BRANCH  21  22
HETATM   22  C           1     -20.807  -4.547  -7.540  0.00  0.00    -0.028 A 
HETATM   23  C           1     -19.686  -4.497  -8.337  0.00  0.00     0.096 A 
HETATM   24  N           1     -20.090  -4.177  -9.607  0.00  0.00    -0.365 N 
HETATM   25  H           1     -19.449  -4.070 -10.432  0.00  0.00     0.165 HD
HETATM   26  C           1     -21.457  -4.019  -9.647  0.00  0.00     0.042 A 
HETATM   27  C           1     -22.299  -3.694 -10.716  0.00  0.00     0.030 A 
HETATM   28  C           1     -21.934  -4.246  -8.356  0.00  0.00    -0.002 A 
HETATM   29  C           1     -23.670  -3.599 -10.455  0.00  0.00     0.002 A 
HETATM   30  C           1     -24.174  -3.821  -9.175  0.00  0.00     0.001 A 
HETATM   31  C           1     -23.317  -4.145  -8.116  0.00  0.00     0.014 A 
ENDBRANCH  21  22
ENDBRANCH   1  21
TORSDOF 8
ENDMDL
MODEL 9
REMARK VINA RESULT:      -7.7      3.569      4.873
REMARK  8 active torsions:
REMARK  status: ('A' for Active; 'I' for Inactive)
REMARK    1  A    between atoms: C_2  and  C_3 
REMARK    2  A    between atoms: C_3  and  C_4 
REMARK    3  A    between atoms: C_4  and  C_30 
REMARK    4  A    between atoms: C_4  and  N_22 
REMARK    5  A    between atoms: N_6  and  C_11 
REMARK    6  A    between atoms: C_11  and  C_23 
REMARK    7  A    between atoms: C_11  and  C_13 
REMARK    8  A    between atoms: C_13  and  C_17 
REMARK       I    between atoms: N_22  and  C_23 
ROOT
HETATM    1  C           1     -20.497  -7.070  -5.055  0.00  0.00     0.278 C 
ENDROOT
BRANCH   1   2
HETATM    2  N           1     -20.839  -7.660  -6.391  0.00  0.00    -0.066 N 
HETATM    3  H           1     -20.150  -7.329  -7.105  0.00  0.00     0.275 HD
HETATM    4  H           1     -20.802  -8.703  -6.330  0.00  0.00     0.275 HD
HETATM    5  H           1     -21.800  -7.361  -6.669  0.00  0.00     0.275 HD
ENDBRANCH   1   2
BRANCH   1   6
HETATM    6  C           1     -21.326  -7.737  -3.985  0.00  0.00     0.249 C 
HETATM    7  O           1     -22.207  -8.504  -4.293  0.00  0.00    -0.271 OA
HETATM    8  N           1     -21.079  -7.475  -2.664  0.00  0.00    -0.344 N 
HETATM    9  H           1     -20.340  -6.832  -2.405  0.00  0.00     0.163 HD
BRANCH   8  10
HETATM   10  C           1     -21.874  -8.115  -1.636  0.00  0.00     0.189 C 
BRANCH  10  11
HETATM   11  C           1     -20.988  -9.037  -0.809  0.00  0.00     0.074 C 
BRANCH  11  12
HETATM   12  C           1     -21.758 -10.264  -0.428  0.00  0.00    -0.056 A 
HETATM   13  C           1     -23.000 -10.516  -1.010  0.00  0.00     0.007 A 
HETATM   14  C           1     -23.717 -11.659  -0.654  0.00  0.00     0.001 A 
HETATM   15  C           1     -23.192 -12.548   0.283  0.00  0.00     0.000 A 
HETATM   16  C           1     -21.950 -12.295   0.865  0.00  0.00     0.001 A 
HETATM   17  C           1     -21.233 -11.153   0.510  0.00  0.00     0.007 A 
ENDBRANCH  11  12
ENDBRANCH  10  11
BRANCH  10  18
HETATM   18  C           1     -22.479  -7.064  -0.739  0.00  0.00     0.197 C 
HETATM   19  O           1     -22.358  -5.853  -1.025  0.00  0.00    -0.646 OA
HETATM   20  O           1     -23.103  -7.403   0.290  0.00  0.00    -0.646 OA
ENDBRANCH  10  18
ENDBRANCH   8  10
ENDBRANCH   1   6
BRANCH   1  21
HETATM   21  C           1     -20.796  -5.577  -5.069  0.00  0.00     0.083 C 
BRANCH  21  22
HETATM   22  C           1     -20.506  -5.023  -6.430  0.00  0.00    -0.028 A 
HETATM   23  C           1     -19.257  -4.810  -6.969  0.00  0.00     0.096 A 
HETATM   24  N           1     -19.427  -4.294  -8.228  0.00  0.00    -0.365 N 
HETATM   25  H           1     -18.648  -4.033  -8.880  0.00  0.00     0.165 HD
HETATM   26  C           1     -20.768  -4.170  -8.514  0.00  0.00     0.042 A 
HETATM   27  C           1     -21.407  -3.696  -9.666  0.00  0.00     0.030 A 
HETATM   28  C           1     -21.470  -4.622  -7.396  0.00  0.00    -0.002 A 
HETATM   29  C           1     -22.805  -3.685  -9.672  0.00  0.00     0.002 A 
HETATM   30  C           1     -23.533  -4.131  -8.569  0.00  0.00     0.001 A 
HETATM   31  C           1     -22.878  -4.602  -7.425  0.00  0.00     0.014 A 
ENDBRANCH  21  22
ENDBRANCH   1  21
TORSDOF 8
ENDMDL
