MODEL 1
REMARK VINA RESULT:      -5.9      0.000      0.000
REMARK  5 active torsions:
REMARK  status: ('A' for Active; 'I' for Inactive)
REMARK    1  A    between atoms: C_9  and  C_17 
REMARK    2  A    between atoms: C_10  and  C_14 
REMARK    3  A    between atoms: C_10  and  C_13 
REMARK    4  A    between atoms: C_10  and  N_16 
REMARK    5  A    between atoms: S_11  and  C_14 
REMARK       I    between atoms: N_16  and  C_17 
ROOT
HETATM    1  O           1     -34.423  -3.125 -13.535  0.00  0.00    -0.271 OA
HETATM    2  H           1     -34.820  -0.859 -11.403  0.00  0.00     0.163 HD
HETATM    3  N           1     -34.951  -1.361 -12.271  0.00  0.00    -0.344 N 
HETATM    4  C           1     -34.267  -2.525 -12.498  0.00  0.00     0.251 C 
ENDROOT
BRANCH   3   5
HETATM    5  C           1     -35.862  -0.848 -13.275  0.00  0.00     0.194 C 
BRANCH   5   6
HETATM    6  C           1     -37.043  -0.171 -12.592  0.00  0.00     0.106 C 
BRANCH   6   7
HETATM    7  S           1     -36.805  -0.209 -10.793  0.00  0.00    -0.180 SA
HETATM    8  H           1     -36.724   1.125 -10.634  0.00  0.00     0.101 HD
ENDBRANCH   6   7
ENDBRANCH   5   6
BRANCH   5   9
HETATM    9  C           1     -35.141   0.156 -14.142  0.00  0.00     0.197 C 
HETATM   10  O           1     -34.902  -0.110 -15.339  0.00  0.00    -0.646 OA
HETATM   11  O           1     -34.784   1.254 -13.661  0.00  0.00    -0.646 OA
ENDBRANCH   5   9
ENDBRANCH   3   5
BRANCH   4  12
HETATM   12  C           1     -33.319  -3.059 -11.453  0.00  0.00     0.311 C 
HETATM   13  C           1     -32.647  -4.335 -11.932  0.00  0.00     0.047 C 
HETATM   14  C           1     -33.501  -5.467 -11.371  0.00  0.00     0.033 C 
HETATM   15  C           1     -34.611  -4.778 -10.593  0.00  0.00     0.271 C 
HETATM   16  N           1     -34.044  -3.475 -10.257  0.00  0.00     0.097 N 
HETATM   17  H           1     -33.409  -3.575  -9.465  0.00  0.00     0.317 HD
ENDBRANCH   4  12
TORSDOF 5
ENDMDL
MODEL 2
REMARK VINA RESULT:      -5.6      1.822      2.134
REMARK  5 active torsions:
REMARK  status: ('A' for Active; 'I' for Inactive)
REMARK    1  A    between atoms: C_9  and  C_17 
REMARK    2  A    between atoms: C_10  and  C_14 
REMARK    3  A    between atoms: C_10  and  C_13 
REMARK    4  A    between atoms: C_10  and  N_16 
REMARK    5  A    between atoms: S_11  and  C_14 
REMARK       I    between atoms: N_16  and  C_17 
ROOT
HETATM    1  O           1     -36.362  -3.378 -10.724  0.00  0.00    -0.271 OA
HETATM    2  H           1     -34.530  -0.843 -10.957  0.00  0.00     0.163 HD
HETATM    3  N           1     -35.382  -1.388 -10.983  0.00  0.00    -0.344 N 
HETATM    4  C           1     -35.346  -2.726 -10.694  0.00  0.00     0.251 C 
ENDROOT
BRANCH   3   5
HETATM    5  C           1     -36.639  -0.754 -11.323  0.00  0.00     0.194 C 
BRANCH   5   6
HETATM    6  C           1     -36.859   0.457 -10.426  0.00  0.00     0.106 C 
BRANCH   6   7
HETATM    7  S           1     -37.291  -0.100  -8.753  0.00  0.00    -0.180 SA
HETATM    8  H           1     -38.396  -0.780  -9.113  0.00  0.00     0.101 HD
ENDBRANCH   6   7
ENDBRANCH   5   6
BRANCH   5   9
HETATM    9  C           1     -36.603  -0.309 -12.765  0.00  0.00     0.197 C 
HETATM   10  O           1     -35.732   0.502 -13.147  0.00  0.00    -0.646 OA
HETATM   11  O           1     -37.444  -0.752 -13.578  0.00  0.00    -0.646 OA
ENDBRANCH   5   9
ENDBRANCH   3   5
BRANCH   4  12
HETATM   12  C           1     -34.037  -3.387 -10.339  0.00  0.00     0.311 C 
HETATM   13  C           1     -32.968  -3.058 -11.368  0.00  0.00     0.047 C 
HETATM   14  C           1     -32.996  -4.219 -12.355  0.00  0.00     0.033 C 
HETATM   15  C           1     -34.073  -5.156 -11.834  0.00  0.00     0.271 C 
HETATM   16  N           1     -34.152  -4.841 -10.411  0.00  0.00     0.097 N 
HETATM   17  H           1     -33.379  -5.289  -9.920  0.00  0.00     0.317 HD
ENDBRANCH   4  12
TORSDOF 5
ENDMDL
MODEL 3
REMARK VINA RESULT:      -5.6     12.544     14.006
REMARK  5 active torsions:
REMARK  status: ('A' for Active; 'I' for Inactive)
REMARK    1  A    between atoms: C_9  and  C_17 
REMARK    2  A    between atoms: C_10  and  C_14 
REMARK    3  A    between atoms: C_10  and  C_13 
REMARK    4  A    between atoms: C_10  and  N_16 
REMARK    5  A    between atoms: S_11  and  C_14 
REMARK       I    between atoms: N_16  and  C_17 
ROOT
HETATM    1  O           1     -22.903  -4.127  -7.331  0.00  0.00    -0.271 OA
HETATM    2  H           1     -21.307  -5.359  -9.734  0.00  0.00     0.163 HD
HETATM    3  N           1     -21.954  -4.746  -9.256  0.00  0.00    -0.344 N 
HETATM    4  C           1     -22.131  -4.859  -7.903  0.00  0.00     0.251 C 
ENDROOT
BRANCH   3   5
HETATM    5  C           1     -22.693  -3.747 -10.002  0.00  0.00     0.194 C 
BRANCH   5   6
HETATM    6  C           1     -21.792  -3.138 -11.068  0.00  0.00     0.106 C 
BRANCH   6   7
HETATM    7  S           1     -20.202  -4.013 -11.089  0.00  0.00    -0.180 SA
HETATM    8  H           1     -20.153  -4.184 -12.423  0.00  0.00     0.101 HD
ENDBRANCH   6   7
ENDBRANCH   5   6
BRANCH   5   9
HETATM    9  C           1     -23.886  -4.395 -10.663  0.00  0.00     0.197 C 
HETATM   10  O           1     -24.946  -4.555 -10.020  0.00  0.00    -0.646 OA
HETATM   11  O           1     -23.813  -4.771 -11.853  0.00  0.00    -0.646 OA
ENDBRANCH   5   9
ENDBRANCH   3   5
BRANCH   4  12
HETATM   12  C           1     -21.361  -5.899  -7.126  0.00  0.00     0.311 C 
HETATM   13  C           1     -21.255  -5.511  -5.661  0.00  0.00     0.047 C 
HETATM   14  C           1     -19.915  -4.794  -5.537  0.00  0.00     0.033 C 
HETATM   15  C           1     -19.322  -4.816  -6.936  0.00  0.00     0.271 C 
HETATM   16  N           1     -19.972  -5.959  -7.573  0.00  0.00     0.097 N 
HETATM   17  H           1     -19.528  -6.821  -7.258  0.00  0.00     0.317 HD
ENDBRANCH   4  12
TORSDOF 5
ENDMDL
MODEL 4
REMARK VINA RESULT:      -5.5      2.647      3.146
REMARK  5 active torsions:
REMARK  status: ('A' for Active; 'I' for Inactive)
REMARK    1  A    between atoms: C_9  and  C_17 
REMARK    2  A    between atoms: C_10  and  C_14 
REMARK    3  A    between atoms: C_10  and  C_13 
REMARK    4  A    between atoms: C_10  and  N_16 
REMARK    5  A    between atoms: S_11  and  C_14 
REMARK       I    between atoms: N_16  and  C_17 
ROOT
HETATM    1  O           1     -34.118  -0.997 -11.422  0.00  0.00    -0.271 OA
HETATM    2  H           1     -36.861  -2.122 -10.398  0.00  0.00     0.163 HD
HETATM    3  N           1     -36.207  -1.447 -10.772  0.00  0.00    -0.344 N 
HETATM    4  C           1     -34.900  -1.802 -10.975  0.00  0.00     0.251 C 
ENDROOT
BRANCH   3   5
HETATM    5  C           1     -36.652  -0.107 -11.095  0.00  0.00     0.194 C 
BRANCH   5   6
HETATM    6  C           1     -37.860  -0.180 -12.020  0.00  0.00     0.106 C 
BRANCH   6   7
HETATM    7  S           1     -37.302  -0.139 -13.747  0.00  0.00    -0.180 SA
HETATM    8  H           1     -36.207  -0.898 -13.559  0.00  0.00     0.101 HD
ENDBRANCH   6   7
ENDBRANCH   5   6
BRANCH   5   9
HETATM    9  C           1     -37.036   0.614  -9.825  0.00  0.00     0.197 C 
HETATM   10  O           1     -38.068   1.318  -9.794  0.00  0.00    -0.646 OA
HETATM   11  O           1     -36.321   0.506  -8.805  0.00  0.00    -0.646 OA
ENDBRANCH   5   9
ENDBRANCH   3   5
BRANCH   4  12
HETATM   12  C           1     -34.436  -3.198 -10.639  0.00  0.00     0.311 C 
HETATM   13  C           1     -33.017  -3.430 -11.130  0.00  0.00     0.047 C 
HETATM   14  C           1     -33.172  -4.083 -12.498  0.00  0.00     0.033 C 
HETATM   15  C           1     -34.672  -4.199 -12.714  0.00  0.00     0.271 C 
HETATM   16  N           1     -35.221  -4.194 -11.361  0.00  0.00     0.097 N 
HETATM   17  H           1     -35.105  -5.118 -10.944  0.00  0.00     0.317 HD
ENDBRANCH   4  12
TORSDOF 5
ENDMDL
MODEL 5
REMARK VINA RESULT:      -5.3      2.304      2.641
REMARK  5 active torsions:
REMARK  status: ('A' for Active; 'I' for Inactive)
REMARK    1  A    between atoms: C_9  and  C_17 
REMARK    2  A    between atoms: C_10  and  C_14 
REMARK    3  A    between atoms: C_10  and  C_13 
REMARK    4  A    between atoms: C_10  and  N_16 
REMARK    5  A    between atoms: S_11  and  C_14 
REMARK       I    between atoms: N_16  and  C_17 
ROOT
HETATM    1  O           1     -34.443  -2.317 -11.155  0.00  0.00    -0.271 OA
HETATM    2  H           1     -35.118  -1.715 -14.158  0.00  0.00     0.163 HD
HETATM    3  N           1     -34.958  -1.524 -13.178  0.00  0.00    -0.344 N 
HETATM    4  C           1     -34.635  -2.546 -12.325  0.00  0.00     0.251 C 
ENDROOT
BRANCH   3   5
HETATM    5  C           1     -35.068  -0.169 -12.676  0.00  0.00     0.194 C 
BRANCH   5   6
HETATM    6  C           1     -35.092   0.807 -13.846  0.00  0.00     0.106 C 
BRANCH   6   7
HETATM    7  S           1     -35.579  -0.072 -15.357  0.00  0.00    -0.180 SA
HETATM    8  H           1     -35.286   0.931 -16.204  0.00  0.00     0.101 HD
ENDBRANCH   6   7
ENDBRANCH   5   6
BRANCH   5   9
HETATM    9  C           1     -36.344  -0.030 -11.881  0.00  0.00     0.197 C 
HETATM   10  O           1     -37.426  -0.426 -12.364  0.00  0.00    -0.646 OA
HETATM   11  O           1     -36.317   0.479 -10.740  0.00  0.00    -0.646 OA
ENDBRANCH   5   9
ENDBRANCH   3   5
BRANCH   4  12
HETATM   12  C           1     -34.521  -3.957 -12.848  0.00  0.00     0.311 C 
HETATM   13  C           1     -34.756  -4.966 -11.737  0.00  0.00     0.047 C 
HETATM   14  C           1     -33.366  -5.315 -11.218  0.00  0.00     0.033 C 
HETATM   15  C           1     -32.408  -4.493 -12.064  0.00  0.00     0.271 C 
HETATM   16  N           1     -33.158  -4.237 -13.291  0.00  0.00     0.097 N 
HETATM   17  H           1     -33.134  -5.067 -13.883  0.00  0.00     0.317 HD
ENDBRANCH   4  12
TORSDOF 5
ENDMDL
MODEL 6
REMARK VINA RESULT:      -5.3     10.985     12.343
REMARK  5 active torsions:
REMARK  status: ('A' for Active; 'I' for Inactive)
REMARK    1  A    between atoms: C_9  and  C_17 
REMARK    2  A    between atoms: C_10  and  C_14 
REMARK    3  A    between atoms: C_10  and  C_13 
REMARK    4  A    between atoms: C_10  and  N_16 
REMARK    5  A    between atoms: S_11  and  C_14 
REMARK       I    between atoms: N_16  and  C_17 
ROOT
HETATM    1  O           1     -27.439  -5.458 -20.431  0.00  0.00    -0.271 OA
HETATM    2  H           1     -26.261  -7.667 -18.542  0.00  0.00     0.163 HD
HETATM    3  N           1     -26.296  -7.022 -19.320  0.00  0.00    -0.344 N 
HETATM    4  C           1     -27.397  -6.228 -19.502  0.00  0.00     0.251 C 
ENDROOT
BRANCH   3   5
HETATM    5  C           1     -25.182  -6.938 -20.243  0.00  0.00     0.194 C 
BRANCH   5   6
HETATM    6  C           1     -23.879  -7.177 -19.491  0.00  0.00     0.106 C 
BRANCH   6   7
HETATM    7  S           1     -24.205  -7.192 -17.705  0.00  0.00    -0.180 SA
HETATM    8  H           1     -23.794  -8.457 -17.498  0.00  0.00     0.101 HD
ENDBRANCH   6   7
ENDBRANCH   5   6
BRANCH   5   9
HETATM    9  C           1     -25.340  -7.985 -21.318  0.00  0.00     0.197 C 
HETATM   10  O           1     -24.422  -8.174 -22.145  0.00  0.00    -0.646 OA
HETATM   11  O           1     -26.388  -8.664 -21.380  0.00  0.00    -0.646 OA
ENDBRANCH   5   9
ENDBRANCH   3   5
BRANCH   4  12
HETATM   12  C           1     -28.557  -6.316 -18.541  0.00  0.00     0.311 C 
HETATM   13  C           1     -29.265  -4.977 -18.423  0.00  0.00     0.047 C 
HETATM   14  C           1     -28.638  -4.304 -17.207  0.00  0.00     0.033 C 
HETATM   15  C           1     -27.610  -5.297 -16.689  0.00  0.00     0.271 C 
HETATM   16  N           1     -28.089  -6.584 -17.185  0.00  0.00     0.097 N 
HETATM   17  H           1     -28.855  -6.911 -16.596  0.00  0.00     0.317 HD
ENDBRANCH   4  12
TORSDOF 5
ENDMDL
MODEL 7
REMARK VINA RESULT:      -5.0      1.998      5.085
REMARK  5 active torsions:
REMARK  status: ('A' for Active; 'I' for Inactive)
REMARK    1  A    between atoms: C_9  and  C_17 
REMARK    2  A    between atoms: C_10  and  C_14 
REMARK    3  A    between atoms: C_10  and  C_13 
REMARK    4  A    between atoms: C_10  and  N_16 
REMARK    5  A    between atoms: S_11  and  C_14 
REMARK       I    between atoms: N_16  and  C_17 
ROOT
HETATM    1  O           1     -34.885  -2.181 -14.722  0.00  0.00    -0.271 OA
HETATM    2  H           1     -35.238  -2.092 -11.607  0.00  0.00     0.163 HD
HETATM    3  N           1     -34.904  -2.423 -12.502  0.00  0.00    -0.344 N 
HETATM    4  C           1     -35.284  -1.785 -13.653  0.00  0.00     0.251 C 
ENDROOT
BRANCH   3   5
HETATM    5  C           1     -34.023  -3.572 -12.568  0.00  0.00     0.194 C 
BRANCH   5   6
HETATM    6  C           1     -32.928  -3.435 -11.518  0.00  0.00     0.106 C 
BRANCH   6   7
HETATM    7  S           1     -33.356  -2.096 -10.370  0.00  0.00    -0.180 SA
HETATM    8  H           1     -33.022  -1.089 -11.197  0.00  0.00     0.101 HD
ENDBRANCH   6   7
ENDBRANCH   5   6
BRANCH   5   9
HETATM    9  C           1     -34.816  -4.829 -12.304  0.00  0.00     0.197 C 
HETATM   10  O           1     -35.219  -5.525 -13.261  0.00  0.00    -0.646 OA
HETATM   11  O           1     -35.071  -5.172 -11.129  0.00  0.00    -0.646 OA
ENDBRANCH   5   9
ENDBRANCH   3   5
BRANCH   4  12
HETATM   12  C           1     -36.201  -0.589 -13.585  0.00  0.00     0.311 C 
HETATM   13  C           1     -36.361   0.049 -14.954  0.00  0.00     0.047 C 
HETATM   14  C           1     -35.324   1.165 -14.995  0.00  0.00     0.033 C 
HETATM   15  C           1     -34.630   1.112 -13.644  0.00  0.00     0.271 C 
HETATM   16  N           1     -35.612   0.472 -12.773  0.00  0.00     0.097 N 
HETATM   17  H           1     -36.319   1.153 -12.499  0.00  0.00     0.317 HD
ENDBRANCH   4  12
TORSDOF 5
ENDMDL
MODEL 8
REMARK VINA RESULT:      -4.9      2.076      2.368
REMARK  5 active torsions:
REMARK  status: ('A' for Active; 'I' for Inactive)
REMARK    1  A    between atoms: C_9  and  C_17 
REMARK    2  A    between atoms: C_10  and  C_14 
REMARK    3  A    between atoms: C_10  and  C_13 
REMARK    4  A    between atoms: C_10  and  N_16 
REMARK    5  A    between atoms: S_11  and  C_14 
REMARK       I    between atoms: N_16  and  C_17 
ROOT
HETATM    1  O           1     -36.390  -1.566 -12.388  0.00  0.00    -0.271 OA
HETATM    2  H           1     -34.008  -1.414 -14.423  0.00  0.00     0.163 HD
HETATM    3  N           1     -34.949  -1.293 -14.072  0.00  0.00    -0.344 N 
HETATM    4  C           1     -35.266  -1.710 -12.806  0.00  0.00     0.251 C 
ENDROOT
BRANCH   3   5
HETATM    5  C           1     -35.961  -0.680 -14.908  0.00  0.00     0.194 C 
BRANCH   5   6
HETATM    6  C           1     -35.833   0.836 -14.833  0.00  0.00     0.106 C 
BRANCH   6   7
HETATM    7  S           1     -34.492   1.274 -13.691  0.00  0.00    -0.180 SA
HETATM    8  H           1     -34.273   2.503 -14.196  0.00  0.00     0.101 HD
ENDBRANCH   6   7
ENDBRANCH   5   6
BRANCH   5   9
HETATM    9  C           1     -35.772  -1.129 -16.336  0.00  0.00     0.197 C 
HETATM   10  O           1     -34.784  -1.829 -16.646  0.00  0.00    -0.646 OA
HETATM   11  O           1     -36.605  -0.801 -17.210  0.00  0.00    -0.646 OA
ENDBRANCH   5   9
ENDBRANCH   3   5
BRANCH   4  12
HETATM   12  C           1     -34.212  -2.349 -11.936  0.00  0.00     0.311 C 
HETATM   13  C           1     -33.702  -3.637 -12.560  0.00  0.00     0.047 C 
HETATM   14  C           1     -34.537  -4.743 -11.924  0.00  0.00     0.033 C 
HETATM   15  C           1     -35.474  -4.030 -10.963  0.00  0.00     0.271 C 
HETATM   16  N           1     -34.781  -2.780 -10.663  0.00  0.00     0.097 N 
HETATM   17  H           1     -34.046  -2.955  -9.978  0.00  0.00     0.317 HD
ENDBRANCH   4  12
TORSDOF 5
ENDMDL
MODEL 9
REMARK VINA RESULT:      -4.8      9.331     10.979
REMARK  5 active torsions:
REMARK  status: ('A' for Active; 'I' for Inactive)
REMARK    1  A    between atoms: C_9  and  C_17 
REMARK    2  A    between atoms: C_10  and  C_14 
REMARK    3  A    between atoms: C_10  and  C_13 
REMARK    4  A    between atoms: C_10  and  N_16 
REMARK    5  A    between atoms: S_11  and  C_14 
REMARK       I    between atoms: N_16  and  C_17 
ROOT
HETATM    1  O           1     -28.214  -7.163 -16.407  0.00  0.00    -0.271 OA
HETATM    2  H           1     -26.096  -4.944 -17.061  0.00  0.00     0.163 HD
HETATM    3  N           1     -26.477  -5.876 -16.969  0.00  0.00    -0.344 N 
HETATM    4  C           1     -27.758  -6.050 -16.517  0.00  0.00     0.251 C 
ENDROOT
BRANCH   3   5
HETATM    5  C           1     -25.669  -7.028 -17.317  0.00  0.00     0.194 C 
BRANCH   5   6
HETATM    6  C           1     -24.743  -6.671 -18.471  0.00  0.00     0.106 C 
BRANCH   6   7
HETATM    7  S           1     -25.634  -6.854 -20.042  0.00  0.00    -0.180 SA
HETATM    8  H           1     -26.002  -5.564 -20.147  0.00  0.00     0.101 HD
ENDBRANCH   6   7
ENDBRANCH   5   6
BRANCH   5   9
HETATM    9  C           1     -24.845  -7.442 -16.122  0.00  0.00     0.197 C 
HETATM   10  O           1     -23.894  -8.240 -16.265  0.00  0.00    -0.646 OA
HETATM   11  O           1     -25.114  -6.986 -14.989  0.00  0.00    -0.646 OA
ENDBRANCH   5   9
ENDBRANCH   3   5
BRANCH   4  12
HETATM   12  C           1     -28.599  -4.851 -16.155  0.00  0.00     0.311 C 
HETATM   13  C           1     -30.064  -5.235 -16.028  0.00  0.00     0.047 C 
HETATM   14  C           1     -30.673  -4.933 -17.392  0.00  0.00     0.033 C 
HETATM   15  C           1     -29.526  -4.384 -18.226  0.00  0.00     0.271 C 
HETATM   16  N           1     -28.590  -3.865 -17.233  0.00  0.00     0.097 N 
HETATM   17  H           1     -28.917  -2.959 -16.897  0.00  0.00     0.317 HD
ENDBRANCH   4  12
TORSDOF 5
ENDMDL
