MODEL 1
REMARK VINA RESULT:      -6.0      0.000      0.000
REMARK  8 active torsions:
REMARK  status: ('A' for Active; 'I' for Inactive)
REMARK       I    between atoms: C_2  and  N_3 
REMARK    1  A    between atoms: C_2  and  C_4 
REMARK    2  A    between atoms: C_4  and  C_5 
REMARK    3  A    between atoms: C_5  and  C_6 
REMARK    4  A    between atoms: C_5  and  N_9 
REMARK       I    between atoms: N_9  and  C_10 
REMARK    5  A    between atoms: C_10  and  C_11 
REMARK    6  A    between atoms: C_11  and  C_12 
REMARK    7  A    between atoms: C_11  and  N_14 
REMARK    8  A    between atoms: C_12  and  Se_13 
ROOT
HETATM    1  N           1     -27.667  -6.362 -18.941  0.00  0.00    -0.344 N 
HETATM    2  C           1     -26.371  -6.398 -18.503  0.00  0.00     0.249 C 
HETATM    3  O           1     -26.121  -6.182 -17.341  0.00  0.00    -0.271 OA
HETATM    4  H           1     -27.877  -6.543 -19.915  0.00  0.00     0.163 HD
ENDROOT
BRANCH   1   5
HETATM    5  C           1     -28.740  -6.066 -18.012  0.00  0.00     0.194 C 
BRANCH   5   6
HETATM    6  C           1     -29.391  -4.744 -18.392  0.00  0.00     0.138 C 
BRANCH   6   7
HETATM    7  C           1     -28.922  -3.662 -17.450  0.00  0.00     0.217 C 
HETATM    8  O           1     -28.041  -3.891 -16.657  0.00  0.00    -0.274 OA
HETATM    9  N           1     -29.497  -2.419 -17.495  0.00  0.00    -0.370 N 
HETATM   10  H           1     -30.235  -2.227 -18.159  0.00  0.00     0.159 HD
HETATM   11  H           1     -29.183  -1.694 -16.863  0.00  0.00     0.159 HD
ENDBRANCH   6   7
ENDBRANCH   5   6
BRANCH   5  12
HETATM   12  C           1     -29.768  -7.168 -18.064  0.00  0.00     0.197 C 
HETATM   13  O           1     -30.804  -7.091 -17.369  0.00  0.00    -0.646 OA
HETATM   14  O           1     -29.585  -8.160 -18.803  0.00  0.00    -0.646 OA
ENDBRANCH   5  12
ENDBRANCH   1   5
BRANCH   2  15
HETATM   15  C           1     -25.255  -6.705 -19.470  0.00  0.00     0.274 C 
BRANCH  15  16
HETATM   16  C           1     -25.811  -7.469 -20.663  0.00  0.00     0.045 C 
BRANCH  16  17
HETATM   17 Se           1     -24.366  -7.876 -21.906  0.00  0.00     0.000 Se
HETATM   18  H           1     -23.877  -6.489 -21.973  0.00  0.00     0.000 HD
ENDBRANCH  16  17
ENDBRANCH  15  16
BRANCH  15  19
HETATM   19  N           1     -24.214  -7.539 -18.784  0.00  0.00    -0.067 N 
HETATM   20  H           1     -23.644  -6.935 -18.152  0.00  0.00     0.275 HD
HETATM   21  H           1     -24.681  -8.288 -18.224  0.00  0.00     0.275 HD
HETATM   22  H           1     -23.593  -7.978 -19.502  0.00  0.00     0.275 HD
ENDBRANCH  15  19
ENDBRANCH   2  15
TORSDOF 8
ENDMDL
MODEL 2
REMARK VINA RESULT:      -5.7      9.255     11.295
REMARK  8 active torsions:
REMARK  status: ('A' for Active; 'I' for Inactive)
REMARK       I    between atoms: C_2  and  N_3 
REMARK    1  A    between atoms: C_2  and  C_4 
REMARK    2  A    between atoms: C_4  and  C_5 
REMARK    3  A    between atoms: C_5  and  C_6 
REMARK    4  A    between atoms: C_5  and  N_9 
REMARK       I    between atoms: N_9  and  C_10 
REMARK    5  A    between atoms: C_10  and  C_11 
REMARK    6  A    between atoms: C_11  and  C_12 
REMARK    7  A    between atoms: C_11  and  N_14 
REMARK    8  A    between atoms: C_12  and  Se_13 
ROOT
HETATM    1  N           1     -34.853  -1.086 -12.740  0.00  0.00    -0.344 N 
HETATM    2  C           1     -35.969  -0.562 -13.335  0.00  0.00     0.249 C 
HETATM    3  O           1     -37.062  -0.985 -13.045  0.00  0.00    -0.271 OA
HETATM    4  H           1     -33.937  -0.731 -12.983  0.00  0.00     0.163 HD
ENDROOT
BRANCH   1   5
HETATM    5  C           1     -34.983  -2.147 -11.762  0.00  0.00     0.194 C 
BRANCH   5   6
HETATM    6  C           1     -33.898  -3.190 -11.997  0.00  0.00     0.138 C 
BRANCH   6   7
HETATM    7  C           1     -34.302  -4.088 -13.140  0.00  0.00     0.217 C 
HETATM    8  O           1     -34.264  -3.676 -14.275  0.00  0.00    -0.274 OA
HETATM    9  N           1     -34.713  -5.371 -12.891  0.00  0.00    -0.370 N 
HETATM   10  H           1     -34.745  -5.716 -11.940  0.00  0.00     0.159 HD
HETATM   11  H           1     -34.983  -5.973 -13.658  0.00  0.00     0.159 HD
ENDBRANCH   6   7
ENDBRANCH   5   6
BRANCH   5  12
HETATM   12  C           1     -34.838  -1.574 -10.374  0.00  0.00     0.197 C 
HETATM   13  O           1     -33.764  -1.710  -9.750  0.00  0.00    -0.646 OA
HETATM   14  O           1     -35.793  -0.961  -9.848  0.00  0.00    -0.646 OA
ENDBRANCH   5  12
ENDBRANCH   1   5
BRANCH   2  15
HETATM   15  C           1     -35.833   0.543 -14.353  0.00  0.00     0.274 C 
BRANCH  15  16
HETATM   16  C           1     -36.741   0.255 -15.541  0.00  0.00     0.045 C 
BRANCH  16  17
HETATM   17 Se           1     -35.915  -1.093 -16.680  0.00  0.00     0.000 Se
HETATM   18  H           1     -37.192  -1.585 -17.221  0.00  0.00     0.000 HD
ENDBRANCH  16  17
ENDBRANCH  15  16
BRANCH  15  19
HETATM   19  N           1     -34.410   0.621 -14.820  0.00  0.00    -0.067 N 
HETATM   20  H           1     -34.063   1.601 -14.720  0.00  0.00     0.275 HD
HETATM   21  H           1     -33.819  -0.019 -14.244  0.00  0.00     0.275 HD
HETATM   22  H           1     -34.358   0.335 -15.824  0.00  0.00     0.275 HD
ENDBRANCH  15  19
ENDBRANCH   2  15
TORSDOF 8
ENDMDL
MODEL 3
REMARK VINA RESULT:      -5.6      1.666      3.012
REMARK  8 active torsions:
REMARK  status: ('A' for Active; 'I' for Inactive)
REMARK       I    between atoms: C_2  and  N_3 
REMARK    1  A    between atoms: C_2  and  C_4 
REMARK    2  A    between atoms: C_4  and  C_5 
REMARK    3  A    between atoms: C_5  and  C_6 
REMARK    4  A    between atoms: C_5  and  N_9 
REMARK       I    between atoms: N_9  and  C_10 
REMARK    5  A    between atoms: C_10  and  C_11 
REMARK    6  A    between atoms: C_11  and  C_12 
REMARK    7  A    between atoms: C_11  and  N_14 
REMARK    8  A    between atoms: C_12  and  Se_13 
ROOT
HETATM    1  N           1     -26.991  -6.538 -18.440  0.00  0.00    -0.344 N 
HETATM    2  C           1     -26.510  -6.438 -19.718  0.00  0.00     0.249 C 
HETATM    3  O           1     -27.196  -5.952 -20.585  0.00  0.00    -0.271 OA
HETATM    4  H           1     -26.416  -6.945 -17.714  0.00  0.00     0.163 HD
ENDROOT
BRANCH   1   5
HETATM    5  C           1     -28.323  -6.058 -18.128  0.00  0.00     0.194 C 
BRANCH   5   6
HETATM    6  C           1     -29.039  -7.081 -17.257  0.00  0.00     0.138 C 
BRANCH   6   7
HETATM    7  C           1     -30.411  -7.353 -17.825  0.00  0.00     0.217 C 
HETATM    8  O           1     -30.537  -8.088 -18.776  0.00  0.00    -0.274 OA
HETATM    9  N           1     -31.513  -6.766 -17.263  0.00  0.00    -0.370 N 
HETATM   10  H           1     -31.408  -6.150 -16.467  0.00  0.00     0.159 HD
HETATM   11  H           1     -32.433  -6.948 -17.644  0.00  0.00     0.159 HD
ENDBRANCH   6   7
ENDBRANCH   5   6
BRANCH   5  12
HETATM   12  C           1     -28.224  -4.748 -17.387  0.00  0.00     0.197 C 
HETATM   13  O           1     -29.004  -3.811 -17.665  0.00  0.00    -0.646 OA
HETATM   14  O           1     -27.361  -4.597 -16.494  0.00  0.00    -0.646 OA
ENDBRANCH   5  12
ENDBRANCH   1   5
BRANCH   2  15
HETATM   15  C           1     -25.124  -6.938 -20.044  0.00  0.00     0.274 C 
BRANCH  15  16
HETATM   16  C           1     -25.216  -8.067 -21.061  0.00  0.00     0.045 C 
BRANCH  16  17
HETATM   17 Se           1     -23.745  -7.919 -22.331  0.00  0.00     0.000 Se
HETATM   18  H           1     -23.670  -9.366 -22.590  0.00  0.00     0.000 HD
ENDBRANCH  16  17
ENDBRANCH  15  16
BRANCH  15  19
HETATM   19  N           1     -24.468  -7.444 -18.794  0.00  0.00    -0.067 N 
HETATM   20  H           1     -24.306  -6.648 -18.137  0.00  0.00     0.275 HD
HETATM   21  H           1     -25.086  -8.152 -18.338  0.00  0.00     0.275 HD
HETATM   22  H           1     -23.552  -7.886 -19.037  0.00  0.00     0.275 HD
ENDBRANCH  15  19
ENDBRANCH   2  15
TORSDOF 8
ENDMDL
MODEL 4
REMARK VINA RESULT:      -5.5     10.940     11.944
REMARK  8 active torsions:
REMARK  status: ('A' for Active; 'I' for Inactive)
REMARK       I    between atoms: C_2  and  N_3 
REMARK    1  A    between atoms: C_2  and  C_4 
REMARK    2  A    between atoms: C_4  and  C_5 
REMARK    3  A    between atoms: C_5  and  C_6 
REMARK    4  A    between atoms: C_5  and  N_9 
REMARK       I    between atoms: N_9  and  C_10 
REMARK    5  A    between atoms: C_10  and  C_11 
REMARK    6  A    between atoms: C_11  and  C_12 
REMARK    7  A    between atoms: C_11  and  N_14 
REMARK    8  A    between atoms: C_12  and  Se_13 
ROOT
HETATM    1  N           1     -22.869  -4.521  -8.626  0.00  0.00    -0.344 N 
HETATM    2  C           1     -22.052  -4.190  -7.579  0.00  0.00     0.249 C 
HETATM    3  O           1     -21.358  -3.203  -7.644  0.00  0.00    -0.271 OA
HETATM    4  H           1     -23.451  -5.347  -8.572  0.00  0.00     0.163 HD
ENDROOT
BRANCH   1   5
HETATM    5  C           1     -22.904  -3.686  -9.811  0.00  0.00     0.194 C 
BRANCH   5   6
HETATM    6  C           1     -22.221  -4.412 -10.963  0.00  0.00     0.138 C 
BRANCH   6   7
HETATM    7  C           1     -20.747  -4.087 -10.959  0.00  0.00     0.217 C 
HETATM    8  O           1     -19.965  -4.833 -10.419  0.00  0.00    -0.274 OA
HETATM    9  N           1     -20.296  -2.946 -11.568  0.00  0.00    -0.370 N 
HETATM   10  H           1     -20.951  -2.321 -12.020  0.00  0.00     0.159 HD
HETATM   11  H           1     -19.308  -2.728 -11.565  0.00  0.00     0.159 HD
ENDBRANCH   6   7
ENDBRANCH   5   6
BRANCH   5  12
HETATM   12  C           1     -24.337  -3.394 -10.179  0.00  0.00     0.197 C 
HETATM   13  O           1     -24.773  -3.719 -11.304  0.00  0.00    -0.646 OA
HETATM   14  O           1     -25.090  -2.825  -9.358  0.00  0.00    -0.646 OA
ENDBRANCH   5  12
ENDBRANCH   1   5
BRANCH   2  15
HETATM   15  C           1     -22.016  -5.058  -6.346  0.00  0.00     0.274 C 
BRANCH  15  16
HETATM   16  C           1     -21.161  -6.289  -6.615  0.00  0.00     0.045 C 
BRANCH  16  17
HETATM   17 Se           1     -21.436  -7.594  -5.194  0.00  0.00     0.000 Se
HETATM   18  H           1     -22.405  -6.764  -4.460  0.00  0.00     0.000 HD
ENDBRANCH  16  17
ENDBRANCH  15  16
BRANCH  15  19
HETATM   19  N           1     -23.409  -5.485  -5.994  0.00  0.00    -0.067 N 
HETATM   20  H           1     -23.854  -4.760  -5.388  0.00  0.00     0.275 HD
HETATM   21  H           1     -23.970  -5.601  -6.868  0.00  0.00     0.275 HD
HETATM   22  H           1     -23.374  -6.395  -5.479  0.00  0.00     0.275 HD
ENDBRANCH  15  19
ENDBRANCH   2  15
TORSDOF 8
ENDMDL
MODEL 5
REMARK VINA RESULT:      -5.2     11.109     12.065
REMARK  8 active torsions:
REMARK  status: ('A' for Active; 'I' for Inactive)
REMARK       I    between atoms: C_2  and  N_3 
REMARK    1  A    between atoms: C_2  and  C_4 
REMARK    2  A    between atoms: C_4  and  C_5 
REMARK    3  A    between atoms: C_5  and  C_6 
REMARK    4  A    between atoms: C_5  and  N_9 
REMARK       I    between atoms: N_9  and  C_10 
REMARK    5  A    between atoms: C_10  and  C_11 
REMARK    6  A    between atoms: C_11  and  C_12 
REMARK    7  A    between atoms: C_11  and  N_14 
REMARK    8  A    between atoms: C_12  and  Se_13 
ROOT
HETATM    1  N           1     -20.996  -4.286  -8.851  0.00  0.00    -0.344 N 
HETATM    2  C           1     -20.870  -5.286  -7.925  0.00  0.00     0.249 C 
HETATM    3  O           1     -21.636  -6.220  -7.938  0.00  0.00    -0.271 OA
HETATM    4  H           1     -20.355  -3.504  -8.841  0.00  0.00     0.163 HD
ENDROOT
BRANCH   1   5
HETATM    5  C           1     -22.047  -4.349  -9.848  0.00  0.00     0.194 C 
BRANCH   5   6
HETATM    6  C           1     -23.078  -3.264  -9.567  0.00  0.00     0.138 C 
BRANCH   6   7
HETATM    7  C           1     -24.440  -3.734 -10.018  0.00  0.00     0.217 C 
HETATM    8  O           1     -25.031  -3.133 -10.883  0.00  0.00    -0.274 OA
HETATM    9  N           1     -25.005  -4.843  -9.445  0.00  0.00    -0.370 N 
HETATM   10  H           1     -24.510  -5.346  -8.720  0.00  0.00     0.159 HD
HETATM   11  H           1     -25.918  -5.158  -9.747  0.00  0.00     0.159 HD
ENDBRANCH   6   7
ENDBRANCH   5   6
BRANCH   5  12
HETATM   12  C           1     -21.454  -4.137 -11.219  0.00  0.00     0.197 C 
HETATM   13  O           1     -22.189  -4.160 -12.229  0.00  0.00    -0.646 OA
HETATM   14  O           1     -20.226  -3.940 -11.345  0.00  0.00    -0.646 OA
ENDBRANCH   5  12
ENDBRANCH   1   5
BRANCH   2  15
HETATM   15  C           1     -19.777  -5.221  -6.888  0.00  0.00     0.274 C 
BRANCH  15  16
HETATM   16  C           1     -20.337  -4.652  -5.592  0.00  0.00     0.045 C 
BRANCH  16  17
HETATM   17 Se           1     -21.122  -6.090  -4.536  0.00  0.00     0.000 Se
HETATM   18  H           1     -22.275  -5.290  -4.091  0.00  0.00     0.000 HD
ENDBRANCH  16  17
ENDBRANCH  15  16
BRANCH  15  19
HETATM   19  N           1     -18.669  -4.340  -7.383  0.00  0.00    -0.067 N 
HETATM   20  H           1     -18.275  -3.793  -6.586  0.00  0.00     0.275 HD
HETATM   21  H           1     -17.918  -4.929  -7.807  0.00  0.00     0.275 HD
HETATM   22  H           1     -19.045  -3.682  -8.104  0.00  0.00     0.275 HD
ENDBRANCH  15  19
ENDBRANCH   2  15
TORSDOF 8
ENDMDL
MODEL 6
REMARK VINA RESULT:      -5.0     14.134     15.069
REMARK  8 active torsions:
REMARK  status: ('A' for Active; 'I' for Inactive)
REMARK       I    between atoms: C_2  and  N_3 
REMARK    1  A    between atoms: C_2  and  C_4 
REMARK    2  A    between atoms: C_4  and  C_5 
REMARK    3  A    between atoms: C_5  and  C_6 
REMARK    4  A    between atoms: C_5  and  N_9 
REMARK       I    between atoms: N_9  and  C_10 
REMARK    5  A    between atoms: C_10  and  C_11 
REMARK    6  A    between atoms: C_11  and  C_12 
REMARK    7  A    between atoms: C_11  and  N_14 
REMARK    8  A    between atoms: C_12  and  Se_13 
ROOT
HETATM    1  N           1     -20.993  -5.418  -5.000  0.00  0.00    -0.344 N 
HETATM    2  C           1     -21.457  -6.536  -4.362  0.00  0.00     0.249 C 
HETATM    3  O           1     -21.961  -7.430  -5.000  0.00  0.00    -0.271 OA
HETATM    4  H           1     -20.570  -4.670  -4.466  0.00  0.00     0.163 HD
ENDROOT
BRANCH   1   5
HETATM    5  C           1     -21.105  -5.306  -6.441  0.00  0.00     0.194 C 
BRANCH   5   6
HETATM    6  C           1     -21.538  -3.893  -6.808  0.00  0.00     0.138 C 
BRANCH   6   7
HETATM    7  C           1     -22.433  -3.939  -8.022  0.00  0.00     0.217 C 
HETATM    8  O           1     -21.964  -3.794  -9.125  0.00  0.00    -0.274 OA
HETATM    9  N           1     -23.779  -4.146  -7.872  0.00  0.00    -0.370 N 
HETATM   10  H           1     -24.172  -4.268  -6.948  0.00  0.00     0.159 HD
HETATM   11  H           1     -24.379  -4.177  -8.686  0.00  0.00     0.159 HD
ENDBRANCH   6   7
ENDBRANCH   5   6
BRANCH   5  12
HETATM   12  C           1     -19.769  -5.604  -7.074  0.00  0.00     0.197 C 
HETATM   13  O           1     -19.383  -6.787  -7.193  0.00  0.00    -0.646 OA
HETATM   14  O           1     -19.047  -4.668  -7.481  0.00  0.00    -0.646 OA
ENDBRANCH   5  12
ENDBRANCH   1   5
BRANCH   2  15
HETATM   15  C           1     -21.340  -6.653  -2.862  0.00  0.00     0.274 C 
BRANCH  15  16
HETATM   16  C           1     -21.457  -8.115  -2.455  0.00  0.00     0.045 C 
BRANCH  16  17
HETATM   17 Se           1     -19.704  -8.961  -2.555  0.00  0.00     0.000 Se
HETATM   18  H           1     -18.979  -7.785  -2.049  0.00  0.00     0.000 HD
ENDBRANCH  16  17
ENDBRANCH  15  16
BRANCH  15  19
HETATM   19  N           1     -22.437  -5.864  -2.212  0.00  0.00    -0.067 N 
HETATM   20  H           1     -23.354  -6.336  -2.380  0.00  0.00     0.275 HD
HETATM   21  H           1     -22.259  -5.802  -1.184  0.00  0.00     0.275 HD
HETATM   22  H           1     -22.461  -4.902  -2.621  0.00  0.00     0.275 HD
ENDBRANCH  15  19
ENDBRANCH   2  15
TORSDOF 8
ENDMDL
MODEL 7
REMARK VINA RESULT:      -4.9      1.900      2.714
REMARK  8 active torsions:
REMARK  status: ('A' for Active; 'I' for Inactive)
REMARK       I    between atoms: C_2  and  N_3 
REMARK    1  A    between atoms: C_2  and  C_4 
REMARK    2  A    between atoms: C_4  and  C_5 
REMARK    3  A    between atoms: C_5  and  C_6 
REMARK    4  A    between atoms: C_5  and  N_9 
REMARK       I    between atoms: N_9  and  C_10 
REMARK    5  A    between atoms: C_10  and  C_11 
REMARK    6  A    between atoms: C_11  and  C_12 
REMARK    7  A    between atoms: C_11  and  N_14 
REMARK    8  A    between atoms: C_12  and  Se_13 
ROOT
HETATM    1  N           1     -27.523  -6.437 -18.570  0.00  0.00    -0.344 N 
HETATM    2  C           1     -27.038  -6.428 -19.850  0.00  0.00     0.249 C 
HETATM    3  O           1     -27.279  -5.497 -20.581  0.00  0.00    -0.271 OA
HETATM    4  H           1     -27.321  -7.217 -17.958  0.00  0.00     0.163 HD
ENDROOT
BRANCH   1   5
HETATM    5  C           1     -28.324  -5.328 -18.091  0.00  0.00     0.194 C 
BRANCH   5   6
HETATM    6  C           1     -29.765  -5.785 -17.909  0.00  0.00     0.138 C 
BRANCH   6   7
HETATM    7  C           1     -30.613  -4.616 -17.471  0.00  0.00     0.217 C 
HETATM    8  O           1     -31.392  -4.743 -16.557  0.00  0.00    -0.274 OA
HETATM    9  N           1     -30.499  -3.410 -18.111  0.00  0.00    -0.370 N 
HETATM   10  H           1     -29.847  -3.304 -18.878  0.00  0.00     0.159 HD
HETATM   11  H           1     -31.068  -2.626 -17.818  0.00  0.00     0.159 HD
ENDBRANCH   6   7
ENDBRANCH   5   6
BRANCH   5  12
HETATM   12  C           1     -27.778  -4.847 -16.769  0.00  0.00     0.197 C 
HETATM   13  O           1     -27.347  -5.670 -15.933  0.00  0.00    -0.646 OA
HETATM   14  O           1     -27.757  -3.624 -16.509  0.00  0.00    -0.646 OA
ENDBRANCH   5  12
ENDBRANCH   1   5
BRANCH   2  15
HETATM   15  C           1     -26.204  -7.582 -20.349  0.00  0.00     0.274 C 
BRANCH  15  16
HETATM   16  C           1     -25.107  -7.058 -21.265  0.00  0.00     0.045 C 
BRANCH  16  17
HETATM   17 Se           1     -23.612  -8.308 -21.271  0.00  0.00     0.000 Se
HETATM   18  H           1     -23.869  -8.802 -19.908  0.00  0.00     0.000 HD
ENDBRANCH  16  17
ENDBRANCH  15  16
BRANCH  15  19
HETATM   19  N           1     -27.075  -8.537 -21.109  0.00  0.00    -0.067 N 
HETATM   20  H           1     -27.595  -8.020 -21.853  0.00  0.00     0.275 HD
HETATM   21  H           1     -26.482  -9.276 -21.548  0.00  0.00     0.275 HD
HETATM   22  H           1     -27.757  -8.981 -20.453  0.00  0.00     0.275 HD
ENDBRANCH  15  19
ENDBRANCH   2  15
TORSDOF 8
ENDMDL
MODEL 8
REMARK VINA RESULT:      -4.9      2.166      3.391
REMARK  8 active torsions:
REMARK  status: ('A' for Active; 'I' for Inactive)
REMARK       I    between atoms: C_2  and  N_3 
REMARK    1  A    between atoms: C_2  and  C_4 
REMARK    2  A    between atoms: C_4  and  C_5 
REMARK    3  A    between atoms: C_5  and  C_6 
REMARK    4  A    between atoms: C_5  and  N_9 
REMARK       I    between atoms: N_9  and  C_10 
REMARK    5  A    between atoms: C_10  and  C_11 
REMARK    6  A    between atoms: C_11  and  C_12 
REMARK    7  A    between atoms: C_11  and  N_14 
REMARK    8  A    between atoms: C_12  and  Se_13 
ROOT
HETATM    1  N           1     -27.453  -6.334 -18.583  0.00  0.00    -0.344 N 
HETATM    2  C           1     -26.731  -6.428 -19.742  0.00  0.00     0.249 C 
HETATM    3  O           1     -26.992  -5.706 -20.676  0.00  0.00    -0.271 OA
HETATM    4  H           1     -27.234  -6.938 -17.801  0.00  0.00     0.163 HD
ENDROOT
BRANCH   1   5
HETATM    5  C           1     -28.528  -5.367 -18.474  0.00  0.00     0.194 C 
BRANCH   5   6
HETATM    6  C           1     -29.839  -6.095 -18.209  0.00  0.00     0.138 C 
BRANCH   6   7
HETATM    7  C           1     -29.552  -7.526 -17.822  0.00  0.00     0.217 C 
HETATM    8  O           1     -29.125  -7.780 -16.721  0.00  0.00    -0.274 OA
HETATM    9  N           1     -29.775  -8.535 -18.721  0.00  0.00    -0.370 N 
HETATM   10  H           1     -30.132  -8.322 -19.643  0.00  0.00     0.159 HD
HETATM   11  H           1     -29.582  -9.494 -18.461  0.00  0.00     0.159 HD
ENDBRANCH   6   7
ENDBRANCH   5   6
BRANCH   5  12
HETATM   12  C           1     -28.239  -4.420 -17.337  0.00  0.00     0.197 C 
HETATM   13  O           1     -28.786  -3.296 -17.304  0.00  0.00    -0.646 OA
HETATM   14  O           1     -27.452  -4.757 -16.426  0.00  0.00    -0.646 OA
ENDBRANCH   5  12
ENDBRANCH   1   5
BRANCH   2  15
HETATM   15  C           1     -25.612  -7.433 -19.856  0.00  0.00     0.274 C 
BRANCH  15  16
HETATM   16  C           1     -24.346  -6.858 -19.237  0.00  0.00     0.045 C 
BRANCH  16  17
HETATM   17 Se           1     -24.305  -7.275 -17.334  0.00  0.00     0.000 Se
HETATM   18  H           1     -25.708  -7.717 -17.282  0.00  0.00     0.000 HD
ENDBRANCH  16  17
ENDBRANCH  15  16
BRANCH  15  19
HETATM   19  N           1     -25.365  -7.744 -21.302  0.00  0.00    -0.067 N 
HETATM   20  H           1     -24.336  -7.771 -21.482  0.00  0.00     0.275 HD
HETATM   21  H           1     -25.784  -8.672 -21.535  0.00  0.00     0.275 HD
HETATM   22  H           1     -25.803  -7.004 -21.896  0.00  0.00     0.275 HD
ENDBRANCH  15  19
ENDBRANCH   2  15
TORSDOF 8
ENDMDL
MODEL 9
REMARK VINA RESULT:      -4.7     14.549     15.664
REMARK  8 active torsions:
REMARK  status: ('A' for Active; 'I' for Inactive)
REMARK       I    between atoms: C_2  and  N_3 
REMARK    1  A    between atoms: C_2  and  C_4 
REMARK    2  A    between atoms: C_4  and  C_5 
REMARK    3  A    between atoms: C_5  and  C_6 
REMARK    4  A    between atoms: C_5  and  N_9 
REMARK       I    between atoms: N_9  and  C_10 
REMARK    5  A    between atoms: C_10  and  C_11 
REMARK    6  A    between atoms: C_11  and  C_12 
REMARK    7  A    between atoms: C_11  and  N_14 
REMARK    8  A    between atoms: C_12  and  Se_13 
ROOT
HETATM    1  N           1     -20.868  -6.630  -4.818  0.00  0.00    -0.344 N 
HETATM    2  C           1     -21.394  -5.723  -5.698  0.00  0.00     0.249 C 
HETATM    3  O           1     -22.588  -5.551  -5.745  0.00  0.00    -0.271 OA
HETATM    4  H           1     -19.867  -6.774  -4.778  0.00  0.00     0.163 HD
ENDROOT
BRANCH   1   5
HETATM    5  C           1     -21.744  -7.382  -3.941  0.00  0.00     0.194 C 
BRANCH   5   6
HETATM    6  C           1     -21.357  -8.855  -3.980  0.00  0.00     0.138 C 
BRANCH   6   7
HETATM    7  C           1     -19.945  -8.992  -4.494  0.00  0.00     0.217 C 
HETATM    8  O           1     -19.737  -9.040  -5.683  0.00  0.00    -0.274 OA
HETATM    9  N           1     -18.899  -9.060  -3.613  0.00  0.00    -0.370 N 
HETATM   10  H           1     -19.073  -9.020  -2.617  0.00  0.00     0.159 HD
HETATM   11  H           1     -17.952  -9.152  -3.958  0.00  0.00     0.159 HD
ENDBRANCH   6   7
ENDBRANCH   5   6
BRANCH   5  12
HETATM   12  C           1     -21.610  -6.864  -2.531  0.00  0.00     0.197 C 
HETATM   13  O           1     -22.261  -5.860  -2.169  0.00  0.00    -0.646 OA
HETATM   14  O           1     -20.847  -7.437  -1.723  0.00  0.00    -0.646 OA
ENDBRANCH   5  12
ENDBRANCH   1   5
BRANCH   2  15
HETATM   15  C           1     -20.483  -4.941  -6.610  0.00  0.00     0.274 C 
BRANCH  15  16
HETATM   16  C           1     -21.244  -3.764  -7.203  0.00  0.00     0.045 C 
BRANCH  16  17
HETATM   17 Se           1     -21.761  -4.179  -9.036  0.00  0.00     0.000 Se
HETATM   18  H           1     -21.655  -2.788  -9.504  0.00  0.00     0.000 HD
ENDBRANCH  16  17
ENDBRANCH  15  16
BRANCH  15  19
HETATM   19  N           1     -19.998  -5.830  -7.716  0.00  0.00    -0.067 N 
HETATM   20  H           1     -20.492  -5.585  -8.603  0.00  0.00     0.275 HD
HETATM   21  H           1     -18.969  -5.699  -7.843  0.00  0.00     0.275 HD
HETATM   22  H           1     -20.195  -6.827  -7.471  0.00  0.00     0.275 HD
ENDBRANCH  15  19
ENDBRANCH   2  15
TORSDOF 8
ENDMDL
