MODEL 1
REMARK VINA RESULT:      -8.0      0.000      0.000
REMARK  11 active torsions:
REMARK  status: ('A' for Active; 'I' for Inactive)
REMARK    1  A    between atoms: C_2  and  C_4 
REMARK    2  A    between atoms: C_4  and  C_5 
REMARK    3  A    between atoms: C_5  and  C_28 
REMARK    4  A    between atoms: C_5  and  N_25 
REMARK    5  A    between atoms: N_10  and  C_23 
REMARK    6  A    between atoms: O_15  and  P_16 
REMARK    7  A    between atoms: P_16  and  O_17 
REMARK    8  A    between atoms: O_17  and  C_18 
REMARK    9  A    between atoms: C_21  and  C_22 
REMARK   10  A    between atoms: C_22  and  C_23 
REMARK   11  A    between atoms: C_23  and  C_24 
REMARK       I    between atoms: C_24  and  N_25 
ROOT
HETATM    1  C           1     -22.434  -4.999  -6.232  0.00  0.00     0.260 C 
ENDROOT
BRANCH   1   2
HETATM    2  N           1     -23.851  -5.420  -5.973  0.00  0.00    -0.067 N 
HETATM    3  H           1     -24.254  -4.832  -5.208  0.00  0.00     0.275 HD
HETATM    4  H           1     -24.415  -5.294  -6.843  0.00  0.00     0.275 HD
HETATM    5  H           1     -23.868  -6.424  -5.687  0.00  0.00     0.275 HD
ENDBRANCH   1   2
BRANCH   1   6
HETATM    6  C           1     -21.545  -6.232  -6.316  0.00  0.00     0.079 C 
BRANCH   6   7
HETATM    7  C           1     -21.428  -6.856  -4.960  0.00  0.00    -0.056 A 
HETATM    8  C           1     -21.186  -6.058  -3.842  0.00  0.00     0.010 A 
HETATM    9  C           1     -21.076  -6.641  -2.580  0.00  0.00     0.038 A 
HETATM   10  C           1     -21.210  -8.021  -2.434  0.00  0.00     0.081 A 
HETATM   11  C           1     -21.452  -8.819  -3.552  0.00  0.00     0.038 A 
HETATM   12  C           1     -21.561  -8.237  -4.815  0.00  0.00     0.010 A 
BRANCH  10  13
HETATM   13  O           1     -21.104  -8.587  -1.208  0.00  0.00    -0.247 OA
BRANCH  13  14
HETATM   14  P           1     -22.267  -8.284  -0.130  0.00  0.00     0.411 P 
HETATM   15  O           1     -22.990  -7.052  -0.516  0.00  0.00    -0.624 OA
HETATM   16  O           1     -21.663  -8.105   1.209  0.00  0.00    -0.624 OA
BRANCH  14  17
HETATM   17  O           1     -23.300  -9.525  -0.091  0.00  0.00    -0.300 OA
HETATM   18  H           1     -24.095  -9.169   0.268  0.00  0.00     0.223 HD
ENDBRANCH  14  17
ENDBRANCH  13  14
ENDBRANCH  10  13
ENDBRANCH   6   7
ENDBRANCH   1   6
BRANCH   1  19
HETATM   19  C           1     -22.366  -4.240  -7.535  0.00  0.00     0.130 C 
HETATM   20  O           1     -21.575  -3.338  -7.668  0.00  0.00    -0.397 OA
HETATM   21  N           1     -23.203  -4.576  -8.566  0.00  0.00    -0.359 N 
HETATM   22  H           1     -23.866  -5.332  -8.455  0.00  0.00     0.162 HD
BRANCH  21  23
HETATM   23  C           1     -23.137  -3.847  -9.818  0.00  0.00     0.184 C 
BRANCH  23  24
HETATM   24  C           1     -22.591  -4.758 -10.910  0.00  0.00     0.040 C 
BRANCH  24  25
HETATM   25  C           1     -21.241  -4.233 -11.381  0.00  0.00    -0.018 C 
HETATM   26  C           1     -20.143  -4.757 -10.464  0.00  0.00     0.289 C 
HETATM   27  C           1     -21.248  -2.711 -11.343  0.00  0.00     0.009 C 
ENDBRANCH  24  25
ENDBRANCH  23  24
BRANCH  23  28
HETATM   28  C           1     -24.520  -3.380 -10.200  0.00  0.00     0.196 C 
HETATM   29  O           1     -25.218  -2.753  -9.373  0.00  0.00    -0.646 OA
HETATM   30  O           1     -24.968  -3.618 -11.341  0.00  0.00    -0.646 OA
ENDBRANCH  23  28
ENDBRANCH  21  23
ENDBRANCH   1  19
TORSDOF 11
ENDMDL
MODEL 2
REMARK VINA RESULT:      -7.6      3.575      8.719
REMARK  11 active torsions:
REMARK  status: ('A' for Active; 'I' for Inactive)
REMARK    1  A    between atoms: C_2  and  C_4 
REMARK    2  A    between atoms: C_4  and  C_5 
REMARK    3  A    between atoms: C_5  and  C_28 
REMARK    4  A    between atoms: C_5  and  N_25 
REMARK    5  A    between atoms: N_10  and  C_23 
REMARK    6  A    between atoms: O_15  and  P_16 
REMARK    7  A    between atoms: P_16  and  O_17 
REMARK    8  A    between atoms: O_17  and  C_18 
REMARK    9  A    between atoms: C_21  and  C_22 
REMARK   10  A    between atoms: C_22  and  C_23 
REMARK   11  A    between atoms: C_23  and  C_24 
REMARK       I    between atoms: C_24  and  N_25 
ROOT
HETATM    1  C           1     -21.542  -6.462  -4.834  0.00  0.00     0.260 C 
ENDROOT
BRANCH   1   2
HETATM    2  N           1     -21.813  -5.978  -3.439  0.00  0.00    -0.067 N 
HETATM    3  H           1     -22.232  -6.754  -2.877  0.00  0.00     0.275 HD
HETATM    4  H           1     -20.918  -5.673  -2.997  0.00  0.00     0.275 HD
HETATM    5  H           1     -22.480  -5.174  -3.474  0.00  0.00     0.275 HD
ENDBRANCH   1   2
BRANCH   1   6
HETATM    6  C           1     -20.482  -5.580  -5.479  0.00  0.00     0.079 C 
BRANCH   6   7
HETATM    7  C           1     -20.993  -5.060  -6.787  0.00  0.00    -0.056 A 
HETATM    8  C           1     -22.277  -4.522  -6.870  0.00  0.00     0.010 A 
HETATM    9  C           1     -22.752  -4.037  -8.089  0.00  0.00     0.038 A 
HETATM   10  C           1     -21.943  -4.089  -9.224  0.00  0.00     0.081 A 
HETATM   11  C           1     -20.659  -4.627  -9.140  0.00  0.00     0.038 A 
HETATM   12  C           1     -20.183  -5.112  -7.922  0.00  0.00     0.010 A 
BRANCH  10  13
HETATM   13  O           1     -22.405  -3.618 -10.407  0.00  0.00    -0.247 OA
BRANCH  13  14
HETATM   14  P           1     -23.735  -4.295 -11.025  0.00  0.00     0.411 P 
HETATM   15  O           1     -24.867  -3.349 -10.911  0.00  0.00    -0.624 OA
HETATM   16  O           1     -24.048  -5.535 -10.281  0.00  0.00    -0.624 OA
BRANCH  14  17
HETATM   17  O           1     -23.484  -4.650 -12.580  0.00  0.00    -0.300 OA
HETATM   18  H           1     -22.846  -5.344 -12.572  0.00  0.00     0.223 HD
ENDBRANCH  14  17
ENDBRANCH  13  14
ENDBRANCH  10  13
ENDBRANCH   6   7
ENDBRANCH   1   6
BRANCH   1  19
HETATM   19  C           1     -21.048  -7.887  -4.783  0.00  0.00     0.130 C 
HETATM   20  O           1     -21.025  -8.555  -5.788  0.00  0.00    -0.397 OA
HETATM   21  N           1     -20.626  -8.423  -3.594  0.00  0.00    -0.359 N 
HETATM   22  H           1     -20.646  -7.864  -2.752  0.00  0.00     0.162 HD
BRANCH  21  23
HETATM   23  C           1     -20.152  -9.792  -3.546  0.00  0.00     0.184 C 
BRANCH  23  24
HETATM   24  C           1     -18.884  -9.863  -2.705  0.00  0.00     0.040 C 
BRANCH  24  25
HETATM   25  C           1     -17.692  -9.423  -3.545  0.00  0.00    -0.018 C 
HETATM   26  C           1     -17.718 -10.148  -4.885  0.00  0.00     0.289 C 
HETATM   27  C           1     -16.402  -9.762  -2.810  0.00  0.00     0.009 C 
ENDBRANCH  24  25
ENDBRANCH  23  24
BRANCH  23  28
HETATM   28  C           1     -21.213 -10.669  -2.929  0.00  0.00     0.196 C 
HETATM   29  O           1     -22.269 -10.906  -3.554  0.00  0.00    -0.646 OA
HETATM   30  O           1     -21.037 -11.159  -1.793  0.00  0.00    -0.646 OA
ENDBRANCH  23  28
ENDBRANCH  21  23
ENDBRANCH   1  19
TORSDOF 11
ENDMDL
MODEL 3
REMARK VINA RESULT:      -7.6      3.410      9.080
REMARK  11 active torsions:
REMARK  status: ('A' for Active; 'I' for Inactive)
REMARK    1  A    between atoms: C_2  and  C_4 
REMARK    2  A    between atoms: C_4  and  C_5 
REMARK    3  A    between atoms: C_5  and  C_28 
REMARK    4  A    between atoms: C_5  and  N_25 
REMARK    5  A    between atoms: N_10  and  C_23 
REMARK    6  A    between atoms: O_15  and  P_16 
REMARK    7  A    between atoms: P_16  and  O_17 
REMARK    8  A    between atoms: O_17  and  C_18 
REMARK    9  A    between atoms: C_21  and  C_22 
REMARK   10  A    between atoms: C_22  and  C_23 
REMARK   11  A    between atoms: C_23  and  C_24 
REMARK       I    between atoms: C_24  and  N_25 
ROOT
HETATM    1  C           1     -20.210  -7.796  -5.318  0.00  0.00     0.260 C 
ENDROOT
BRANCH   1   2
HETATM    2  N           1     -21.293  -8.539  -6.043  0.00  0.00    -0.067 N 
HETATM    3  H           1     -21.989  -7.857  -6.423  0.00  0.00     0.275 HD
HETATM    4  H           1     -20.875  -9.084  -6.829  0.00  0.00     0.275 HD
HETATM    5  H           1     -21.771  -9.191  -5.380  0.00  0.00     0.275 HD
ENDBRANCH   1   2
BRANCH   1   6
HETATM    6  C           1     -20.677  -6.377  -5.026  0.00  0.00     0.079 C 
BRANCH   6   7
HETATM    7  C           1     -20.922  -5.655  -6.315  0.00  0.00    -0.056 A 
HETATM    8  C           1     -19.957  -5.679  -7.322  0.00  0.00     0.010 A 
HETATM    9  C           1     -20.185  -5.006  -8.522  0.00  0.00     0.038 A 
HETATM   10  C           1     -21.379  -4.311  -8.717  0.00  0.00     0.081 A 
HETATM   11  C           1     -22.344  -4.288  -7.710  0.00  0.00     0.038 A 
HETATM   12  C           1     -22.116  -4.960  -6.509  0.00  0.00     0.010 A 
BRANCH  10  13
HETATM   13  O           1     -21.600  -3.658  -9.883  0.00  0.00    -0.247 OA
BRANCH  13  14
HETATM   14  P           1     -22.859  -4.119 -10.783  0.00  0.00     0.411 P 
HETATM   15  O           1     -23.884  -3.052 -10.782  0.00  0.00    -0.624 OA
HETATM   16  O           1     -23.437  -5.361 -10.222  0.00  0.00    -0.624 OA
BRANCH  14  17
HETATM   17  O           1     -22.366  -4.392 -12.297  0.00  0.00    -0.300 OA
HETATM   18  H           1     -21.790  -3.674 -12.499  0.00  0.00     0.223 HD
ENDBRANCH  14  17
ENDBRANCH  13  14
ENDBRANCH  10  13
ENDBRANCH   6   7
ENDBRANCH   1   6
BRANCH   1  19
HETATM   19  C           1     -19.899  -8.501  -4.020  0.00  0.00     0.130 C 
HETATM   20  O           1     -18.781  -8.900  -3.803  0.00  0.00    -0.397 OA
HETATM   21  N           1     -20.887  -8.686  -3.090  0.00  0.00    -0.359 N 
HETATM   22  H           1     -21.824  -8.352  -3.272  0.00  0.00     0.162 HD
BRANCH  21  23
HETATM   23  C           1     -20.588  -9.364  -1.842  0.00  0.00     0.184 C 
BRANCH  23  24
HETATM   24  C           1     -20.887  -8.434  -0.674  0.00  0.00     0.040 C 
BRANCH  24  25
HETATM   25  C           1     -22.307  -7.899  -0.800  0.00  0.00    -0.018 C 
HETATM   26  C           1     -22.264  -6.431  -1.205  0.00  0.00     0.289 C 
HETATM   27  C           1     -23.020  -8.035   0.539  0.00  0.00     0.009 C 
ENDBRANCH  24  25
ENDBRANCH  23  24
BRANCH  23  28
HETATM   28  C           1     -21.440 -10.604  -1.728  0.00  0.00     0.196 C 
HETATM   29  O           1     -22.216 -10.916  -2.657  0.00  0.00    -0.646 OA
HETATM   30  O           1     -21.370 -11.319  -0.706  0.00  0.00    -0.646 OA
ENDBRANCH  23  28
ENDBRANCH  21  23
ENDBRANCH   1  19
TORSDOF 11
ENDMDL
MODEL 4
REMARK VINA RESULT:      -7.4     12.006     14.341
REMARK  11 active torsions:
REMARK  status: ('A' for Active; 'I' for Inactive)
REMARK    1  A    between atoms: C_2  and  C_4 
REMARK    2  A    between atoms: C_4  and  C_5 
REMARK    3  A    between atoms: C_5  and  C_28 
REMARK    4  A    between atoms: C_5  and  N_25 
REMARK    5  A    between atoms: N_10  and  C_23 
REMARK    6  A    between atoms: O_15  and  P_16 
REMARK    7  A    between atoms: P_16  and  O_17 
REMARK    8  A    between atoms: O_17  and  C_18 
REMARK    9  A    between atoms: C_21  and  C_22 
REMARK   10  A    between atoms: C_22  and  C_23 
REMARK   11  A    between atoms: C_23  and  C_24 
REMARK       I    between atoms: C_24  and  N_25 
ROOT
HETATM    1  C           1     -32.808  -4.647 -16.969  0.00  0.00     0.260 C 
ENDROOT
BRANCH   1   2
HETATM    2  N           1     -31.778  -3.557 -16.921  0.00  0.00    -0.067 N 
HETATM    3  H           1     -31.757  -3.057 -17.839  0.00  0.00     0.275 HD
HETATM    4  H           1     -32.021  -2.882 -16.162  0.00  0.00     0.275 HD
HETATM    5  H           1     -30.839  -3.975 -16.731  0.00  0.00     0.275 HD
ENDBRANCH   1   2
BRANCH   1   6
HETATM    6  C           1     -32.114  -5.999 -17.044  0.00  0.00     0.079 C 
BRANCH   6   7
HETATM    7  C           1     -30.633  -5.808 -16.933  0.00  0.00    -0.056 A 
HETATM    8  C           1     -29.835  -5.864 -18.076  0.00  0.00     0.010 A 
HETATM    9  C           1     -28.456  -5.686 -17.972  0.00  0.00     0.038 A 
HETATM   10  C           1     -27.874  -5.449 -16.727  0.00  0.00     0.081 A 
HETATM   11  C           1     -28.672  -5.393 -15.584  0.00  0.00     0.038 A 
HETATM   12  C           1     -30.052  -5.571 -15.687  0.00  0.00     0.010 A 
BRANCH  10  13
HETATM   13  O           1     -26.534  -5.276 -16.627  0.00  0.00    -0.247 OA
BRANCH  13  14
HETATM   14  P           1     -25.659  -6.478 -15.996  0.00  0.00     0.411 P 
HETATM   15  O           1     -24.726  -6.998 -17.019  0.00  0.00    -0.624 OA
HETATM   16  O           1     -26.562  -7.563 -15.550  0.00  0.00    -0.624 OA
BRANCH  14  17
HETATM   17  O           1     -24.819  -5.925 -14.731  0.00  0.00    -0.300 OA
HETATM   18  H           1     -23.919  -6.115 -14.935  0.00  0.00     0.223 HD
ENDBRANCH  14  17
ENDBRANCH  13  14
ENDBRANCH  10  13
ENDBRANCH   6   7
ENDBRANCH   1   6
BRANCH   1  19
HETATM   19  C           1     -33.661  -4.587 -15.725  0.00  0.00     0.130 C 
HETATM   20  O           1     -34.801  -4.982 -15.754  0.00  0.00    -0.397 OA
HETATM   21  N           1     -33.139  -4.083 -14.563  0.00  0.00    -0.359 N 
HETATM   22  H           1     -32.184  -3.751 -14.538  0.00  0.00     0.162 HD
BRANCH  21  23
HETATM   23  C           1     -33.959  -4.025 -13.367  0.00  0.00     0.184 C 
BRANCH  23  24
HETATM   24  C           1     -33.124  -4.424 -12.158  0.00  0.00     0.040 C 
BRANCH  24  25
HETATM   25  C           1     -33.834  -5.534 -11.394  0.00  0.00    -0.018 C 
HETATM   26  C           1     -35.016  -6.039 -12.211  0.00  0.00     0.289 C 
HETATM   27  C           1     -34.334  -4.992 -10.062  0.00  0.00     0.009 C 
ENDBRANCH  24  25
ENDBRANCH  23  24
BRANCH  23  28
HETATM   28  C           1     -34.474  -2.620 -13.180  0.00  0.00     0.196 C 
HETATM   29  O           1     -34.321  -2.039 -12.084  0.00  0.00    -0.646 OA
HETATM   30  O           1     -35.054  -2.036 -14.120  0.00  0.00    -0.646 OA
ENDBRANCH  23  28
ENDBRANCH  21  23
ENDBRANCH   1  19
TORSDOF 11
ENDMDL
MODEL 5
REMARK VINA RESULT:      -7.4      3.553      9.047
REMARK  11 active torsions:
REMARK  status: ('A' for Active; 'I' for Inactive)
REMARK    1  A    between atoms: C_2  and  C_4 
REMARK    2  A    between atoms: C_4  and  C_5 
REMARK    3  A    between atoms: C_5  and  C_28 
REMARK    4  A    between atoms: C_5  and  N_25 
REMARK    5  A    between atoms: N_10  and  C_23 
REMARK    6  A    between atoms: O_15  and  P_16 
REMARK    7  A    between atoms: P_16  and  O_17 
REMARK    8  A    between atoms: O_17  and  C_18 
REMARK    9  A    between atoms: C_21  and  C_22 
REMARK   10  A    between atoms: C_22  and  C_23 
REMARK   11  A    between atoms: C_23  and  C_24 
REMARK       I    between atoms: C_24  and  N_25 
ROOT
HETATM    1  C           1     -21.584  -6.638  -4.780  0.00  0.00     0.260 C 
ENDROOT
BRANCH   1   2
HETATM    2  N           1     -22.307  -5.936  -3.668  0.00  0.00    -0.067 N 
HETATM    3  H           1     -21.980  -4.944  -3.613  0.00  0.00     0.275 HD
HETATM    4  H           1     -23.334  -5.953  -3.856  0.00  0.00     0.275 HD
HETATM    5  H           1     -22.107  -6.419  -2.764  0.00  0.00     0.275 HD
ENDBRANCH   1   2
BRANCH   1   6
HETATM    6  C           1     -20.543  -5.703  -5.378  0.00  0.00     0.079 C 
BRANCH   6   7
HETATM    7  C           1     -21.039  -5.171  -6.687  0.00  0.00    -0.056 A 
HETATM    8  C           1     -20.259  -5.303  -7.835  0.00  0.00     0.010 A 
HETATM    9  C           1     -20.722  -4.808  -9.054  0.00  0.00     0.038 A 
HETATM   10  C           1     -21.967  -4.183  -9.125  0.00  0.00     0.081 A 
HETATM   11  C           1     -22.747  -4.051  -7.977  0.00  0.00     0.038 A 
HETATM   12  C           1     -22.284  -4.546  -6.757  0.00  0.00     0.010 A 
BRANCH  10  13
HETATM   13  O           1     -22.417  -3.702 -10.309  0.00  0.00    -0.247 OA
BRANCH  13  14
HETATM   14  P           1     -23.770  -4.337 -10.921  0.00  0.00     0.411 P 
HETATM   15  O           1     -24.848  -3.324 -10.889  0.00  0.00    -0.624 OA
HETATM   16  O           1     -24.170  -5.512 -10.115  0.00  0.00    -0.624 OA
BRANCH  14  17
HETATM   17  O           1     -23.507  -4.797 -12.446  0.00  0.00    -0.300 OA
HETATM   18  H           1     -24.025  -4.210 -12.971  0.00  0.00     0.223 HD
ENDBRANCH  14  17
ENDBRANCH  13  14
ENDBRANCH  10  13
ENDBRANCH   6   7
ENDBRANCH   1   6
BRANCH   1  19
HETATM   19  C           1     -20.902  -7.869  -4.236  0.00  0.00     0.130 C 
HETATM   20  O           1     -19.878  -8.264  -4.738  0.00  0.00    -0.397 OA
HETATM   21  N           1     -21.446  -8.538  -3.172  0.00  0.00    -0.359 N 
HETATM   22  H           1     -22.305  -8.208  -2.751  0.00  0.00     0.162 HD
BRANCH  21  23
HETATM   23  C           1     -20.790  -9.722  -2.649  0.00  0.00     0.184 C 
BRANCH  23  24
HETATM   24  C           1     -20.923  -9.750  -1.133  0.00  0.00     0.040 C 
BRANCH  24  25
HETATM   25  C           1     -22.282  -9.190  -0.731  0.00  0.00    -0.018 C 
HETATM   26  C           1     -22.099  -8.143   0.360  0.00  0.00     0.289 C 
HETATM   27  C           1     -23.160 -10.319  -0.208  0.00  0.00     0.009 C 
ENDBRANCH  24  25
ENDBRANCH  23  24
BRANCH  23  28
HETATM   28  C           1     -21.438 -10.953  -3.233  0.00  0.00     0.196 C 
HETATM   29  O           1     -20.996 -12.087  -2.947  0.00  0.00    -0.646 OA
HETATM   30  O           1     -22.416 -10.840  -4.002  0.00  0.00    -0.646 OA
ENDBRANCH  23  28
ENDBRANCH  21  23
ENDBRANCH   1  19
TORSDOF 11
ENDMDL
MODEL 6
REMARK VINA RESULT:      -7.3     13.279     15.260
REMARK  11 active torsions:
REMARK  status: ('A' for Active; 'I' for Inactive)
REMARK    1  A    between atoms: C_2  and  C_4 
REMARK    2  A    between atoms: C_4  and  C_5 
REMARK    3  A    between atoms: C_5  and  C_28 
REMARK    4  A    between atoms: C_5  and  N_25 
REMARK    5  A    between atoms: N_10  and  C_23 
REMARK    6  A    between atoms: O_15  and  P_16 
REMARK    7  A    between atoms: P_16  and  O_17 
REMARK    8  A    between atoms: O_17  and  C_18 
REMARK    9  A    between atoms: C_21  and  C_22 
REMARK   10  A    between atoms: C_22  and  C_23 
REMARK   11  A    between atoms: C_23  and  C_24 
REMARK       I    between atoms: C_24  and  N_25 
ROOT
HETATM    1  C           1     -33.950  -5.200 -15.443  0.00  0.00     0.260 C 
ENDROOT
BRANCH   1   2
HETATM    2  N           1     -35.073  -5.929 -16.122  0.00  0.00    -0.067 N 
HETATM    3  H           1     -35.228  -6.848 -15.647  0.00  0.00     0.275 HD
HETATM    4  H           1     -35.944  -5.356 -16.065  0.00  0.00     0.275 HD
HETATM    5  H           1     -34.826  -6.092 -17.124  0.00  0.00     0.275 HD
ENDBRANCH   1   2
BRANCH   1   6
HETATM    6  C           1     -33.399  -4.134 -16.379  0.00  0.00     0.079 C 
BRANCH   6   7
HETATM    7  C           1     -32.067  -4.570 -16.905  0.00  0.00    -0.056 A 
HETATM    8  C           1     -31.727  -5.922 -16.911  0.00  0.00     0.010 A 
HETATM    9  C           1     -30.486  -6.328 -17.401  0.00  0.00     0.038 A 
HETATM   10  C           1     -29.585  -5.381 -17.887  0.00  0.00     0.081 A 
HETATM   11  C           1     -29.924  -4.028 -17.881  0.00  0.00     0.038 A 
HETATM   12  C           1     -31.165  -3.622 -17.391  0.00  0.00     0.010 A 
BRANCH  10  13
HETATM   13  O           1     -28.379  -5.775 -18.363  0.00  0.00    -0.247 OA
BRANCH  13  14
HETATM   14  P           1     -27.176  -5.980 -17.305  0.00  0.00     0.411 P 
HETATM   15  O           1     -27.011  -4.747 -16.503  0.00  0.00    -0.624 OA
HETATM   16  O           1     -25.922  -6.267 -18.036  0.00  0.00    -0.624 OA
BRANCH  14  17
HETATM   17  O           1     -27.524  -7.217 -16.328  0.00  0.00    -0.300 OA
HETATM   18  H           1     -26.722  -7.709 -16.263  0.00  0.00     0.223 HD
ENDBRANCH  14  17
ENDBRANCH  13  14
ENDBRANCH  10  13
ENDBRANCH   6   7
ENDBRANCH   1   6
BRANCH   1  19
HETATM   19  C           1     -34.466  -4.548 -14.184  0.00  0.00     0.130 C 
HETATM   20  O           1     -35.146  -5.178 -13.412  0.00  0.00    -0.397 OA
HETATM   21  N           1     -34.160  -3.239 -13.918  0.00  0.00    -0.359 N 
HETATM   22  H           1     -33.591  -2.710 -14.565  0.00  0.00     0.162 HD
BRANCH  21  23
HETATM   23  C           1     -34.656  -2.612 -12.707  0.00  0.00     0.184 C 
BRANCH  23  24
HETATM   24  C           1     -33.644  -2.801 -11.586  0.00  0.00     0.040 C 
BRANCH  24  25
HETATM   25  C           1     -34.290  -3.572 -10.443  0.00  0.00    -0.018 C 
HETATM   26  C           1     -33.820  -5.021 -10.476  0.00  0.00     0.289 C 
HETATM   27  C           1     -35.805  -3.528 -10.594  0.00  0.00     0.009 C 
ENDBRANCH  24  25
ENDBRANCH  23  24
BRANCH  23  28
HETATM   28  C           1     -34.862  -1.138 -12.955  0.00  0.00     0.196 C 
HETATM   29  O           1     -35.048  -0.719 -14.118  0.00  0.00    -0.646 OA
HETATM   30  O           1     -34.850  -0.335 -11.997  0.00  0.00    -0.646 OA
ENDBRANCH  23  28
ENDBRANCH  21  23
ENDBRANCH   1  19
TORSDOF 11
ENDMDL
MODEL 7
REMARK VINA RESULT:      -7.0      3.242      9.005
REMARK  11 active torsions:
REMARK  status: ('A' for Active; 'I' for Inactive)
REMARK    1  A    between atoms: C_2  and  C_4 
REMARK    2  A    between atoms: C_4  and  C_5 
REMARK    3  A    between atoms: C_5  and  C_28 
REMARK    4  A    between atoms: C_5  and  N_25 
REMARK    5  A    between atoms: N_10  and  C_23 
REMARK    6  A    between atoms: O_15  and  P_16 
REMARK    7  A    between atoms: P_16  and  O_17 
REMARK    8  A    between atoms: O_17  and  C_18 
REMARK    9  A    between atoms: C_21  and  C_22 
REMARK   10  A    between atoms: C_22  and  C_23 
REMARK   11  A    between atoms: C_23  and  C_24 
REMARK       I    between atoms: C_24  and  N_25 
ROOT
HETATM    1  C           1     -20.504  -6.913  -5.248  0.00  0.00     0.260 C 
ENDROOT
BRANCH   1   2
HETATM    2  N           1     -20.963  -7.428  -6.581  0.00  0.00    -0.067 N 
HETATM    3  H           1     -20.675  -6.758  -7.330  0.00  0.00     0.275 HD
HETATM    4  H           1     -20.527  -8.360  -6.761  0.00  0.00     0.275 HD
HETATM    5  H           1     -22.003  -7.522  -6.578  0.00  0.00     0.275 HD
ENDBRANCH   1   2
BRANCH   1   6
HETATM    6  C           1     -20.711  -5.406  -5.189  0.00  0.00     0.079 C 
BRANCH   6   7
HETATM    7  C           1     -21.166  -4.910  -6.526  0.00  0.00    -0.056 A 
HETATM    8  C           1     -20.240  -4.716  -7.551  0.00  0.00     0.010 A 
HETATM    9  C           1     -20.665  -4.255  -8.797  0.00  0.00     0.038 A 
HETATM   10  C           1     -22.015  -3.988  -9.019  0.00  0.00     0.081 A 
HETATM   11  C           1     -22.941  -4.182  -7.994  0.00  0.00     0.038 A 
HETATM   12  C           1     -22.517  -4.644  -6.748  0.00  0.00     0.010 A 
BRANCH  10  13
HETATM   13  O           1     -22.428  -3.540 -10.229  0.00  0.00    -0.247 OA
BRANCH  13  14
HETATM   14  P           1     -23.717  -4.244 -10.900  0.00  0.00     0.411 P 
HETATM   15  O           1     -24.014  -5.508 -10.190  0.00  0.00    -0.624 OA
HETATM   16  O           1     -23.436  -4.530 -12.324  0.00  0.00    -0.624 OA
BRANCH  14  17
HETATM   17  O           1     -24.988  -3.253 -10.791  0.00  0.00    -0.300 OA
HETATM   18  H           1     -25.040  -3.023  -9.879  0.00  0.00     0.223 HD
ENDBRANCH  14  17
ENDBRANCH  13  14
ENDBRANCH  10  13
ENDBRANCH   6   7
ENDBRANCH   1   6
BRANCH   1  19
HETATM   19  C           1     -21.303  -7.574  -4.152  0.00  0.00     0.130 C 
HETATM   20  O           1     -22.273  -8.238  -4.428  0.00  0.00    -0.397 OA
HETATM   21  N           1     -20.927  -7.421  -2.844  0.00  0.00    -0.359 N 
HETATM   22  H           1     -20.115  -6.864  -2.612  0.00  0.00     0.162 HD
BRANCH  21  23
HETATM   23  C           1     -21.695  -8.057  -1.791  0.00  0.00     0.184 C 
BRANCH  23  24
HETATM   24  C           1     -20.757  -8.823  -0.868  0.00  0.00     0.040 C 
BRANCH  24  25
HETATM   25  C           1     -21.007 -10.318  -1.016  0.00  0.00    -0.018 C 
HETATM   26  C           1     -22.377 -10.664  -0.447  0.00  0.00     0.289 C 
HETATM   27  C           1     -19.934 -11.088  -0.259  0.00  0.00     0.009 C 
ENDBRANCH  24  25
ENDBRANCH  23  24
BRANCH  23  28
HETATM   28  C           1     -22.429  -7.002  -0.999  0.00  0.00     0.196 C 
HETATM   29  O           1     -22.334  -5.799  -1.323  0.00  0.00    -0.646 OA
HETATM   30  O           1     -23.132  -7.332  -0.020  0.00  0.00    -0.646 OA
ENDBRANCH  23  28
ENDBRANCH  21  23
ENDBRANCH   1  19
TORSDOF 11
ENDMDL
MODEL 8
REMARK VINA RESULT:      -6.8      4.587      9.210
REMARK  11 active torsions:
REMARK  status: ('A' for Active; 'I' for Inactive)
REMARK    1  A    between atoms: C_2  and  C_4 
REMARK    2  A    between atoms: C_4  and  C_5 
REMARK    3  A    between atoms: C_5  and  C_28 
REMARK    4  A    between atoms: C_5  and  N_25 
REMARK    5  A    between atoms: N_10  and  C_23 
REMARK    6  A    between atoms: O_15  and  P_16 
REMARK    7  A    between atoms: P_16  and  O_17 
REMARK    8  A    between atoms: O_17  and  C_18 
REMARK    9  A    between atoms: C_21  and  C_22 
REMARK   10  A    between atoms: C_22  and  C_23 
REMARK   11  A    between atoms: C_23  and  C_24 
REMARK       I    between atoms: C_24  and  N_25 
ROOT
HETATM    1  C           1     -20.055 -10.357  -3.550  0.00  0.00     0.260 C 
ENDROOT
BRANCH   1   2
HETATM    2  N           1     -19.624 -11.728  -3.978  0.00  0.00    -0.067 N 
HETATM    3  H           1     -18.756 -11.998  -3.459  0.00  0.00     0.275 HD
HETATM    4  H           1     -20.383 -12.413  -3.766  0.00  0.00     0.275 HD
HETATM    5  H           1     -19.430 -11.727  -5.005  0.00  0.00     0.275 HD
ENDBRANCH   1   2
BRANCH   1   6
HETATM    6  C           1     -21.259  -9.923  -4.374  0.00  0.00     0.079 C 
BRANCH   6   7
HETATM    7  C           1     -21.084  -8.500  -4.804  0.00  0.00    -0.056 A 
HETATM    8  C           1     -19.944  -8.119  -5.513  0.00  0.00     0.010 A 
HETATM    9  C           1     -19.782  -6.793  -5.913  0.00  0.00     0.038 A 
HETATM   10  C           1     -20.760  -5.847  -5.607  0.00  0.00     0.081 A 
HETATM   11  C           1     -21.900  -6.227  -4.898  0.00  0.00     0.038 A 
HETATM   12  C           1     -22.063  -7.554  -4.497  0.00  0.00     0.010 A 
BRANCH  10  13
HETATM   13  O           1     -20.603  -4.559  -5.996  0.00  0.00    -0.247 OA
BRANCH  13  14
HETATM   14  P           1     -20.981  -4.175  -7.518  0.00  0.00     0.411 P 
HETATM   15  O           1     -21.554  -5.357  -8.197  0.00  0.00    -0.624 OA
HETATM   16  O           1     -19.762  -3.735  -8.232  0.00  0.00    -0.624 OA
BRANCH  14  17
HETATM   17  O           1     -22.064  -2.976  -7.516  0.00  0.00    -0.300 OA
HETATM   18  H           1     -21.701  -2.320  -6.945  0.00  0.00     0.223 HD
ENDBRANCH  14  17
ENDBRANCH  13  14
ENDBRANCH  10  13
ENDBRANCH   6   7
ENDBRANCH   1   6
BRANCH   1  19
HETATM   19  C           1     -20.430 -10.382  -2.088  0.00  0.00     0.130 C 
HETATM   20  O           1     -19.567 -10.404  -1.244  0.00  0.00    -0.397 OA
HETATM   21  N           1     -21.749 -10.381  -1.720  0.00  0.00    -0.359 N 
HETATM   22  H           1     -22.472 -10.363  -2.427  0.00  0.00     0.162 HD
BRANCH  21  23
HETATM   23  C           1     -22.109 -10.405  -0.315  0.00  0.00     0.184 C 
BRANCH  23  24
HETATM   24  C           1     -23.232  -9.410  -0.059  0.00  0.00     0.040 C 
BRANCH  24  25
HETATM   25  C           1     -22.648  -8.112   0.481  0.00  0.00    -0.018 C 
HETATM   26  C           1     -22.400  -7.146  -0.671  0.00  0.00     0.289 C 
HETATM   27  C           1     -21.332  -8.404   1.189  0.00  0.00     0.009 C 
ENDBRANCH  24  25
ENDBRANCH  23  24
BRANCH  23  28
HETATM   28  C           1     -22.570 -11.792   0.061  0.00  0.00     0.196 C 
HETATM   29  O           1     -23.776 -12.000   0.318  0.00  0.00    -0.646 OA
HETATM   30  O           1     -21.749 -12.731   0.114  0.00  0.00    -0.646 OA
ENDBRANCH  23  28
ENDBRANCH  21  23
ENDBRANCH   1  19
TORSDOF 11
ENDMDL
MODEL 9
REMARK VINA RESULT:      -6.6     13.794     15.760
REMARK  11 active torsions:
REMARK  status: ('A' for Active; 'I' for Inactive)
REMARK    1  A    between atoms: C_2  and  C_4 
REMARK    2  A    between atoms: C_4  and  C_5 
REMARK    3  A    between atoms: C_5  and  C_28 
REMARK    4  A    between atoms: C_5  and  N_25 
REMARK    5  A    between atoms: N_10  and  C_23 
REMARK    6  A    between atoms: O_15  and  P_16 
REMARK    7  A    between atoms: P_16  and  O_17 
REMARK    8  A    between atoms: O_17  and  C_18 
REMARK    9  A    between atoms: C_21  and  C_22 
REMARK   10  A    between atoms: C_22  and  C_23 
REMARK   11  A    between atoms: C_23  and  C_24 
REMARK       I    between atoms: C_24  and  N_25 
ROOT
HETATM    1  C           1     -33.568  -4.298 -15.733  0.00  0.00     0.260 C 
ENDROOT
BRANCH   1   2
HETATM    2  N           1     -34.434  -5.495 -15.995  0.00  0.00    -0.067 N 
HETATM    3  H           1     -35.238  -5.496 -15.326  0.00  0.00     0.275 HD
HETATM    4  H           1     -34.797  -5.454 -16.974  0.00  0.00     0.275 HD
HETATM    5  H           1     -33.872  -6.366 -15.866  0.00  0.00     0.275 HD
ENDBRANCH   1   2
BRANCH   1   6
HETATM    6  C           1     -33.000  -3.785 -17.048  0.00  0.00     0.079 C 
BRANCH   6   7
HETATM    7  C           1     -31.683  -4.444 -17.316  0.00  0.00    -0.056 A 
HETATM    8  C           1     -30.596  -3.683 -17.744  0.00  0.00     0.010 A 
HETATM    9  C           1     -29.369  -4.298 -17.993  0.00  0.00     0.038 A 
HETATM   10  C           1     -29.228  -5.674 -17.813  0.00  0.00     0.081 A 
HETATM   11  C           1     -30.316  -6.435 -17.385  0.00  0.00     0.038 A 
HETATM   12  C           1     -31.543  -5.820 -17.135  0.00  0.00     0.010 A 
BRANCH  10  13
HETATM   13  O           1     -28.037  -6.270 -18.055  0.00  0.00    -0.247 OA
BRANCH  13  14
HETATM   14  P           1     -26.903  -6.193 -16.908  0.00  0.00     0.411 P 
HETATM   15  O           1     -27.252  -7.117 -15.806  0.00  0.00    -0.624 OA
HETATM   16  O           1     -26.822  -4.810 -16.388  0.00  0.00    -0.624 OA
BRANCH  14  17
HETATM   17  O           1     -25.475  -6.616 -17.533  0.00  0.00    -0.300 OA
HETATM   18  H           1     -25.004  -7.012 -16.819  0.00  0.00     0.223 HD
ENDBRANCH  14  17
ENDBRANCH  13  14
ENDBRANCH  10  13
ENDBRANCH   6   7
ENDBRANCH   1   6
BRANCH   1  19
HETATM   19  C           1     -34.393  -3.214 -15.083  0.00  0.00     0.130 C 
HETATM   20  O           1     -34.567  -3.221 -13.889  0.00  0.00    -0.397 OA
HETATM   21  N           1     -34.946  -2.223 -15.851  0.00  0.00    -0.359 N 
HETATM   22  H           1     -34.801  -2.218 -16.852  0.00  0.00     0.162 HD
BRANCH  21  23
HETATM   23  C           1     -35.739  -1.182 -15.227  0.00  0.00     0.184 C 
BRANCH  23  24
HETATM   24  C           1     -34.894   0.075 -15.066  0.00  0.00     0.040 C 
BRANCH  24  25
HETATM   25  C           1     -34.709   0.377 -13.585  0.00  0.00    -0.018 C 
HETATM   26  C           1     -35.955  -0.048 -12.819  0.00  0.00     0.289 C 
HETATM   27  C           1     -34.484   1.871 -13.397  0.00  0.00     0.009 C 
ENDBRANCH  24  25
ENDBRANCH  23  24
BRANCH  23  28
HETATM   28  C           1     -36.935  -0.875 -16.094  0.00  0.00     0.196 C 
HETATM   29  O           1     -38.072  -0.787 -15.581  0.00  0.00    -0.646 OA
HETATM   30  O           1     -36.790  -0.708 -17.324  0.00  0.00    -0.646 OA
ENDBRANCH  23  28
ENDBRANCH  21  23
ENDBRANCH   1  19
TORSDOF 11
ENDMDL
