MODEL 1
REMARK VINA RESULT:      -7.5      0.000      0.000
REMARK  9 active torsions:
REMARK  status: ('A' for Active; 'I' for Inactive)
REMARK    1  A    between atoms: C_2  and  C_4 
REMARK    2  A    between atoms: C_4  and  C_5 
REMARK    3  A    between atoms: C_4  and  N_19 
REMARK    4  A    between atoms: C_5  and  C_15 
REMARK    5  A    between atoms: N_13  and  C_17 
REMARK    6  A    between atoms: C_16  and  C_17 
REMARK    7  A    between atoms: C_16  and  C_23 
REMARK    8  A    between atoms: C_17  and  C_18 
REMARK       I    between atoms: C_18  and  N_19 
REMARK    9  A    between atoms: C_23  and  C_24 
ROOT
HETATM    1  O           1     -37.616  -0.796 -13.138  0.00  0.00    -0.271 OA
HETATM    2  C           1     -36.594  -0.377 -12.650  0.00  0.00     0.249 C 
HETATM    3  N           1     -36.575   0.027 -11.342  0.00  0.00    -0.344 N 
HETATM    4  H           1     -36.782   0.989 -11.107  0.00  0.00     0.163 HD
ENDROOT
BRANCH   3   5
HETATM    5  C           1     -36.257  -0.924 -10.294  0.00  0.00     0.189 C 
BRANCH   5   6
HETATM    6  C           1     -36.704  -0.372  -8.963  0.00  0.00     0.197 C 
HETATM    7  O           1     -37.906  -0.443  -8.629  0.00  0.00    -0.646 OA
HETATM    8  O           1     -35.872   0.158  -8.195  0.00  0.00    -0.646 OA
ENDBRANCH   5   6
BRANCH   5   9
HETATM    9  C           1     -34.754  -1.164 -10.266  0.00  0.00     0.074 C 
BRANCH   9  10
HETATM   10  C           1     -34.462  -2.557 -10.728  0.00  0.00    -0.056 A 
HETATM   11  C           1     -35.479  -3.512 -10.749  0.00  0.00     0.007 A 
HETATM   12  C           1     -35.206  -4.811 -11.181  0.00  0.00     0.001 A 
HETATM   13  C           1     -33.918  -5.155 -11.589  0.00  0.00     0.000 A 
HETATM   14  C           1     -32.901  -4.200 -11.569  0.00  0.00     0.001 A 
HETATM   15  C           1     -33.174  -2.901 -11.138  0.00  0.00     0.007 A 
ENDBRANCH   9  10
ENDBRANCH   5   9
ENDBRANCH   3   5
BRANCH   2  16
HETATM   16  C           1     -35.337  -0.300 -13.482  0.00  0.00     0.275 C 
BRANCH  16  17
HETATM   17  N           1     -35.000  -1.665 -14.005  0.00  0.00    -0.066 N 
HETATM   18  H           1     -34.012  -1.898 -13.761  0.00  0.00     0.275 HD
HETATM   19  H           1     -35.641  -2.370 -13.576  0.00  0.00     0.275 HD
HETATM   20  H           1     -35.113  -1.677 -15.044  0.00  0.00     0.275 HD
ENDBRANCH  16  17
BRANCH  16  21
HETATM   21  C           1     -35.558   0.651 -14.651  0.00  0.00     0.053 C 
BRANCH  21  22
HETATM   22  C           1     -35.826  -0.153 -15.917  0.00  0.00     0.115 C 
BRANCH  22  23
HETATM   23  C           1     -37.307  -0.163 -16.204  0.00  0.00     0.172 C 
HETATM   24  O           1     -37.973   0.889 -16.094  0.00  0.00    -0.648 OA
HETATM   25  O           1     -37.869  -1.225 -16.552  0.00  0.00    -0.648 OA
ENDBRANCH  22  23
ENDBRANCH  21  22
ENDBRANCH  16  21
ENDBRANCH   2  16
TORSDOF 9
ENDMDL
MODEL 2
REMARK VINA RESULT:      -6.9     14.568     16.754
REMARK  9 active torsions:
REMARK  status: ('A' for Active; 'I' for Inactive)
REMARK    1  A    between atoms: C_2  and  C_4 
REMARK    2  A    between atoms: C_4  and  C_5 
REMARK    3  A    between atoms: C_4  and  N_19 
REMARK    4  A    between atoms: C_5  and  C_15 
REMARK    5  A    between atoms: N_13  and  C_17 
REMARK    6  A    between atoms: C_16  and  C_17 
REMARK    7  A    between atoms: C_16  and  C_23 
REMARK    8  A    between atoms: C_17  and  C_18 
REMARK       I    between atoms: C_18  and  N_19 
REMARK    9  A    between atoms: C_23  and  C_24 
ROOT
HETATM    1  O           1     -19.398  -4.879  -7.239  0.00  0.00    -0.271 OA
HETATM    2  C           1     -20.451  -5.455  -7.101  0.00  0.00     0.249 C 
HETATM    3  N           1     -20.467  -6.791  -6.807  0.00  0.00    -0.344 N 
HETATM    4  H           1     -20.483  -7.473  -7.554  0.00  0.00     0.163 HD
ENDROOT
BRANCH   3   5
HETATM    5  C           1     -20.462  -7.229  -5.424  0.00  0.00     0.189 C 
BRANCH   5   6
HETATM    6  C           1     -19.759  -8.560  -5.322  0.00  0.00     0.197 C 
HETATM    7  O           1     -18.690  -8.654  -4.681  0.00  0.00    -0.646 OA
HETATM    8  O           1     -20.245  -9.568  -5.878  0.00  0.00    -0.646 OA
ENDBRANCH   5   6
BRANCH   5   9
HETATM    9  C           1     -21.897  -7.373  -4.933  0.00  0.00     0.074 C 
BRANCH   9  10
HETATM   10  C           1     -21.912  -7.405  -3.437  0.00  0.00    -0.056 A 
HETATM   11  C           1     -22.070  -6.221  -2.715  0.00  0.00     0.007 A 
HETATM   12  C           1     -22.085  -6.252  -1.321  0.00  0.00     0.001 A 
HETATM   13  C           1     -21.940  -7.465  -0.647  0.00  0.00     0.000 A 
HETATM   14  C           1     -21.782  -8.649  -1.369  0.00  0.00     0.001 A 
HETATM   15  C           1     -21.768  -8.618  -2.763  0.00  0.00     0.007 A 
ENDBRANCH   9  10
ENDBRANCH   5   9
ENDBRANCH   3   5
BRANCH   2  16
HETATM   16  C           1     -21.749  -4.699  -7.252  0.00  0.00     0.275 C 
BRANCH  16  17
HETATM   17  N           1     -21.536  -3.262  -6.882  0.00  0.00    -0.066 N 
HETATM   18  H           1     -21.682  -2.660  -7.723  0.00  0.00     0.275 HD
HETATM   19  H           1     -22.215  -2.990  -6.136  0.00  0.00     0.275 HD
HETATM   20  H           1     -20.560  -3.133  -6.529  0.00  0.00     0.275 HD
ENDBRANCH  16  17
BRANCH  16  21
HETATM   21  C           1     -22.223  -4.786  -8.697  0.00  0.00     0.053 C 
BRANCH  21  22
HETATM   22  C           1     -23.567  -4.084  -8.834  0.00  0.00     0.115 C 
BRANCH  22  23
HETATM   23  C           1     -23.720  -3.557 -10.239  0.00  0.00     0.172 C 
HETATM   24  O           1     -24.856  -3.293 -10.688  0.00  0.00    -0.648 OA
HETATM   25  O           1     -22.709  -3.384 -10.955  0.00  0.00    -0.648 OA
ENDBRANCH  22  23
ENDBRANCH  21  22
ENDBRANCH  16  21
ENDBRANCH   2  16
TORSDOF 9
ENDMDL
MODEL 3
REMARK VINA RESULT:      -6.9     10.260     12.048
REMARK  9 active torsions:
REMARK  status: ('A' for Active; 'I' for Inactive)
REMARK    1  A    between atoms: C_2  and  C_4 
REMARK    2  A    between atoms: C_4  and  C_5 
REMARK    3  A    between atoms: C_4  and  N_19 
REMARK    4  A    between atoms: C_5  and  C_15 
REMARK    5  A    between atoms: N_13  and  C_17 
REMARK    6  A    between atoms: C_16  and  C_17 
REMARK    7  A    between atoms: C_16  and  C_23 
REMARK    8  A    between atoms: C_17  and  C_18 
REMARK       I    between atoms: C_18  and  N_19 
REMARK    9  A    between atoms: C_23  and  C_24 
ROOT
HETATM    1  O           1     -29.396  -8.478 -16.616  0.00  0.00    -0.271 OA
HETATM    2  C           1     -29.062  -7.361 -16.933  0.00  0.00     0.249 C 
HETATM    3  N           1     -27.959  -6.789 -16.358  0.00  0.00    -0.344 N 
HETATM    4  H           1     -28.056  -6.245 -15.511  0.00  0.00     0.163 HD
ENDROOT
BRANCH   3   5
HETATM    5  C           1     -26.653  -6.960 -16.965  0.00  0.00     0.189 C 
BRANCH   5   6
HETATM    6  C           1     -25.583  -6.629 -15.954  0.00  0.00     0.197 C 
HETATM    7  O           1     -25.006  -5.521 -15.995  0.00  0.00    -0.646 OA
HETATM    8  O           1     -25.272  -7.464 -15.078  0.00  0.00    -0.646 OA
ENDBRANCH   5   6
BRANCH   5   9
HETATM    9  C           1     -26.525  -6.031 -18.165  0.00  0.00     0.074 C 
BRANCH   9  10
HETATM   10  C           1     -25.930  -6.780 -19.315  0.00  0.00    -0.056 A 
HETATM   11  C           1     -24.556  -7.020 -19.355  0.00  0.00     0.007 A 
HETATM   12  C           1     -24.001  -7.719 -20.428  0.00  0.00     0.001 A 
HETATM   13  C           1     -24.819  -8.178 -21.460  0.00  0.00     0.000 A 
HETATM   14  C           1     -26.193  -7.939 -21.419  0.00  0.00     0.001 A 
HETATM   15  C           1     -26.748  -7.240 -20.347  0.00  0.00     0.007 A 
ENDBRANCH   9  10
ENDBRANCH   5   9
ENDBRANCH   3   5
BRANCH   2  16
HETATM   16  C           1     -29.858  -6.599 -17.963  0.00  0.00     0.275 C 
BRANCH  16  17
HETATM   17  N           1     -31.014  -7.437 -18.420  0.00  0.00    -0.066 N 
HETATM   18  H           1     -30.943  -7.599 -19.450  0.00  0.00     0.275 HD
HETATM   19  H           1     -30.998  -8.355 -17.921  0.00  0.00     0.275 HD
HETATM   20  H           1     -31.910  -6.941 -18.208  0.00  0.00     0.275 HD
ENDBRANCH  16  17
BRANCH  16  21
HETATM   21  C           1     -30.379  -5.307 -17.349  0.00  0.00     0.053 C 
BRANCH  21  22
HETATM   22  C           1     -29.853  -4.118 -18.144  0.00  0.00     0.115 C 
BRANCH  22  23
HETATM   23  C           1     -29.034  -3.230 -17.240  0.00  0.00     0.172 C 
HETATM   24  O           1     -28.184  -3.732 -16.474  0.00  0.00    -0.648 OA
HETATM   25  O           1     -29.207  -1.992 -17.257  0.00  0.00    -0.648 OA
ENDBRANCH  22  23
ENDBRANCH  21  22
ENDBRANCH  16  21
ENDBRANCH   2  16
TORSDOF 9
ENDMDL
MODEL 4
REMARK VINA RESULT:      -6.7     15.067     17.578
REMARK  9 active torsions:
REMARK  status: ('A' for Active; 'I' for Inactive)
REMARK    1  A    between atoms: C_2  and  C_4 
REMARK    2  A    between atoms: C_4  and  C_5 
REMARK    3  A    between atoms: C_4  and  N_19 
REMARK    4  A    between atoms: C_5  and  C_15 
REMARK    5  A    between atoms: N_13  and  C_17 
REMARK    6  A    between atoms: C_16  and  C_17 
REMARK    7  A    between atoms: C_16  and  C_23 
REMARK    8  A    between atoms: C_17  and  C_18 
REMARK       I    between atoms: C_18  and  N_19 
REMARK    9  A    between atoms: C_23  and  C_24 
ROOT
HETATM    1  O           1     -20.878  -5.703  -3.874  0.00  0.00    -0.271 OA
HETATM    2  C           1     -21.583  -6.316  -4.640  0.00  0.00     0.249 C 
HETATM    3  N           1     -22.229  -5.658  -5.651  0.00  0.00    -0.344 N 
HETATM    4  H           1     -23.155  -5.283  -5.499  0.00  0.00     0.163 HD
ENDROOT
BRANCH   3   5
HETATM    5  C           1     -21.585  -5.500  -6.941  0.00  0.00     0.189 C 
BRANCH   5   6
HETATM    6  C           1     -20.089  -5.595  -6.771  0.00  0.00     0.197 C 
HETATM    7  O           1     -19.500  -6.673  -7.002  0.00  0.00    -0.646 OA
HETATM    8  O           1     -19.438  -4.596  -6.397  0.00  0.00    -0.646 OA
ENDBRANCH   5   6
BRANCH   5   9
HETATM    9  C           1     -21.945  -4.141  -7.526  0.00  0.00     0.074 C 
BRANCH   9  10
HETATM   10  C           1     -21.906  -4.213  -9.019  0.00  0.00    -0.056 A 
HETATM   11  C           1     -20.712  -3.965  -9.699  0.00  0.00     0.007 A 
HETATM   12  C           1     -20.676  -4.033 -11.092  0.00  0.00     0.001 A 
HETATM   13  C           1     -21.832  -4.348 -11.806  0.00  0.00     0.000 A 
HETATM   14  C           1     -23.025  -4.597 -11.127  0.00  0.00     0.001 A 
HETATM   15  C           1     -23.062  -4.529  -9.734  0.00  0.00     0.007 A 
ENDBRANCH   9  10
ENDBRANCH   5   9
ENDBRANCH   3   5
BRANCH   2  16
HETATM   16  C           1     -21.749  -7.807  -4.482  0.00  0.00     0.275 C 
BRANCH  16  17
HETATM   17  N           1     -21.237  -8.500  -5.710  0.00  0.00    -0.066 N 
HETATM   18  H           1     -21.988  -9.108  -6.106  0.00  0.00     0.275 HD
HETATM   19  H           1     -20.955  -7.787  -6.420  0.00  0.00     0.275 HD
HETATM   20  H           1     -20.411  -9.088  -5.459  0.00  0.00     0.275 HD
ENDBRANCH  16  17
BRANCH  16  21
HETATM   21  C           1     -20.962  -8.281  -3.267  0.00  0.00     0.053 C 
BRANCH  21  22
HETATM   22  C           1     -21.929  -8.730  -2.179  0.00  0.00     0.115 C 
BRANCH  22  23
HETATM   23  C           1     -21.917  -7.729  -1.050  0.00  0.00     0.172 C 
HETATM   24  O           1     -21.180  -7.913  -0.058  0.00  0.00    -0.648 OA
HETATM   25  O           1     -22.646  -6.714  -1.107  0.00  0.00    -0.648 OA
ENDBRANCH  22  23
ENDBRANCH  21  22
ENDBRANCH  16  21
ENDBRANCH   2  16
TORSDOF 9
ENDMDL
MODEL 5
REMARK VINA RESULT:      -6.6     15.484     17.788
REMARK  9 active torsions:
REMARK  status: ('A' for Active; 'I' for Inactive)
REMARK    1  A    between atoms: C_2  and  C_4 
REMARK    2  A    between atoms: C_4  and  C_5 
REMARK    3  A    between atoms: C_4  and  N_19 
REMARK    4  A    between atoms: C_5  and  C_15 
REMARK    5  A    between atoms: N_13  and  C_17 
REMARK    6  A    between atoms: C_16  and  C_17 
REMARK    7  A    between atoms: C_16  and  C_23 
REMARK    8  A    between atoms: C_17  and  C_18 
REMARK       I    between atoms: C_18  and  N_19 
REMARK    9  A    between atoms: C_23  and  C_24 
ROOT
HETATM    1  O           1     -19.597  -6.676  -6.954  0.00  0.00    -0.271 OA
HETATM    2  C           1     -20.473  -6.748  -6.126  0.00  0.00     0.249 C 
HETATM    3  N           1     -20.855  -7.969  -5.638  0.00  0.00    -0.344 N 
HETATM    4  H           1     -21.593  -8.488  -6.095  0.00  0.00     0.163 HD
ENDROOT
BRANCH   3   5
HETATM    5  C           1     -20.201  -8.517  -4.465  0.00  0.00     0.189 C 
BRANCH   5   6
HETATM    6  C           1     -19.006  -9.333  -4.891  0.00  0.00     0.197 C 
HETATM    7  O           1     -17.978  -9.355  -4.180  0.00  0.00    -0.646 OA
HETATM    8  O           1     -19.042  -9.985  -5.957  0.00  0.00    -0.646 OA
ENDBRANCH   5   6
BRANCH   5   9
HETATM    9  C           1     -21.179  -9.405  -3.708  0.00  0.00     0.074 C 
BRANCH   9  10
HETATM   10  C           1     -21.645  -8.698  -2.474  0.00  0.00    -0.056 A 
HETATM   11  C           1     -22.012  -9.433  -1.346  0.00  0.00     0.007 A 
HETATM   12  C           1     -22.445  -8.773  -0.195  0.00  0.00     0.001 A 
HETATM   13  C           1     -22.511  -7.380  -0.172  0.00  0.00     0.000 A 
HETATM   14  C           1     -22.143  -6.646  -1.300  0.00  0.00     0.001 A 
HETATM   15  C           1     -21.710  -7.305  -2.451  0.00  0.00     0.007 A 
ENDBRANCH   9  10
ENDBRANCH   5   9
ENDBRANCH   3   5
BRANCH   2  16
HETATM   16  C           1     -21.147  -5.493  -5.629  0.00  0.00     0.275 C 
BRANCH  16  17
HETATM   17  N           1     -20.130  -4.398  -5.501  0.00  0.00    -0.066 N 
HETATM   18  H           1     -20.581  -3.477  -5.702  0.00  0.00     0.275 HD
HETATM   19  H           1     -19.745  -4.393  -4.529  0.00  0.00     0.275 HD
HETATM   20  H           1     -19.355  -4.561  -6.182  0.00  0.00     0.275 HD
ENDBRANCH  16  17
BRANCH  16  21
HETATM   21  C           1     -22.226  -5.069  -6.617  0.00  0.00     0.053 C 
BRANCH  21  22
HETATM   22  C           1     -21.723  -3.896  -7.448  0.00  0.00     0.115 C 
BRANCH  22  23
HETATM   23  C           1     -22.501  -3.821  -8.738  0.00  0.00     0.172 C 
HETATM   24  O           1     -23.742  -3.968  -8.729  0.00  0.00    -0.648 OA
HETATM   25  O           1     -21.904  -3.611  -9.817  0.00  0.00    -0.648 OA
ENDBRANCH  22  23
ENDBRANCH  21  22
ENDBRANCH  16  21
ENDBRANCH   2  16
TORSDOF 9
ENDMDL
MODEL 6
REMARK VINA RESULT:      -6.5     15.862     18.832
REMARK  9 active torsions:
REMARK  status: ('A' for Active; 'I' for Inactive)
REMARK    1  A    between atoms: C_2  and  C_4 
REMARK    2  A    between atoms: C_4  and  C_5 
REMARK    3  A    between atoms: C_4  and  N_19 
REMARK    4  A    between atoms: C_5  and  C_15 
REMARK    5  A    between atoms: N_13  and  C_17 
REMARK    6  A    between atoms: C_16  and  C_17 
REMARK    7  A    between atoms: C_16  and  C_23 
REMARK    8  A    between atoms: C_17  and  C_18 
REMARK       I    between atoms: C_18  and  N_19 
REMARK    9  A    between atoms: C_23  and  C_24 
ROOT
HETATM    1  O           1     -21.596  -5.311  -2.273  0.00  0.00    -0.271 OA
HETATM    2  C           1     -21.931  -6.397  -2.684  0.00  0.00     0.249 C 
HETATM    3  N           1     -22.558  -6.507  -3.895  0.00  0.00    -0.344 N 
HETATM    4  H           1     -23.567  -6.458  -3.948  0.00  0.00     0.163 HD
ENDROOT
BRANCH   3   5
HETATM    5  C           1     -21.777  -6.694  -5.102  0.00  0.00     0.189 C 
BRANCH   5   6
HETATM    6  C           1     -20.986  -7.975  -4.995  0.00  0.00     0.197 C 
HETATM    7  O           1     -21.577  -9.076  -4.997  0.00  0.00    -0.646 OA
HETATM    8  O           1     -19.740  -7.934  -4.903  0.00  0.00    -0.646 OA
ENDBRANCH   5   6
BRANCH   5   9
HETATM    9  C           1     -20.822  -5.520  -5.276  0.00  0.00     0.074 C 
BRANCH   9  10
HETATM   10  C           1     -20.910  -5.008  -6.679  0.00  0.00    -0.056 A 
HETATM   11  C           1     -19.775  -4.998  -7.491  0.00  0.00     0.007 A 
HETATM   12  C           1     -19.858  -4.520  -8.799  0.00  0.00     0.001 A 
HETATM   13  C           1     -21.075  -4.053  -9.296  0.00  0.00     0.000 A 
HETATM   14  C           1     -22.210  -4.064  -8.485  0.00  0.00     0.001 A 
HETATM   15  C           1     -22.127  -4.541  -7.176  0.00  0.00     0.007 A 
ENDBRANCH   9  10
ENDBRANCH   5   9
ENDBRANCH   3   5
BRANCH   2  16
HETATM   16  C           1     -21.655  -7.632  -1.862  0.00  0.00     0.275 C 
BRANCH  16  17
HETATM   17  N           1     -20.177  -7.877  -1.809  0.00  0.00    -0.066 N 
HETATM   18  H           1     -19.890  -8.068  -0.823  0.00  0.00     0.275 HD
HETATM   19  H           1     -19.939  -8.700  -2.407  0.00  0.00     0.275 HD
HETATM   20  H           1     -19.670  -7.032  -2.160  0.00  0.00     0.275 HD
ENDBRANCH  16  17
BRANCH  16  21
HETATM   21  C           1     -22.187  -7.431  -0.449  0.00  0.00     0.053 C 
BRANCH  21  22
HETATM   22  C           1     -22.498  -8.786   0.174  0.00  0.00     0.115 C 
BRANCH  22  23
HETATM   23  C           1     -21.247  -9.354   0.798  0.00  0.00     0.172 C 
HETATM   24  O           1     -20.804  -8.871   1.862  0.00  0.00    -0.648 OA
HETATM   25  O           1     -20.653 -10.308   0.250  0.00  0.00    -0.648 OA
ENDBRANCH  22  23
ENDBRANCH  21  22
ENDBRANCH  16  21
ENDBRANCH   2  16
TORSDOF 9
ENDMDL
MODEL 7
REMARK VINA RESULT:      -6.5     13.849     16.058
REMARK  9 active torsions:
REMARK  status: ('A' for Active; 'I' for Inactive)
REMARK    1  A    between atoms: C_2  and  C_4 
REMARK    2  A    between atoms: C_4  and  C_5 
REMARK    3  A    between atoms: C_4  and  N_19 
REMARK    4  A    between atoms: C_5  and  C_15 
REMARK    5  A    between atoms: N_13  and  C_17 
REMARK    6  A    between atoms: C_16  and  C_17 
REMARK    7  A    between atoms: C_16  and  C_23 
REMARK    8  A    between atoms: C_17  and  C_18 
REMARK       I    between atoms: C_18  and  N_19 
REMARK    9  A    between atoms: C_23  and  C_24 
ROOT
HETATM    1  O           1     -20.783  -4.181  -6.392  0.00  0.00    -0.271 OA
HETATM    2  C           1     -21.198  -5.103  -7.054  0.00  0.00     0.249 C 
HETATM    3  N           1     -20.756  -6.375  -6.809  0.00  0.00    -0.344 N 
HETATM    4  H           1     -19.940  -6.728  -7.291  0.00  0.00     0.163 HD
ENDROOT
BRANCH   3   5
HETATM    5  C           1     -21.458  -7.216  -5.858  0.00  0.00     0.189 C 
BRANCH   5   6
HETATM    6  C           1     -22.185  -6.348  -4.861  0.00  0.00     0.197 C 
HETATM    7  O           1     -21.587  -5.921  -3.850  0.00  0.00    -0.646 OA
HETATM    8  O           1     -23.387  -6.056  -5.046  0.00  0.00    -0.646 OA
ENDBRANCH   5   6
BRANCH   5   9
HETATM    9  C           1     -20.457  -8.101  -5.128  0.00  0.00     0.074 C 
BRANCH   9  10
HETATM   10  C           1     -21.097  -9.412  -4.797  0.00  0.00    -0.056 A 
HETATM   11  C           1     -21.006 -10.478  -5.692  0.00  0.00     0.007 A 
HETATM   12  C           1     -21.603 -11.701  -5.382  0.00  0.00     0.001 A 
HETATM   13  C           1     -22.291 -11.857  -4.179  0.00  0.00     0.000 A 
HETATM   14  C           1     -22.381 -10.791  -3.283  0.00  0.00     0.001 A 
HETATM   15  C           1     -21.784  -9.569  -3.593  0.00  0.00     0.007 A 
ENDBRANCH   9  10
ENDBRANCH   5   9
ENDBRANCH   3   5
BRANCH   2  16
HETATM   16  C           1     -22.204  -4.851  -8.149  0.00  0.00     0.275 C 
BRANCH  16  17
HETATM   17  N           1     -23.444  -4.248  -7.559  0.00  0.00    -0.066 N 
HETATM   18  H           1     -23.188  -3.411  -6.990  0.00  0.00     0.275 HD
HETATM   19  H           1     -24.092  -3.963  -8.328  0.00  0.00     0.275 HD
HETATM   20  H           1     -23.917  -4.952  -6.948  0.00  0.00     0.275 HD
ENDBRANCH  16  17
BRANCH  16  21
HETATM   21  C           1     -21.612  -3.893  -9.174  0.00  0.00     0.053 C 
BRANCH  21  22
HETATM   22  C           1     -21.766  -4.482 -10.570  0.00  0.00     0.115 C 
BRANCH  22  23
HETATM   23  C           1     -23.137  -4.154 -11.108  0.00  0.00     0.172 C 
HETATM   24  O           1     -23.603  -4.803 -12.069  0.00  0.00    -0.648 OA
HETATM   25  O           1     -23.808  -3.234 -10.591  0.00  0.00    -0.648 OA
ENDBRANCH  22  23
ENDBRANCH  21  22
ENDBRANCH  16  21
ENDBRANCH   2  16
TORSDOF 9
ENDMDL
MODEL 8
REMARK VINA RESULT:      -6.4     17.852     19.850
REMARK  9 active torsions:
REMARK  status: ('A' for Active; 'I' for Inactive)
REMARK    1  A    between atoms: C_2  and  C_4 
REMARK    2  A    between atoms: C_4  and  C_5 
REMARK    3  A    between atoms: C_4  and  N_19 
REMARK    4  A    between atoms: C_5  and  C_15 
REMARK    5  A    between atoms: N_13  and  C_17 
REMARK    6  A    between atoms: C_16  and  C_17 
REMARK    7  A    between atoms: C_16  and  C_23 
REMARK    8  A    between atoms: C_17  and  C_18 
REMARK       I    between atoms: C_18  and  N_19 
REMARK    9  A    between atoms: C_23  and  C_24 
ROOT
HETATM    1  O           1     -20.591 -12.295  -3.920  0.00  0.00    -0.271 OA
HETATM    2  C           1     -21.183 -11.404  -3.359  0.00  0.00     0.249 C 
HETATM    3  N           1     -22.470 -11.600  -2.935  0.00  0.00    -0.344 N 
HETATM    4  H           1     -23.243 -11.382  -3.549  0.00  0.00     0.163 HD
ENDROOT
BRANCH   3   5
HETATM    5  C           1     -22.724 -12.116  -1.604  0.00  0.00     0.189 C 
BRANCH   5   6
HETATM    6  C           1     -23.377 -13.473  -1.708  0.00  0.00     0.197 C 
HETATM    7  O           1     -24.049 -13.918  -0.753  0.00  0.00    -0.646 OA
HETATM    8  O           1     -23.245 -14.151  -2.749  0.00  0.00    -0.646 OA
ENDBRANCH   5   6
BRANCH   5   9
HETATM    9  C           1     -23.648 -11.163  -0.857  0.00  0.00     0.074 C 
BRANCH   9  10
HETATM   10  C           1     -22.830 -10.174  -0.088  0.00  0.00    -0.056 A 
HETATM   11  C           1     -23.310  -8.880   0.116  0.00  0.00     0.007 A 
HETATM   12  C           1     -22.547  -7.958   0.834  0.00  0.00     0.001 A 
HETATM   13  C           1     -21.304  -8.330   1.346  0.00  0.00     0.000 A 
HETATM   14  C           1     -20.824  -9.624   1.143  0.00  0.00     0.001 A 
HETATM   15  C           1     -21.587 -10.545   0.425  0.00  0.00     0.007 A 
ENDBRANCH   9  10
ENDBRANCH   5   9
ENDBRANCH   3   5
BRANCH   2  16
HETATM   16  C           1     -20.504 -10.077  -3.124  0.00  0.00     0.275 C 
BRANCH  16  17
HETATM   17  N           1     -19.382  -9.910  -4.104  0.00  0.00    -0.066 N 
HETATM   18  H           1     -19.438 -10.660  -4.830  0.00  0.00     0.275 HD
HETATM   19  H           1     -19.457  -8.975  -4.564  0.00  0.00     0.275 HD
HETATM   20  H           1     -18.468  -9.980  -3.603  0.00  0.00     0.275 HD
ENDBRANCH  16  17
BRANCH  16  21
HETATM   21  C           1     -21.512  -8.950  -3.309  0.00  0.00     0.053 C 
BRANCH  21  22
HETATM   22  C           1     -21.048  -7.722  -2.537  0.00  0.00     0.115 C 
BRANCH  22  23
HETATM   23  C           1     -21.907  -6.539  -2.909  0.00  0.00     0.172 C 
HETATM   24  O           1     -22.549  -5.931  -2.026  0.00  0.00    -0.648 OA
HETATM   25  O           1     -21.976  -6.166  -4.100  0.00  0.00    -0.648 OA
ENDBRANCH  22  23
ENDBRANCH  21  22
ENDBRANCH  16  21
ENDBRANCH   2  16
TORSDOF 9
ENDMDL
MODEL 9
REMARK VINA RESULT:      -6.4     16.835     18.700
REMARK  9 active torsions:
REMARK  status: ('A' for Active; 'I' for Inactive)
REMARK    1  A    between atoms: C_2  and  C_4 
REMARK    2  A    between atoms: C_4  and  C_5 
REMARK    3  A    between atoms: C_4  and  N_19 
REMARK    4  A    between atoms: C_5  and  C_15 
REMARK    5  A    between atoms: N_13  and  C_17 
REMARK    6  A    between atoms: C_16  and  C_17 
REMARK    7  A    between atoms: C_16  and  C_23 
REMARK    8  A    between atoms: C_17  and  C_18 
REMARK       I    between atoms: C_18  and  N_19 
REMARK    9  A    between atoms: C_23  and  C_24 
ROOT
HETATM    1  O           1     -22.110  -5.637  -2.383  0.00  0.00    -0.271 OA
HETATM    2  C           1     -21.672  -6.693  -2.772  0.00  0.00     0.249 C 
HETATM    3  N           1     -21.075  -7.553  -1.890  0.00  0.00    -0.344 N 
HETATM    4  H           1     -20.080  -7.493  -1.720  0.00  0.00     0.163 HD
ENDROOT
BRANCH   3   5
HETATM    5  C           1     -21.870  -8.551  -1.200  0.00  0.00     0.189 C 
BRANCH   5   6
HETATM    6  C           1     -22.311  -8.006   0.136  0.00  0.00     0.197 C 
HETATM    7  O           1     -23.463  -7.541   0.272  0.00  0.00    -0.646 OA
HETATM    8  O           1     -21.524  -8.020   1.107  0.00  0.00    -0.646 OA
ENDBRANCH   5   6
BRANCH   5   9
HETATM    9  C           1     -21.035  -9.807  -0.988  0.00  0.00     0.074 C 
BRANCH   9  10
HETATM   10  C           1     -21.920 -10.924  -0.532  0.00  0.00    -0.056 A 
HETATM   11  C           1     -23.131 -11.164  -1.182  0.00  0.00     0.007 A 
HETATM   12  C           1     -23.955 -12.206  -0.756  0.00  0.00     0.001 A 
HETATM   13  C           1     -23.570 -13.008   0.318  0.00  0.00     0.000 A 
HETATM   14  C           1     -22.358 -12.768   0.968  0.00  0.00     0.001 A 
HETATM   15  C           1     -21.534 -11.726   0.542  0.00  0.00     0.007 A 
ENDBRANCH   9  10
ENDBRANCH   5   9
ENDBRANCH   3   5
BRANCH   2  16
HETATM   16  C           1     -21.783  -7.065  -4.230  0.00  0.00     0.275 C 
BRANCH  16  17
HETATM   17  N           1     -22.899  -6.286  -4.860  0.00  0.00    -0.066 N 
HETATM   18  H           1     -23.742  -6.322  -4.243  0.00  0.00     0.275 HD
HETATM   19  H           1     -22.602  -5.292  -4.986  0.00  0.00     0.275 HD
HETATM   20  H           1     -23.132  -6.701  -5.791  0.00  0.00     0.275 HD
ENDBRANCH  16  17
BRANCH  16  21
HETATM   21  C           1     -20.475  -6.740  -4.939  0.00  0.00     0.053 C 
BRANCH  21  22
HETATM   22  C           1     -20.508  -5.300  -5.433  0.00  0.00     0.115 C 
BRANCH  22  23
HETATM   23  C           1     -20.320  -5.276  -6.930  0.00  0.00     0.172 C 
HETATM   24  O           1     -19.294  -4.759  -7.423  0.00  0.00    -0.648 OA
HETATM   25  O           1     -21.191  -5.772  -7.678  0.00  0.00    -0.648 OA
ENDBRANCH  22  23
ENDBRANCH  21  22
ENDBRANCH  16  21
ENDBRANCH   2  16
TORSDOF 9
ENDMDL
