MODEL 1
REMARK VINA RESULT:      -6.1      0.000      0.000
REMARK  12 active torsions:
REMARK  status: ('A' for Active; 'I' for Inactive)
REMARK    1  A    between atoms: N_1  and  C_21 
REMARK       I    between atoms: N_1  and  C_12 
REMARK    2  A    between atoms: N_6  and  C_11 
REMARK    3  A    between atoms: C_8  and  C_17 
REMARK    4  A    between atoms: C_8  and  C_23 
REMARK    5  A    between atoms: C_10  and  C_11 
REMARK    6  A    between atoms: C_10  and  C_17 
REMARK    7  A    between atoms: C_11  and  C_12 
REMARK    8  A    between atoms: N_13  and  C_23 
REMARK    9  A    between atoms: S_18  and  C_19 
REMARK   10  A    between atoms: C_19  and  C_20 
REMARK   11  A    between atoms: C_20  and  C_21 
REMARK   12  A    between atoms: C_21  and  C_22 
ROOT
HETATM    1  C           1     -33.319  -3.239 -11.565  0.00  0.00     0.274 C 
ENDROOT
BRANCH   1   2
HETATM    2  N           1     -33.754  -2.890 -10.174  0.00  0.00    -0.067 N 
HETATM    3  H           1     -34.044  -3.759  -9.670  0.00  0.00     0.275 HD
HETATM    4  H           1     -32.961  -2.442  -9.663  0.00  0.00     0.275 HD
HETATM    5  H           1     -34.561  -2.227 -10.217  0.00  0.00     0.275 HD
ENDBRANCH   1   2
BRANCH   1   6
HETATM    6  C           1     -33.321  -4.753 -11.734  0.00  0.00     0.042 C 
BRANCH   6   7
HETATM    7  C           1     -34.025  -5.395 -10.546  0.00  0.00     0.004 C 
BRANCH   7   8
HETATM    8  C           1     -34.698  -6.686 -10.993  0.00  0.00     0.027 C 
BRANCH   8   9
HETATM    9  C           1     -34.632  -7.710  -9.866  0.00  0.00     0.229 C 
BRANCH   9  10
HETATM   10  N           1     -33.674  -8.803 -10.239  0.00  0.00    -0.079 N 
HETATM   11  H           1     -33.608  -8.868 -11.280  0.00  0.00     0.274 HD
HETATM   12  H           1     -32.731  -8.590  -9.842  0.00  0.00     0.274 HD
HETATM   13  H           1     -34.017  -9.712  -9.854  0.00  0.00     0.274 HD
ENDBRANCH   9  10
ENDBRANCH   8   9
ENDBRANCH   7   8
ENDBRANCH   6   7
ENDBRANCH   1   6
BRANCH   1  14
HETATM   14  C           1     -34.271  -2.621 -12.560  0.00  0.00     0.249 C 
HETATM   15  N           1     -34.903  -1.443 -12.261  0.00  0.00    -0.345 N 
HETATM   16  H           1     -34.732  -0.987 -11.374  0.00  0.00     0.163 HD
HETATM   17  O           1     -34.475  -3.165 -13.619  0.00  0.00    -0.271 OA
BRANCH  15  18
HETATM   18  C           1     -35.819  -0.849 -13.217  0.00  0.00     0.186 C 
BRANCH  18  19
HETATM   19  C           1     -36.963  -0.176 -12.471  0.00  0.00     0.046 C 
BRANCH  19  20
HETATM   20  C           1     -37.004  -0.685 -11.036  0.00  0.00     0.076 C 
BRANCH  20  21
HETATM   21  S           1     -37.162   0.721  -9.899  0.00  0.00    -0.173 SA
HETATM   22  C           1     -37.328  -0.265  -8.385  0.00  0.00     0.089 C 
ENDBRANCH  20  21
ENDBRANCH  19  20
ENDBRANCH  18  19
BRANCH  18  23
HETATM   23  C           1     -35.084   0.177 -14.045  0.00  0.00     0.196 C 
HETATM   24  O           1     -34.738   1.261 -13.531  0.00  0.00    -0.646 OA
HETATM   25  O           1     -34.822  -0.059 -15.244  0.00  0.00    -0.646 OA
ENDBRANCH  18  23
ENDBRANCH  15  18
ENDBRANCH   1  14
TORSDOF 12
ENDMDL
MODEL 2
REMARK VINA RESULT:      -6.1      2.520      3.348
REMARK  12 active torsions:
REMARK  status: ('A' for Active; 'I' for Inactive)
REMARK    1  A    between atoms: N_1  and  C_21 
REMARK       I    between atoms: N_1  and  C_12 
REMARK    2  A    between atoms: N_6  and  C_11 
REMARK    3  A    between atoms: C_8  and  C_17 
REMARK    4  A    between atoms: C_8  and  C_23 
REMARK    5  A    between atoms: C_10  and  C_11 
REMARK    6  A    between atoms: C_10  and  C_17 
REMARK    7  A    between atoms: C_11  and  C_12 
REMARK    8  A    between atoms: N_13  and  C_23 
REMARK    9  A    between atoms: S_18  and  C_19 
REMARK   10  A    between atoms: C_19  and  C_20 
REMARK   11  A    between atoms: C_20  and  C_21 
REMARK   12  A    between atoms: C_21  and  C_22 
ROOT
HETATM    1  C           1     -34.382  -3.787 -12.233  0.00  0.00     0.274 C 
ENDROOT
BRANCH   1   2
HETATM    2  N           1     -33.559  -3.971 -13.473  0.00  0.00    -0.067 N 
HETATM    3  H           1     -33.938  -3.366 -14.237  0.00  0.00     0.275 HD
HETATM    4  H           1     -32.569  -3.702 -13.276  0.00  0.00     0.275 HD
HETATM    5  H           1     -33.597  -4.972 -13.770  0.00  0.00     0.275 HD
ENDBRANCH   1   2
BRANCH   1   6
HETATM    6  C           1     -33.646  -4.385 -11.041  0.00  0.00     0.042 C 
BRANCH   6   7
HETATM    7  C           1     -34.449  -5.551 -10.482  0.00  0.00     0.004 C 
BRANCH   7   8
HETATM    8  C           1     -33.616  -6.824 -10.553  0.00  0.00     0.027 C 
BRANCH   8   9
HETATM    9  C           1     -34.438  -8.000 -10.042  0.00  0.00     0.229 C 
BRANCH   9  10
HETATM   10  N           1     -33.629  -9.260 -10.148  0.00  0.00    -0.079 N 
HETATM   11  H           1     -33.857  -9.888  -9.345  0.00  0.00     0.274 HD
HETATM   12  H           1     -33.856  -9.744 -11.045  0.00  0.00     0.274 HD
HETATM   13  H           1     -32.612  -9.022 -10.127  0.00  0.00     0.274 HD
ENDBRANCH   9  10
ENDBRANCH   8   9
ENDBRANCH   7   8
ENDBRANCH   6   7
ENDBRANCH   1   6
BRANCH   1  14
HETATM   14  C           1     -34.612  -2.315 -11.995  0.00  0.00     0.249 C 
HETATM   15  N           1     -35.609  -1.660 -12.667  0.00  0.00    -0.345 N 
HETATM   16  H           1     -36.192  -2.163 -13.324  0.00  0.00     0.163 HD
HETATM   17  O           1     -33.916  -1.714 -11.212  0.00  0.00    -0.271 OA
BRANCH  15  18
HETATM   18  C           1     -35.829  -0.244 -12.440  0.00  0.00     0.186 C 
BRANCH  18  19
HETATM   19  C           1     -36.337   0.402 -13.722  0.00  0.00     0.046 C 
BRANCH  19  20
HETATM   20  C           1     -35.318   0.196 -14.833  0.00  0.00     0.076 C 
BRANCH  20  21
HETATM   21  S           1     -36.112  -0.637 -16.237  0.00  0.00    -0.173 SA
HETATM   22  C           1     -37.818  -0.220 -15.776  0.00  0.00     0.089 C 
ENDBRANCH  20  21
ENDBRANCH  19  20
ENDBRANCH  18  19
BRANCH  18  23
HETATM   23  C           1     -36.853  -0.066 -11.345  0.00  0.00     0.196 C 
HETATM   24  O           1     -37.958  -0.644 -11.424  0.00  0.00    -0.646 OA
HETATM   25  O           1     -36.596   0.660 -10.361  0.00  0.00    -0.646 OA
ENDBRANCH  18  23
ENDBRANCH  15  18
ENDBRANCH   1  14
TORSDOF 12
ENDMDL
MODEL 3
REMARK VINA RESULT:      -5.9      4.495      6.379
REMARK  12 active torsions:
REMARK  status: ('A' for Active; 'I' for Inactive)
REMARK    1  A    between atoms: N_1  and  C_21 
REMARK       I    between atoms: N_1  and  C_12 
REMARK    2  A    between atoms: N_6  and  C_11 
REMARK    3  A    between atoms: C_8  and  C_17 
REMARK    4  A    between atoms: C_8  and  C_23 
REMARK    5  A    between atoms: C_10  and  C_11 
REMARK    6  A    between atoms: C_10  and  C_17 
REMARK    7  A    between atoms: C_11  and  C_12 
REMARK    8  A    between atoms: N_13  and  C_23 
REMARK    9  A    between atoms: S_18  and  C_19 
REMARK   10  A    between atoms: C_19  and  C_20 
REMARK   11  A    between atoms: C_20  and  C_21 
REMARK   12  A    between atoms: C_21  and  C_22 
ROOT
HETATM    1  C           1     -33.313  -4.389 -16.720  0.00  0.00     0.274 C 
ENDROOT
BRANCH   1   2
HETATM    2  N           1     -33.536  -3.018 -17.285  0.00  0.00    -0.067 N 
HETATM    3  H           1     -34.443  -2.998 -17.804  0.00  0.00     0.275 HD
HETATM    4  H           1     -33.566  -2.322 -16.507  0.00  0.00     0.275 HD
HETATM    5  H           1     -32.756  -2.779 -17.938  0.00  0.00     0.275 HD
ENDBRANCH   1   2
BRANCH   1   6
HETATM    6  C           1     -31.819  -4.624 -16.534  0.00  0.00     0.042 C 
BRANCH   6   7
HETATM    7  C           1     -31.045  -3.803 -17.556  0.00  0.00     0.004 C 
BRANCH   7   8
HETATM    8  C           1     -29.610  -4.309 -17.633  0.00  0.00     0.027 C 
BRANCH   8   9
HETATM    9  C           1     -28.658  -3.210 -17.178  0.00  0.00     0.229 C 
BRANCH   9  10
HETATM   10  N           1     -29.309  -1.872 -17.374  0.00  0.00    -0.079 N 
HETATM   11  H           1     -28.575  -1.129 -17.401  0.00  0.00     0.274 HD
HETATM   12  H           1     -29.839  -1.871 -18.274  0.00  0.00     0.274 HD
HETATM   13  H           1     -29.965  -1.686 -16.582  0.00  0.00     0.274 HD
ENDBRANCH   9  10
ENDBRANCH   8   9
ENDBRANCH   7   8
ENDBRANCH   6   7
ENDBRANCH   1   6
BRANCH   1  14
HETATM   14  C           1     -34.010  -4.505 -15.388  0.00  0.00     0.249 C 
HETATM   15  N           1     -33.457  -3.931 -14.274  0.00  0.00    -0.345 N 
HETATM   16  H           1     -32.581  -3.430 -14.344  0.00  0.00     0.163 HD
HETATM   17  O           1     -35.056  -5.104 -15.303  0.00  0.00    -0.271 OA
BRANCH  15  18
HETATM   18  C           1     -34.127  -4.044 -12.992  0.00  0.00     0.186 C 
BRANCH  18  19
HETATM   19  C           1     -33.091  -4.250 -11.895  0.00  0.00     0.046 C 
BRANCH  19  20
HETATM   20  C           1     -33.199  -5.669 -11.354  0.00  0.00     0.076 C 
BRANCH  20  21
HETATM   21  S           1     -34.673  -5.807 -10.304  0.00  0.00    -0.173 SA
HETATM   22  C           1     -34.659  -7.617 -10.178  0.00  0.00     0.089 C 
ENDBRANCH  20  21
ENDBRANCH  19  20
ENDBRANCH  18  19
BRANCH  18  23
HETATM   23  C           1     -34.904  -2.779 -12.719  0.00  0.00     0.196 C 
HETATM   24  O           1     -35.576  -2.673 -11.672  0.00  0.00    -0.646 OA
HETATM   25  O           1     -34.874  -1.837 -13.542  0.00  0.00    -0.646 OA
ENDBRANCH  18  23
ENDBRANCH  15  18
ENDBRANCH   1  14
TORSDOF 12
ENDMDL
MODEL 4
REMARK VINA RESULT:      -5.3     14.178     16.078
REMARK  12 active torsions:
REMARK  status: ('A' for Active; 'I' for Inactive)
REMARK    1  A    between atoms: N_1  and  C_21 
REMARK       I    between atoms: N_1  and  C_12 
REMARK    2  A    between atoms: N_6  and  C_11 
REMARK    3  A    between atoms: C_8  and  C_17 
REMARK    4  A    between atoms: C_8  and  C_23 
REMARK    5  A    between atoms: C_10  and  C_11 
REMARK    6  A    between atoms: C_10  and  C_17 
REMARK    7  A    between atoms: C_11  and  C_12 
REMARK    8  A    between atoms: N_13  and  C_23 
REMARK    9  A    between atoms: S_18  and  C_19 
REMARK   10  A    between atoms: C_19  and  C_20 
REMARK   11  A    between atoms: C_20  and  C_21 
REMARK   12  A    between atoms: C_21  and  C_22 
ROOT
HETATM    1  C           1     -20.923  -3.967  -7.332  0.00  0.00     0.274 C 
ENDROOT
BRANCH   1   2
HETATM    2  N           1     -19.689  -3.807  -8.169  0.00  0.00    -0.067 N 
HETATM    3  H           1     -19.031  -3.144  -7.699  0.00  0.00     0.275 HD
HETATM    4  H           1     -19.224  -4.735  -8.283  0.00  0.00     0.275 HD
HETATM    5  H           1     -19.952  -3.429  -9.108  0.00  0.00     0.275 HD
ENDBRANCH   1   2
BRANCH   1   6
HETATM    6  C           1     -22.002  -4.668  -8.147  0.00  0.00     0.042 C 
BRANCH   6   7
HETATM    7  C           1     -21.794  -4.373  -9.626  0.00  0.00     0.004 C 
BRANCH   7   8
HETATM    8  C           1     -23.039  -3.700 -10.190  0.00  0.00     0.027 C 
BRANCH   8   9
HETATM    9  C           1     -24.278  -4.453  -9.724  0.00  0.00     0.229 C 
BRANCH   9  10
HETATM   10  N           1     -25.455  -3.521  -9.711  0.00  0.00    -0.079 N 
HETATM   11  H           1     -25.693  -3.247 -10.691  0.00  0.00     0.274 HD
HETATM   12  H           1     -26.274  -4.001  -9.275  0.00  0.00     0.274 HD
HETATM   13  H           1     -25.215  -2.667  -9.159  0.00  0.00     0.274 HD
ENDBRANCH   9  10
ENDBRANCH   8   9
ENDBRANCH   7   8
ENDBRANCH   6   7
ENDBRANCH   1   6
BRANCH   1  14
HETATM   14  C           1     -20.599  -4.790  -6.110  0.00  0.00     0.249 C 
HETATM   15  N           1     -21.167  -6.025  -5.947  0.00  0.00    -0.345 N 
HETATM   16  H           1     -21.804  -6.386  -6.646  0.00  0.00     0.163 HD
HETATM   17  O           1     -19.840  -4.359  -5.275  0.00  0.00    -0.271 OA
BRANCH  15  18
HETATM   18  C           1     -20.857  -6.817  -4.771  0.00  0.00     0.186 C 
BRANCH  18  19
HETATM   19  C           1     -22.038  -6.780  -3.810  0.00  0.00     0.046 C 
BRANCH  19  20
HETATM   20  C           1     -21.631  -6.060  -2.532  0.00  0.00     0.076 C 
BRANCH  20  21
HETATM   21  S           1     -22.246  -6.981  -1.095  0.00  0.00    -0.173 SA
HETATM   22  C           1     -21.261  -8.478  -1.381  0.00  0.00     0.089 C 
ENDBRANCH  20  21
ENDBRANCH  19  20
ENDBRANCH  18  19
BRANCH  18  23
HETATM   23  C           1     -20.587  -8.243  -5.184  0.00  0.00     0.196 C 
HETATM   24  O           1     -19.524  -8.532  -5.773  0.00  0.00    -0.646 OA
HETATM   25  O           1     -21.427  -9.135  -4.935  0.00  0.00    -0.646 OA
ENDBRANCH  18  23
ENDBRANCH  15  18
ENDBRANCH   1  14
TORSDOF 12
ENDMDL
MODEL 5
REMARK VINA RESULT:      -5.3     14.779     16.778
REMARK  12 active torsions:
REMARK  status: ('A' for Active; 'I' for Inactive)
REMARK    1  A    between atoms: N_1  and  C_21 
REMARK       I    between atoms: N_1  and  C_12 
REMARK    2  A    between atoms: N_6  and  C_11 
REMARK    3  A    between atoms: C_8  and  C_17 
REMARK    4  A    between atoms: C_8  and  C_23 
REMARK    5  A    between atoms: C_10  and  C_11 
REMARK    6  A    between atoms: C_10  and  C_17 
REMARK    7  A    between atoms: C_11  and  C_12 
REMARK    8  A    between atoms: N_13  and  C_23 
REMARK    9  A    between atoms: S_18  and  C_19 
REMARK   10  A    between atoms: C_19  and  C_20 
REMARK   11  A    between atoms: C_20  and  C_21 
REMARK   12  A    between atoms: C_21  and  C_22 
ROOT
HETATM    1  C           1     -20.586  -4.515  -6.515  0.00  0.00     0.274 C 
ENDROOT
BRANCH   1   2
HETATM    2  N           1     -19.549  -5.269  -7.291  0.00  0.00    -0.067 N 
HETATM    3  H           1     -18.857  -5.692  -6.631  0.00  0.00     0.275 HD
HETATM    4  H           1     -20.009  -6.027  -7.844  0.00  0.00     0.275 HD
HETATM    5  H           1     -19.055  -4.614  -7.940  0.00  0.00     0.275 HD
ENDBRANCH   1   2
BRANCH   1   6
HETATM    6  C           1     -21.487  -3.752  -7.478  0.00  0.00     0.042 C 
BRANCH   6   7
HETATM    7  C           1     -21.222  -4.224  -8.901  0.00  0.00     0.004 C 
BRANCH   7   8
HETATM    8  C           1     -22.452  -3.959  -9.761  0.00  0.00     0.027 C 
BRANCH   8   9
HETATM    9  C           1     -23.697  -3.968  -8.884  0.00  0.00     0.229 C 
BRANCH   9  10
HETATM   10  N           1     -24.870  -4.453  -9.685  0.00  0.00    -0.079 N 
HETATM   11  H           1     -24.533  -4.840 -10.595  0.00  0.00     0.274 HD
HETATM   12  H           1     -25.370  -5.199  -9.152  0.00  0.00     0.274 HD
HETATM   13  H           1     -25.521  -3.656  -9.864  0.00  0.00     0.274 HD
ENDBRANCH   9  10
ENDBRANCH   8   9
ENDBRANCH   7   8
ENDBRANCH   6   7
ENDBRANCH   1   6
BRANCH   1  14
HETATM   14  C           1     -21.416  -5.484  -5.711  0.00  0.00     0.249 C 
HETATM   15  N           1     -20.805  -6.368  -4.861  0.00  0.00    -0.345 N 
HETATM   16  H           1     -19.797  -6.371  -4.773  0.00  0.00     0.163 HD
HETATM   17  O           1     -22.620  -5.482  -5.816  0.00  0.00    -0.271 OA
BRANCH  15  18
HETATM   18  C           1     -21.603  -7.301  -4.089  0.00  0.00     0.186 C 
BRANCH  18  19
HETATM   19  C           1     -20.987  -8.691  -4.180  0.00  0.00     0.046 C 
BRANCH  19  20
HETATM   20  C           1     -19.640  -8.605  -4.883  0.00  0.00     0.076 C 
BRANCH  20  21
HETATM   21  S           1     -18.377  -9.433  -3.877  0.00  0.00    -0.173 SA
HETATM   22  C           1     -17.404 -10.076  -5.268  0.00  0.00     0.089 C 
ENDBRANCH  20  21
ENDBRANCH  19  20
ENDBRANCH  18  19
BRANCH  18  23
HETATM   23  C           1     -21.636  -6.858  -2.646  0.00  0.00     0.196 C 
HETATM   24  O           1     -22.398  -5.933  -2.295  0.00  0.00    -0.646 OA
HETATM   25  O           1     -20.902  -7.418  -1.803  0.00  0.00    -0.646 OA
ENDBRANCH  18  23
ENDBRANCH  15  18
ENDBRANCH   1  14
TORSDOF 12
ENDMDL
MODEL 6
REMARK VINA RESULT:      -5.3     14.331     16.388
REMARK  12 active torsions:
REMARK  status: ('A' for Active; 'I' for Inactive)
REMARK    1  A    between atoms: N_1  and  C_21 
REMARK       I    between atoms: N_1  and  C_12 
REMARK    2  A    between atoms: N_6  and  C_11 
REMARK    3  A    between atoms: C_8  and  C_17 
REMARK    4  A    between atoms: C_8  and  C_23 
REMARK    5  A    between atoms: C_10  and  C_11 
REMARK    6  A    between atoms: C_10  and  C_17 
REMARK    7  A    between atoms: C_11  and  C_12 
REMARK    8  A    between atoms: N_13  and  C_23 
REMARK    9  A    between atoms: S_18  and  C_19 
REMARK   10  A    between atoms: C_19  and  C_20 
REMARK   11  A    between atoms: C_20  and  C_21 
REMARK   12  A    between atoms: C_21  and  C_22 
ROOT
HETATM    1  C           1     -20.722  -5.067  -6.583  0.00  0.00     0.274 C 
ENDROOT
BRANCH   1   2
HETATM    2  N           1     -20.096  -5.948  -7.622  0.00  0.00    -0.067 N 
HETATM    3  H           1     -20.184  -5.498  -8.561  0.00  0.00     0.275 HD
HETATM    4  H           1     -19.086  -6.088  -7.397  0.00  0.00     0.275 HD
HETATM    5  H           1     -20.583  -6.874  -7.633  0.00  0.00     0.275 HD
ENDBRANCH   1   2
BRANCH   1   6
HETATM    6  C           1     -21.666  -4.080  -7.257  0.00  0.00     0.042 C 
BRANCH   6   7
HETATM    7  C           1     -21.996  -4.569  -8.661  0.00  0.00     0.004 C 
BRANCH   7   8
HETATM    8  C           1     -23.013  -3.633  -9.300  0.00  0.00     0.027 C 
BRANCH   8   9
HETATM    9  C           1     -24.189  -4.445  -9.828  0.00  0.00     0.229 C 
BRANCH   9  10
HETATM   10  N           1     -25.448  -3.635  -9.713  0.00  0.00    -0.079 N 
HETATM   11  H           1     -25.374  -2.991  -8.894  0.00  0.00     0.274 HD
HETATM   12  H           1     -25.582  -3.076 -10.585  0.00  0.00     0.274 HD
HETATM   13  H           1     -26.262  -4.277  -9.581  0.00  0.00     0.274 HD
ENDBRANCH   9  10
ENDBRANCH   8   9
ENDBRANCH   7   8
ENDBRANCH   6   7
ENDBRANCH   1   6
BRANCH   1  14
HETATM   14  C           1     -21.495  -5.914  -5.604  0.00  0.00     0.249 C 
HETATM   15  N           1     -20.833  -6.788  -4.782  0.00  0.00    -0.345 N 
HETATM   16  H           1     -19.825  -6.865  -4.832  0.00  0.00     0.163 HD
HETATM   17  O           1     -22.698  -5.823  -5.544  0.00  0.00    -0.271 OA
BRANCH  15  18
HETATM   18  C           1     -21.576  -7.603  -3.841  0.00  0.00     0.186 C 
BRANCH  18  19
HETATM   19  C           1     -20.919  -8.973  -3.728  0.00  0.00     0.046 C 
BRANCH  19  20
HETATM   20  C           1     -21.977 -10.019  -3.404  0.00  0.00     0.076 C 
BRANCH  20  21
HETATM   21  S           1     -21.539 -10.865  -1.859  0.00  0.00    -0.173 SA
HETATM   22  C           1     -22.879 -10.158  -0.859  0.00  0.00     0.089 C 
ENDBRANCH  20  21
ENDBRANCH  19  20
ENDBRANCH  18  19
BRANCH  18  23
HETATM   23  C           1     -21.579  -6.933  -2.489  0.00  0.00     0.196 C 
HETATM   24  O           1     -20.761  -7.289  -1.614  0.00  0.00    -0.646 OA
HETATM   25  O           1     -22.399  -6.021  -2.245  0.00  0.00    -0.646 OA
ENDBRANCH  18  23
ENDBRANCH  15  18
ENDBRANCH   1  14
TORSDOF 12
ENDMDL
MODEL 7
REMARK VINA RESULT:      -5.2     14.563     16.488
REMARK  12 active torsions:
REMARK  status: ('A' for Active; 'I' for Inactive)
REMARK    1  A    between atoms: N_1  and  C_21 
REMARK       I    between atoms: N_1  and  C_12 
REMARK    2  A    between atoms: N_6  and  C_11 
REMARK    3  A    between atoms: C_8  and  C_17 
REMARK    4  A    between atoms: C_8  and  C_23 
REMARK    5  A    between atoms: C_10  and  C_11 
REMARK    6  A    between atoms: C_10  and  C_17 
REMARK    7  A    between atoms: C_11  and  C_12 
REMARK    8  A    between atoms: N_13  and  C_23 
REMARK    9  A    between atoms: S_18  and  C_19 
REMARK   10  A    between atoms: C_19  and  C_20 
REMARK   11  A    between atoms: C_20  and  C_21 
REMARK   12  A    between atoms: C_21  and  C_22 
ROOT
HETATM    1  C           1     -22.098  -4.911  -7.053  0.00  0.00     0.274 C 
ENDROOT
BRANCH   1   2
HETATM    2  N           1     -23.504  -4.540  -6.689  0.00  0.00    -0.067 N 
HETATM    3  H           1     -23.974  -5.356  -6.233  0.00  0.00     0.275 HD
HETATM    4  H           1     -23.491  -3.733  -6.027  0.00  0.00     0.275 HD
HETATM    5  H           1     -24.029  -4.275  -7.554  0.00  0.00     0.275 HD
ENDBRANCH   1   2
BRANCH   1   6
HETATM    6  C           1     -21.375  -3.687  -7.600  0.00  0.00     0.042 C 
BRANCH   6   7
HETATM    7  C           1     -20.660  -4.056  -8.893  0.00  0.00     0.004 C 
BRANCH   7   8
HETATM    8  C           1     -21.688  -4.383  -9.968  0.00  0.00     0.027 C 
BRANCH   8   9
HETATM    9  C           1     -21.649  -3.312 -11.051  0.00  0.00     0.229 C 
BRANCH   9  10
HETATM   10  N           1     -21.459  -3.962 -12.390  0.00  0.00    -0.079 N 
HETATM   11  H           1     -22.243  -4.629 -12.568  0.00  0.00     0.274 HD
HETATM   12  H           1     -21.450  -3.228 -13.134  0.00  0.00     0.274 HD
HETATM   13  H           1     -20.552  -4.479 -12.400  0.00  0.00     0.274 HD
ENDBRANCH   9  10
ENDBRANCH   8   9
ENDBRANCH   7   8
ENDBRANCH   6   7
ENDBRANCH   1   6
BRANCH   1  14
HETATM   14  C           1     -21.377  -5.414  -5.826  0.00  0.00     0.249 C 
HETATM   15  N           1     -22.033  -6.207  -4.923  0.00  0.00    -0.345 N 
HETATM   16  H           1     -23.002  -6.455  -5.078  0.00  0.00     0.163 HD
HETATM   17  O           1     -20.220  -5.117  -5.641  0.00  0.00    -0.271 OA
BRANCH  15  18
HETATM   18  C           1     -21.341  -6.689  -3.743  0.00  0.00     0.186 C 
BRANCH  18  19
HETATM   19  C           1     -22.251  -6.553  -2.530  0.00  0.00     0.046 C 
BRANCH  19  20
HETATM   20  C           1     -21.510  -7.016  -1.284  0.00  0.00     0.076 C 
BRANCH  20  21
HETATM   21  S           1     -22.682  -7.788  -0.133  0.00  0.00    -0.173 SA
HETATM   22  C           1     -21.434  -8.475   0.992  0.00  0.00     0.089 C 
ENDBRANCH  20  21
ENDBRANCH  19  20
ENDBRANCH  18  19
BRANCH  18  23
HETATM   23  C           1     -20.972  -8.140  -3.936  0.00  0.00     0.196 C 
HETATM   24  O           1     -21.868  -8.994  -4.107  0.00  0.00    -0.646 OA
HETATM   25  O           1     -19.771  -8.486  -3.926  0.00  0.00    -0.646 OA
ENDBRANCH  18  23
ENDBRANCH  15  18
ENDBRANCH   1  14
TORSDOF 12
ENDMDL
MODEL 8
REMARK VINA RESULT:      -5.2     14.513     15.990
REMARK  12 active torsions:
REMARK  status: ('A' for Active; 'I' for Inactive)
REMARK    1  A    between atoms: N_1  and  C_21 
REMARK       I    between atoms: N_1  and  C_12 
REMARK    2  A    between atoms: N_6  and  C_11 
REMARK    3  A    between atoms: C_8  and  C_17 
REMARK    4  A    between atoms: C_8  and  C_23 
REMARK    5  A    between atoms: C_10  and  C_11 
REMARK    6  A    between atoms: C_10  and  C_17 
REMARK    7  A    between atoms: C_11  and  C_12 
REMARK    8  A    between atoms: N_13  and  C_23 
REMARK    9  A    between atoms: S_18  and  C_19 
REMARK   10  A    between atoms: C_19  and  C_20 
REMARK   11  A    between atoms: C_20  and  C_21 
REMARK   12  A    between atoms: C_21  and  C_22 
ROOT
HETATM    1  C           1     -21.303  -6.593  -2.684  0.00  0.00     0.274 C 
ENDROOT
BRANCH   1   2
HETATM    2  N           1     -22.286  -5.662  -2.039  0.00  0.00    -0.067 N 
HETATM    3  H           1     -21.811  -5.122  -1.281  0.00  0.00     0.275 HD
HETATM    4  H           1     -22.660  -5.000  -2.755  0.00  0.00     0.275 HD
HETATM    5  H           1     -23.074  -6.216  -1.630  0.00  0.00     0.275 HD
ENDBRANCH   1   2
BRANCH   1   6
HETATM    6  C           1     -21.498  -7.999  -2.133  0.00  0.00     0.042 C 
BRANCH   6   7
HETATM    7  C           1     -21.429  -7.962  -0.612  0.00  0.00     0.004 C 
BRANCH   7   8
HETATM    8  C           1     -22.648  -8.667  -0.031  0.00  0.00     0.027 C 
BRANCH   8   9
HETATM    9  C           1     -22.823 -10.021  -0.706  0.00  0.00     0.229 C 
BRANCH   9  10
HETATM   10  N           1     -22.217 -11.091   0.155  0.00  0.00    -0.079 N 
HETATM   11  H           1     -21.848 -11.858  -0.451  0.00  0.00     0.274 HD
HETATM   12  H           1     -21.436 -10.685   0.717  0.00  0.00     0.274 HD
HETATM   13  H           1     -22.946 -11.474   0.798  0.00  0.00     0.274 HD
ENDBRANCH   9  10
ENDBRANCH   8   9
ENDBRANCH   7   8
ENDBRANCH   6   7
ENDBRANCH   1   6
BRANCH   1  14
HETATM   14  C           1     -21.524  -6.602  -4.176  0.00  0.00     0.249 C 
HETATM   15  N           1     -21.081  -5.555  -4.941  0.00  0.00    -0.345 N 
HETATM   16  H           1     -20.607  -4.775  -4.504  0.00  0.00     0.163 HD
HETATM   17  O           1     -22.091  -7.533  -4.697  0.00  0.00    -0.271 OA
BRANCH  15  18
HETATM   18  C           1     -21.295  -5.564  -6.375  0.00  0.00     0.186 C 
BRANCH  18  19
HETATM   19  C           1     -21.820  -4.205  -6.818  0.00  0.00     0.046 C 
BRANCH  19  20
HETATM   20  C           1     -23.109  -4.390  -7.606  0.00  0.00     0.076 C 
BRANCH  20  21
HETATM   21  S           1     -22.823  -3.959  -9.346  0.00  0.00    -0.173 SA
HETATM   22  C           1     -24.509  -3.382  -9.688  0.00  0.00     0.089 C 
ENDBRANCH  20  21
ENDBRANCH  19  20
ENDBRANCH  18  19
BRANCH  18  23
HETATM   23  C           1     -19.988  -5.851  -7.075  0.00  0.00     0.196 C 
HETATM   24  O           1     -19.469  -4.983  -7.808  0.00  0.00    -0.646 OA
HETATM   25  O           1     -19.426  -6.957  -6.920  0.00  0.00    -0.646 OA
ENDBRANCH  18  23
ENDBRANCH  15  18
ENDBRANCH   1  14
TORSDOF 12
ENDMDL
MODEL 9
REMARK VINA RESULT:      -5.1     10.112     11.984
REMARK  12 active torsions:
REMARK  status: ('A' for Active; 'I' for Inactive)
REMARK    1  A    between atoms: N_1  and  C_21 
REMARK       I    between atoms: N_1  and  C_12 
REMARK    2  A    between atoms: N_6  and  C_11 
REMARK    3  A    between atoms: C_8  and  C_17 
REMARK    4  A    between atoms: C_8  and  C_23 
REMARK    5  A    between atoms: C_10  and  C_11 
REMARK    6  A    between atoms: C_10  and  C_17 
REMARK    7  A    between atoms: C_11  and  C_12 
REMARK    8  A    between atoms: N_13  and  C_23 
REMARK    9  A    between atoms: S_18  and  C_19 
REMARK   10  A    between atoms: C_19  and  C_20 
REMARK   11  A    between atoms: C_20  and  C_21 
REMARK   12  A    between atoms: C_21  and  C_22 
ROOT
HETATM    1  C           1     -28.799  -4.769 -16.858  0.00  0.00     0.274 C 
ENDROOT
BRANCH   1   2
HETATM    2  N           1     -29.051  -4.279 -18.252  0.00  0.00    -0.067 N 
HETATM    3  H           1     -28.713  -3.294 -18.342  0.00  0.00     0.275 HD
HETATM    4  H           1     -28.540  -4.885 -18.932  0.00  0.00     0.275 HD
HETATM    5  H           1     -30.076  -4.315 -18.454  0.00  0.00     0.275 HD
ENDBRANCH   1   2
BRANCH   1   6
HETATM    6  C           1     -30.109  -5.245 -16.243  0.00  0.00     0.042 C 
BRANCH   6   7
HETATM    7  C           1     -31.112  -5.541 -17.350  0.00  0.00     0.004 C 
BRANCH   7   8
HETATM    8  C           1     -31.336  -7.045 -17.444  0.00  0.00     0.027 C 
BRANCH   8   9
HETATM    9  C           1     -30.636  -7.587 -18.684  0.00  0.00     0.229 C 
BRANCH   9  10
HETATM   10  N           1     -29.524  -8.506 -18.269  0.00  0.00    -0.079 N 
HETATM   11  H           1     -29.821  -9.057 -17.433  0.00  0.00     0.274 HD
HETATM   12  H           1     -29.300  -9.157 -19.055  0.00  0.00     0.274 HD
HETATM   13  H           1     -28.677  -7.942 -18.033  0.00  0.00     0.274 HD
ENDBRANCH   9  10
ENDBRANCH   8   9
ENDBRANCH   7   8
ENDBRANCH   6   7
ENDBRANCH   1   6
BRANCH   1  14
HETATM   14  C           1     -27.816  -5.913 -16.897  0.00  0.00     0.249 C 
HETATM   15  N           1     -26.690  -5.822 -17.670  0.00  0.00    -0.345 N 
HETATM   16  H           1     -26.516  -4.987 -18.216  0.00  0.00     0.163 HD
HETATM   17  O           1     -28.023  -6.910 -16.246  0.00  0.00    -0.271 OA
BRANCH  15  18
HETATM   18  C           1     -25.745  -6.922 -17.709  0.00  0.00     0.186 C 
BRANCH  18  19
HETATM   19  C           1     -24.825  -6.758 -18.911  0.00  0.00     0.046 C 
BRANCH  19  20
HETATM   20  C           1     -25.661  -6.552 -20.167  0.00  0.00     0.076 C 
BRANCH  20  21
HETATM   21  S           1     -25.715  -8.096 -21.119  0.00  0.00    -0.173 SA
HETATM   22  C           1     -24.269  -7.741 -22.157  0.00  0.00     0.089 C 
ENDBRANCH  20  21
ENDBRANCH  19  20
ENDBRANCH  18  19
BRANCH  18  23
HETATM   23  C           1     -24.924  -6.923 -16.442  0.00  0.00     0.196 C 
HETATM   24  O           1     -24.354  -7.970 -16.069  0.00  0.00    -0.646 OA
HETATM   25  O           1     -24.815  -5.877 -15.767  0.00  0.00    -0.646 OA
ENDBRANCH  18  23
ENDBRANCH  15  18
ENDBRANCH   1  14
TORSDOF 12
ENDMDL
