MODEL 1
REMARK VINA RESULT:      -5.9      0.000      0.000
REMARK  10 active torsions:
REMARK  status: ('A' for Active; 'I' for Inactive)
REMARK    1  A    between atoms: C_2  and  O_16 
REMARK    2  A    between atoms: C_2  and  C_10 
REMARK    3  A    between atoms: C_3  and  C_8 
REMARK    4  A    between atoms: C_3  and  C_15 
REMARK       I    between atoms: C_5  and  N_6 
REMARK    5  A    between atoms: C_5  and  C_11 
REMARK    6  A    between atoms: N_6  and  C_10 
REMARK    7  A    between atoms: C_8  and  C_11 
REMARK    8  A    between atoms: C_10  and  C_12 
REMARK    9  A    between atoms: C_11  and  N_13 
REMARK   10  A    between atoms: C_15  and  N_19 
ROOT
HETATM    1  C           1     -21.213  -5.817  -6.980  0.00  0.00     0.274 C 
ENDROOT
BRANCH   1   2
HETATM    2  C           1     -21.657  -4.655  -7.834  0.00  0.00     0.249 C 
HETATM    3  N           1     -22.125  -4.876  -9.102  0.00  0.00    -0.343 N 
HETATM    4  H           1     -22.172  -5.819  -9.466  0.00  0.00     0.163 HD
HETATM    5  O           1     -21.600  -3.529  -7.399  0.00  0.00    -0.271 OA
BRANCH   3   6
HETATM    6  C           1     -22.552  -3.759  -9.922  0.00  0.00     0.209 C 
BRANCH   6   7
HETATM    7  C           1     -21.776  -3.768 -11.232  0.00  0.00     0.200 C 
BRANCH   7   8
HETATM    8  O           1     -22.535  -4.408 -12.221  0.00  0.00    -0.398 OA
HETATM    9  H           1     -22.908  -5.177 -11.826  0.00  0.00     0.209 HD
ENDBRANCH   7   8
ENDBRANCH   6   7
BRANCH   6  10
HETATM   10  C           1     -24.028  -3.883 -10.210  0.00  0.00     0.198 C 
HETATM   11  O           1     -24.629  -4.946  -9.945  0.00  0.00    -0.646 OA
HETATM   12  O           1     -24.649  -2.922 -10.713  0.00  0.00    -0.646 OA
ENDBRANCH   6  10
ENDBRANCH   3   6
ENDBRANCH   1   2
BRANCH   1  13
HETATM   13  C           1     -21.149  -5.382  -5.521  0.00  0.00     0.044 C 
BRANCH  13  14
HETATM   14  C           1     -21.958  -6.349  -4.666  0.00  0.00     0.030 C 
BRANCH  14  15
HETATM   15  C           1     -21.377  -6.391  -3.259  0.00  0.00     0.230 C 
BRANCH  15  16
HETATM   16  N           1     -22.396  -5.884  -2.281  0.00  0.00    -0.079 N 
HETATM   17  H           1     -21.911  -5.507  -1.437  0.00  0.00     0.274 HD
HETATM   18  H           1     -22.959  -5.125  -2.728  0.00  0.00     0.274 HD
HETATM   19  H           1     -23.029  -6.667  -2.001  0.00  0.00     0.274 HD
ENDBRANCH  15  16
ENDBRANCH  14  15
ENDBRANCH  13  14
ENDBRANCH   1  13
BRANCH   1  20
HETATM   20  N           1     -19.855  -6.273  -7.425  0.00  0.00    -0.067 N 
HETATM   21  H           1     -19.140  -5.973  -6.723  0.00  0.00     0.275 HD
HETATM   22  H           1     -19.846  -7.314  -7.507  0.00  0.00     0.275 HD
HETATM   23  H           1     -19.632  -5.848  -8.353  0.00  0.00     0.275 HD
ENDBRANCH   1  20
TORSDOF 10
ENDMDL
MODEL 2
REMARK VINA RESULT:      -5.3      1.376      1.594
REMARK  10 active torsions:
REMARK  status: ('A' for Active; 'I' for Inactive)
REMARK    1  A    between atoms: C_2  and  O_16 
REMARK    2  A    between atoms: C_2  and  C_10 
REMARK    3  A    between atoms: C_3  and  C_8 
REMARK    4  A    between atoms: C_3  and  C_15 
REMARK       I    between atoms: C_5  and  N_6 
REMARK    5  A    between atoms: C_5  and  C_11 
REMARK    6  A    between atoms: N_6  and  C_10 
REMARK    7  A    between atoms: C_8  and  C_11 
REMARK    8  A    between atoms: C_10  and  C_12 
REMARK    9  A    between atoms: C_11  and  N_13 
REMARK   10  A    between atoms: C_15  and  N_19 
ROOT
HETATM    1  C           1     -20.336  -5.174  -7.920  0.00  0.00     0.274 C 
ENDROOT
BRANCH   1   2
HETATM    2  C           1     -20.911  -4.421  -9.094  0.00  0.00     0.249 C 
HETATM    3  N           1     -22.263  -4.425  -9.314  0.00  0.00    -0.343 N 
HETATM    4  H           1     -22.876  -4.932  -8.689  0.00  0.00     0.163 HD
HETATM    5  O           1     -20.180  -3.815  -9.841  0.00  0.00    -0.271 OA
BRANCH   3   6
HETATM    6  C           1     -22.816  -3.701 -10.442  0.00  0.00     0.209 C 
BRANCH   6   7
HETATM    7  C           1     -22.697  -4.555 -11.698  0.00  0.00     0.200 C 
BRANCH   7   8
HETATM    8  O           1     -21.789  -3.958 -12.584  0.00  0.00    -0.398 OA
HETATM    9  H           1     -21.174  -3.473 -12.062  0.00  0.00     0.209 HD
ENDBRANCH   7   8
ENDBRANCH   6   7
BRANCH   6  10
HETATM   10  C           1     -24.270  -3.394 -10.178  0.00  0.00     0.198 C 
HETATM   11  O           1     -25.063  -3.261 -11.134  0.00  0.00    -0.646 OA
HETATM   12  O           1     -24.679  -3.272  -9.003  0.00  0.00    -0.646 OA
ENDBRANCH   6  10
ENDBRANCH   3   6
ENDBRANCH   1   2
BRANCH   1  13
HETATM   13  C           1     -21.318  -5.126  -6.756  0.00  0.00     0.044 C 
BRANCH  13  14
HETATM   14  C           1     -20.548  -5.148  -5.441  0.00  0.00     0.030 C 
BRANCH  14  15
HETATM   15  C           1     -20.928  -6.394  -4.650  0.00  0.00     0.230 C 
BRANCH  15  16
HETATM   16  N           1     -22.306  -6.224  -4.080  0.00  0.00    -0.079 N 
HETATM   17  H           1     -22.314  -5.407  -3.430  0.00  0.00     0.274 HD
HETATM   18  H           1     -22.985  -6.058  -4.857  0.00  0.00     0.274 HD
HETATM   19  H           1     -22.576  -7.089  -3.560  0.00  0.00     0.274 HD
ENDBRANCH  15  16
ENDBRANCH  14  15
ENDBRANCH  13  14
ENDBRANCH   1  13
BRANCH   1  20
HETATM   20  N           1     -19.041  -4.540  -7.507  0.00  0.00    -0.067 N 
HETATM   21  H           1     -19.055  -3.525  -7.758  0.00  0.00     0.275 HD
HETATM   22  H           1     -18.916  -4.641  -6.474  0.00  0.00     0.275 HD
HETATM   23  H           1     -18.249  -5.010  -8.001  0.00  0.00     0.275 HD
ENDBRANCH   1  20
TORSDOF 10
ENDMDL
MODEL 3
REMARK VINA RESULT:      -5.1      3.276      6.449
REMARK  10 active torsions:
REMARK  status: ('A' for Active; 'I' for Inactive)
REMARK    1  A    between atoms: C_2  and  O_16 
REMARK    2  A    between atoms: C_2  and  C_10 
REMARK    3  A    between atoms: C_3  and  C_8 
REMARK    4  A    between atoms: C_3  and  C_15 
REMARK       I    between atoms: C_5  and  N_6 
REMARK    5  A    between atoms: C_5  and  C_11 
REMARK    6  A    between atoms: N_6  and  C_10 
REMARK    7  A    between atoms: C_8  and  C_11 
REMARK    8  A    between atoms: C_10  and  C_12 
REMARK    9  A    between atoms: C_11  and  N_13 
REMARK   10  A    between atoms: C_15  and  N_19 
ROOT
HETATM    1  C           1     -20.510  -4.980  -6.582  0.00  0.00     0.274 C 
ENDROOT
BRANCH   1   2
HETATM    2  C           1     -21.398  -5.779  -5.659  0.00  0.00     0.249 C 
HETATM    3  N           1     -20.846  -6.687  -4.795  0.00  0.00    -0.343 N 
HETATM    4  H           1     -19.844  -6.823  -4.776  0.00  0.00     0.163 HD
HETATM    5  O           1     -22.595  -5.617  -5.683  0.00  0.00    -0.271 OA
BRANCH   3   6
HETATM    6  C           1     -21.699  -7.455  -3.909  0.00  0.00     0.209 C 
BRANCH   6   7
HETATM    7  C           1     -21.232  -8.904  -3.886  0.00  0.00     0.200 C 
BRANCH   7   8
HETATM    8  O           1     -19.831  -8.944  -3.940  0.00  0.00    -0.398 OA
HETATM    9  H           1     -19.573  -8.481  -4.718  0.00  0.00     0.209 HD
ENDBRANCH   7   8
ENDBRANCH   6   7
BRANCH   6  10
HETATM   10  C           1     -21.624  -6.879  -2.517  0.00  0.00     0.198 C 
HETATM   11  O           1     -20.863  -7.392  -1.669  0.00  0.00    -0.646 OA
HETATM   12  O           1     -22.323  -5.888  -2.211  0.00  0.00    -0.646 OA
ENDBRANCH   6  10
ENDBRANCH   3   6
ENDBRANCH   1   2
BRANCH   1  13
HETATM   13  C           1     -21.312  -3.840  -7.198  0.00  0.00     0.044 C 
BRANCH  13  14
HETATM   14  C           1     -21.456  -4.073  -8.697  0.00  0.00     0.030 C 
BRANCH  14  15
HETATM   15  C           1     -22.896  -3.807  -9.116  0.00  0.00     0.230 C 
BRANCH  15  16
HETATM   16  N           1     -23.812  -4.077  -7.959  0.00  0.00    -0.079 N 
HETATM   17  H           1     -23.958  -5.107  -7.863  0.00  0.00     0.274 HD
HETATM   18  H           1     -23.384  -3.704  -7.082  0.00  0.00     0.274 HD
HETATM   19  H           1     -24.731  -3.608  -8.125  0.00  0.00     0.274 HD
ENDBRANCH  15  16
ENDBRANCH  14  15
ENDBRANCH  13  14
ENDBRANCH   1  13
BRANCH   1  20
HETATM   20  N           1     -19.991  -5.871  -7.670  0.00  0.00    -0.067 N 
HETATM   21  H           1     -20.479  -6.795  -7.627  0.00  0.00     0.275 HD
HETATM   22  H           1     -20.169  -5.427  -8.599  0.00  0.00     0.275 HD
HETATM   23  H           1     -18.963  -6.013  -7.544  0.00  0.00     0.275 HD
ENDBRANCH   1  20
TORSDOF 10
ENDMDL
MODEL 4
REMARK VINA RESULT:      -4.9      2.827      4.610
REMARK  10 active torsions:
REMARK  status: ('A' for Active; 'I' for Inactive)
REMARK    1  A    between atoms: C_2  and  O_16 
REMARK    2  A    between atoms: C_2  and  C_10 
REMARK    3  A    between atoms: C_3  and  C_8 
REMARK    4  A    between atoms: C_3  and  C_15 
REMARK       I    between atoms: C_5  and  N_6 
REMARK    5  A    between atoms: C_5  and  C_11 
REMARK    6  A    between atoms: N_6  and  C_10 
REMARK    7  A    between atoms: C_8  and  C_11 
REMARK    8  A    between atoms: C_10  and  C_12 
REMARK    9  A    between atoms: C_11  and  N_13 
REMARK   10  A    between atoms: C_15  and  N_19 
ROOT
HETATM    1  C           1     -21.307  -6.241  -2.895  0.00  0.00     0.274 C 
ENDROOT
BRANCH   1   2
HETATM    2  C           1     -21.652  -6.427  -4.353  0.00  0.00     0.249 C 
HETATM    3  N           1     -21.419  -5.415  -5.245  0.00  0.00    -0.343 N 
HETATM    4  H           1     -21.016  -4.543  -4.928  0.00  0.00     0.163 HD
HETATM    5  O           1     -22.133  -7.468  -4.732  0.00  0.00    -0.271 OA
BRANCH   3   6
HETATM    6  C           1     -21.750  -5.594  -6.646  0.00  0.00     0.209 C 
BRANCH   6   7
HETATM    7  C           1     -22.509  -4.371  -7.146  0.00  0.00     0.200 C 
BRANCH   7   8
HETATM    8  O           1     -23.846  -4.450  -6.732  0.00  0.00    -0.398 OA
HETATM    9  H           1     -24.301  -3.731  -7.137  0.00  0.00     0.209 HD
ENDBRANCH   7   8
ENDBRANCH   6   7
BRANCH   6  10
HETATM   10  C           1     -20.481  -5.761  -7.445  0.00  0.00     0.198 C 
HETATM   11  O           1     -19.630  -6.606  -7.095  0.00  0.00    -0.646 OA
HETATM   12  O           1     -20.281  -5.053  -8.455  0.00  0.00    -0.646 OA
ENDBRANCH   6  10
ENDBRANCH   3   6
ENDBRANCH   1   2
BRANCH   1  13
HETATM   13  C           1     -20.742  -7.542  -2.337  0.00  0.00     0.044 C 
BRANCH  13  14
HETATM   14  C           1     -21.623  -8.029  -1.193  0.00  0.00     0.030 C 
BRANCH  14  15
HETATM   15  C           1     -21.886  -9.521  -1.355  0.00  0.00     0.230 C 
BRANCH  15  16
HETATM   16  N           1     -21.881  -9.875  -2.813  0.00  0.00    -0.079 N 
HETATM   17  H           1     -22.444  -9.173  -3.343  0.00  0.00     0.274 HD
HETATM   18  H           1     -20.898  -9.872  -3.168  0.00  0.00     0.274 HD
HETATM   19  H           1     -22.295 -10.825  -2.942  0.00  0.00     0.274 HD
ENDBRANCH  15  16
ENDBRANCH  14  15
ENDBRANCH  13  14
ENDBRANCH   1  13
BRANCH   1  20
HETATM   20  N           1     -22.544  -5.867  -2.134  0.00  0.00    -0.067 N 
HETATM   21  H           1     -23.367  -6.368  -2.538  0.00  0.00     0.275 HD
HETATM   22  H           1     -22.431  -6.136  -1.130  0.00  0.00     0.275 HD
HETATM   23  H           1     -22.695  -4.835  -2.202  0.00  0.00     0.275 HD
ENDBRANCH   1  20
TORSDOF 10
ENDMDL
MODEL 5
REMARK VINA RESULT:      -4.8      2.857      4.612
REMARK  10 active torsions:
REMARK  status: ('A' for Active; 'I' for Inactive)
REMARK    1  A    between atoms: C_2  and  O_16 
REMARK    2  A    between atoms: C_2  and  C_10 
REMARK    3  A    between atoms: C_3  and  C_8 
REMARK    4  A    between atoms: C_3  and  C_15 
REMARK       I    between atoms: C_5  and  N_6 
REMARK    5  A    between atoms: C_5  and  C_11 
REMARK    6  A    between atoms: N_6  and  C_10 
REMARK    7  A    between atoms: C_8  and  C_11 
REMARK    8  A    between atoms: C_10  and  C_12 
REMARK    9  A    between atoms: C_11  and  N_13 
REMARK   10  A    between atoms: C_15  and  N_19 
ROOT
HETATM    1  C           1     -21.344  -6.472  -2.998  0.00  0.00     0.274 C 
ENDROOT
BRANCH   1   2
HETATM    2  C           1     -21.697  -6.241  -4.447  0.00  0.00     0.249 C 
HETATM    3  N           1     -20.964  -5.362  -5.198  0.00  0.00    -0.343 N 
HETATM    4  H           1     -20.186  -4.867  -4.782  0.00  0.00     0.163 HD
HETATM    5  O           1     -22.627  -6.831  -4.944  0.00  0.00    -0.271 OA
BRANCH   3   6
HETATM    6  C           1     -21.303  -5.141  -6.590  0.00  0.00     0.209 C 
BRANCH   6   7
HETATM    7  C           1     -21.390  -3.644  -6.858  0.00  0.00     0.200 C 
BRANCH   7   8
HETATM    8  O           1     -22.323  -3.404  -7.877  0.00  0.00    -0.398 OA
HETATM    9  H           1     -23.136  -3.179  -7.457  0.00  0.00     0.209 HD
ENDBRANCH   7   8
ENDBRANCH   6   7
BRANCH   6  10
HETATM   10  C           1     -20.238  -5.748  -7.470  0.00  0.00     0.198 C 
HETATM   11  O           1     -19.996  -5.253  -8.591  0.00  0.00    -0.646 OA
HETATM   12  O           1     -19.598  -6.747  -7.076  0.00  0.00    -0.646 OA
ENDBRANCH   6  10
ENDBRANCH   3   6
ENDBRANCH   1   2
BRANCH   1  13
HETATM   13  C           1     -21.314  -7.969  -2.714  0.00  0.00     0.044 C 
BRANCH  13  14
HETATM   14  C           1     -20.056  -8.576  -3.321  0.00  0.00     0.030 C 
BRANCH  14  15
HETATM   15  C           1     -20.440  -9.732  -4.236  0.00  0.00     0.230 C 
BRANCH  15  16
HETATM   16  N           1     -20.657  -9.218  -5.628  0.00  0.00    -0.079 N 
HETATM   17  H           1     -20.625 -10.015  -6.302  0.00  0.00     0.274 HD
HETATM   18  H           1     -21.590  -8.751  -5.685  0.00  0.00     0.274 HD
HETATM   19  H           1     -19.908  -8.530  -5.866  0.00  0.00     0.274 HD
ENDBRANCH  15  16
ENDBRANCH  14  15
ENDBRANCH  13  14
ENDBRANCH   1  13
BRANCH   1  20
HETATM   20  N           1     -22.373  -5.818  -2.123  0.00  0.00    -0.067 N 
HETATM   21  H           1     -23.105  -6.518  -1.865  0.00  0.00     0.275 HD
HETATM   22  H           1     -21.915  -5.458  -1.256  0.00  0.00     0.275 HD
HETATM   23  H           1     -22.815  -5.025  -2.639  0.00  0.00     0.275 HD
ENDBRANCH   1  20
TORSDOF 10
ENDMDL
MODEL 6
REMARK VINA RESULT:      -4.8      3.379      6.129
REMARK  10 active torsions:
REMARK  status: ('A' for Active; 'I' for Inactive)
REMARK    1  A    between atoms: C_2  and  O_16 
REMARK    2  A    between atoms: C_2  and  C_10 
REMARK    3  A    between atoms: C_3  and  C_8 
REMARK    4  A    between atoms: C_3  and  C_15 
REMARK       I    between atoms: C_5  and  N_6 
REMARK    5  A    between atoms: C_5  and  C_11 
REMARK    6  A    between atoms: N_6  and  C_10 
REMARK    7  A    between atoms: C_8  and  C_11 
REMARK    8  A    between atoms: C_10  and  C_12 
REMARK    9  A    between atoms: C_11  and  N_13 
REMARK   10  A    between atoms: C_15  and  N_19 
ROOT
HETATM    1  C           1     -21.144  -3.848  -7.786  0.00  0.00     0.274 C 
ENDROOT
BRANCH   1   2
HETATM    2  C           1     -20.559  -4.671  -6.664  0.00  0.00     0.249 C 
HETATM    3  N           1     -21.369  -5.488  -5.922  0.00  0.00    -0.343 N 
HETATM    4  H           1     -22.359  -5.539  -6.124  0.00  0.00     0.163 HD
HETATM    5  O           1     -19.377  -4.610  -6.422  0.00  0.00    -0.271 OA
BRANCH   3   6
HETATM    6  C           1     -20.807  -6.280  -4.844  0.00  0.00     0.209 C 
BRANCH   6   7
HETATM    7  C           1     -21.803  -6.346  -3.693  0.00  0.00     0.200 C 
BRANCH   7   8
HETATM    8  O           1     -21.694  -7.588  -3.052  0.00  0.00    -0.398 OA
HETATM    9  H           1     -21.243  -8.164  -3.645  0.00  0.00     0.209 HD
ENDBRANCH   7   8
ENDBRANCH   6   7
BRANCH   6  10
HETATM   10  C           1     -20.520  -7.675  -5.342  0.00  0.00     0.198 C 
HETATM   11  O           1     -19.462  -8.251  -5.011  0.00  0.00    -0.646 OA
HETATM   12  O           1     -21.341  -8.253  -6.087  0.00  0.00    -0.646 OA
ENDBRANCH   6  10
ENDBRANCH   3   6
ENDBRANCH   1   2
BRANCH   1  13
HETATM   13  C           1     -22.575  -4.296  -8.053  0.00  0.00     0.044 C 
BRANCH  13  14
HETATM   14  C           1     -23.008  -3.820  -9.434  0.00  0.00     0.030 C 
BRANCH  14  15
HETATM   15  C           1     -24.287  -4.540  -9.842  0.00  0.00     0.230 C 
BRANCH  15  16
HETATM   16  N           1     -25.461  -3.627  -9.642  0.00  0.00    -0.079 N 
HETATM   17  H           1     -26.337  -4.193  -9.590  0.00  0.00     0.274 HD
HETATM   18  H           1     -25.338  -3.093  -8.752  0.00  0.00     0.274 HD
HETATM   19  H           1     -25.523  -2.959 -10.442  0.00  0.00     0.274 HD
ENDBRANCH  15  16
ENDBRANCH  14  15
ENDBRANCH  13  14
ENDBRANCH   1  13
BRANCH   1  20
HETATM   20  N           1     -20.321  -4.038  -9.026  0.00  0.00    -0.067 N 
HETATM   21  H           1     -19.728  -3.191  -9.183  0.00  0.00     0.275 HD
HETATM   22  H           1     -19.708  -4.876  -8.912  0.00  0.00     0.275 HD
HETATM   23  H           1     -20.954  -4.178  -9.845  0.00  0.00     0.275 HD
ENDBRANCH   1  20
TORSDOF 10
ENDMDL
MODEL 7
REMARK VINA RESULT:      -4.7      3.457      6.887
REMARK  10 active torsions:
REMARK  status: ('A' for Active; 'I' for Inactive)
REMARK    1  A    between atoms: C_2  and  O_16 
REMARK    2  A    between atoms: C_2  and  C_10 
REMARK    3  A    between atoms: C_3  and  C_8 
REMARK    4  A    between atoms: C_3  and  C_15 
REMARK       I    between atoms: C_5  and  N_6 
REMARK    5  A    between atoms: C_5  and  C_11 
REMARK    6  A    between atoms: N_6  and  C_10 
REMARK    7  A    between atoms: C_8  and  C_11 
REMARK    8  A    between atoms: C_10  and  C_12 
REMARK    9  A    between atoms: C_11  and  N_13 
REMARK   10  A    between atoms: C_15  and  N_19 
ROOT
HETATM    1  C           1     -22.140  -4.979  -7.004  0.00  0.00     0.274 C 
ENDROOT
BRANCH   1   2
HETATM    2  C           1     -21.393  -5.388  -5.759  0.00  0.00     0.249 C 
HETATM    3  N           1     -22.044  -6.062  -4.760  0.00  0.00    -0.343 N 
HETATM    4  H           1     -23.027  -6.285  -4.857  0.00  0.00     0.163 HD
HETATM    5  O           1     -20.220  -5.121  -5.642  0.00  0.00    -0.271 OA
BRANCH   3   6
HETATM    6  C           1     -21.326  -6.456  -3.564  0.00  0.00     0.209 C 
BRANCH   6   7
HETATM    7  C           1     -22.177  -6.148  -2.339  0.00  0.00     0.200 C 
BRANCH   7   8
HETATM    8  O           1     -22.143  -7.239  -1.459  0.00  0.00    -0.398 OA
HETATM    9  H           1     -21.306  -7.217  -1.028  0.00  0.00     0.209 HD
ENDBRANCH   7   8
ENDBRANCH   6   7
BRANCH   6  10
HETATM   10  C           1     -21.035  -7.935  -3.616  0.00  0.00     0.198 C 
HETATM   11  O           1     -21.842  -8.711  -4.173  0.00  0.00    -0.646 OA
HETATM   12  O           1     -19.988  -8.385  -3.103  0.00  0.00    -0.646 OA
ENDBRANCH   6  10
ENDBRANCH   3   6
ENDBRANCH   1   2
BRANCH   1  13
HETATM   13  C           1     -21.444  -3.784  -7.644  0.00  0.00     0.044 C 
BRANCH  13  14
HETATM   14  C           1     -20.933  -4.173  -9.025  0.00  0.00     0.030 C 
BRANCH  14  15
HETATM   15  C           1     -22.102  -4.238 -10.000  0.00  0.00     0.230 C 
BRANCH  15  16
HETATM   16  N           1     -21.580  -4.388 -11.399  0.00  0.00    -0.079 N 
HETATM   17  H           1     -20.717  -3.810 -11.511  0.00  0.00     0.274 HD
HETATM   18  H           1     -21.352  -5.392 -11.579  0.00  0.00     0.274 HD
HETATM   19  H           1     -22.306  -4.068 -12.078  0.00  0.00     0.274 HD
ENDBRANCH  15  16
ENDBRANCH  14  15
ENDBRANCH  13  14
ENDBRANCH   1  13
BRANCH   1  20
HETATM   20  N           1     -23.546  -4.602  -6.641  0.00  0.00    -0.067 N 
HETATM   21  H           1     -24.166  -5.438  -6.739  0.00  0.00     0.275 HD
HETATM   22  H           1     -23.573  -4.263  -5.653  0.00  0.00     0.275 HD
HETATM   23  H           1     -23.879  -3.844  -7.279  0.00  0.00     0.275 HD
ENDBRANCH   1  20
TORSDOF 10
ENDMDL
MODEL 8
REMARK VINA RESULT:      -4.6      1.947      2.069
REMARK  10 active torsions:
REMARK  status: ('A' for Active; 'I' for Inactive)
REMARK    1  A    between atoms: C_2  and  O_16 
REMARK    2  A    between atoms: C_2  and  C_10 
REMARK    3  A    between atoms: C_3  and  C_8 
REMARK    4  A    between atoms: C_3  and  C_15 
REMARK       I    between atoms: C_5  and  N_6 
REMARK    5  A    between atoms: C_5  and  C_11 
REMARK    6  A    between atoms: N_6  and  C_10 
REMARK    7  A    between atoms: C_8  and  C_11 
REMARK    8  A    between atoms: C_10  and  C_12 
REMARK    9  A    between atoms: C_11  and  N_13 
REMARK   10  A    between atoms: C_15  and  N_19 
ROOT
HETATM    1  C           1     -21.910  -5.155  -6.157  0.00  0.00     0.274 C 
ENDROOT
BRANCH   1   2
HETATM    2  C           1     -21.871  -4.299  -7.399  0.00  0.00     0.249 C 
HETATM    3  N           1     -22.792  -4.493  -8.394  0.00  0.00    -0.343 N 
HETATM    4  H           1     -23.499  -5.211  -8.295  0.00  0.00     0.163 HD
HETATM    5  O           1     -21.026  -3.443  -7.517  0.00  0.00    -0.271 OA
BRANCH   3   6
HETATM    6  C           1     -22.755  -3.671  -9.587  0.00  0.00     0.209 C 
BRANCH   6   7
HETATM    7  C           1     -21.899  -4.355 -10.646  0.00  0.00     0.200 C 
BRANCH   7   8
HETATM    8  O           1     -20.578  -3.894 -10.548  0.00  0.00    -0.398 OA
HETATM    9  H           1     -20.435  -3.662  -9.647  0.00  0.00     0.209 HD
ENDBRANCH   7   8
ENDBRANCH   6   7
BRANCH   6  10
HETATM   10  C           1     -24.156  -3.487 -10.115  0.00  0.00     0.198 C 
HETATM   11  O           1     -24.467  -3.945 -11.235  0.00  0.00    -0.646 OA
HETATM   12  O           1     -25.006  -2.876  -9.431  0.00  0.00    -0.646 OA
ENDBRANCH   6  10
ENDBRANCH   3   6
ENDBRANCH   1   2
BRANCH   1  13
HETATM   13  C           1     -21.044  -6.391  -6.364  0.00  0.00     0.044 C 
BRANCH  13  14
HETATM   14  C           1     -20.839  -7.098  -5.030  0.00  0.00     0.030 C 
BRANCH  14  15
HETATM   15  C           1     -19.780  -8.181  -5.186  0.00  0.00     0.230 C 
BRANCH  15  16
HETATM   16  N           1     -19.955  -9.210  -4.108  0.00  0.00    -0.079 N 
HETATM   17  H           1     -20.886  -9.671  -4.215  0.00  0.00     0.274 HD
HETATM   18  H           1     -19.200  -9.929  -4.188  0.00  0.00     0.274 HD
HETATM   19  H           1     -19.899  -8.748  -3.173  0.00  0.00     0.274 HD
ENDBRANCH  15  16
ENDBRANCH  14  15
ENDBRANCH  13  14
ENDBRANCH   1  13
BRANCH   1  20
HETATM   20  N           1     -23.324  -5.575  -5.885  0.00  0.00    -0.067 N 
HETATM   21  H           1     -23.346  -6.596  -5.660  0.00  0.00     0.275 HD
HETATM   22  H           1     -23.700  -5.033  -5.075  0.00  0.00     0.275 HD
HETATM   23  H           1     -23.911  -5.391  -6.730  0.00  0.00     0.275 HD
ENDBRANCH   1  20
TORSDOF 10
ENDMDL
MODEL 9
REMARK VINA RESULT:      -4.5      2.291      3.256
REMARK  10 active torsions:
REMARK  status: ('A' for Active; 'I' for Inactive)
REMARK    1  A    between atoms: C_2  and  O_16 
REMARK    2  A    between atoms: C_2  and  C_10 
REMARK    3  A    between atoms: C_3  and  C_8 
REMARK    4  A    between atoms: C_3  and  C_15 
REMARK       I    between atoms: C_5  and  N_6 
REMARK    5  A    between atoms: C_5  and  C_11 
REMARK    6  A    between atoms: N_6  and  C_10 
REMARK    7  A    between atoms: C_8  and  C_11 
REMARK    8  A    between atoms: C_10  and  C_12 
REMARK    9  A    between atoms: C_11  and  N_13 
REMARK   10  A    between atoms: C_15  and  N_19 
ROOT
HETATM    1  C           1     -20.781  -7.810  -4.850  0.00  0.00     0.274 C 
ENDROOT
BRANCH   1   2
HETATM    2  C           1     -20.866  -6.372  -5.300  0.00  0.00     0.249 C 
HETATM    3  N           1     -21.058  -6.080  -6.624  0.00  0.00    -0.343 N 
HETATM    4  H           1     -21.142  -6.828  -7.300  0.00  0.00     0.163 HD
HETATM    5  O           1     -20.765  -5.479  -4.493  0.00  0.00    -0.271 OA
BRANCH   3   6
HETATM    6  C           1     -21.139  -4.698  -7.057  0.00  0.00     0.209 C 
BRANCH   6   7
HETATM    7  C           1     -20.197  -4.480  -8.233  0.00  0.00     0.200 C 
BRANCH   7   8
HETATM    8  O           1     -18.895  -4.273  -7.757  0.00  0.00    -0.398 OA
HETATM    9  H           1     -18.325  -4.821  -8.269  0.00  0.00     0.209 HD
ENDBRANCH   7   8
ENDBRANCH   6   7
BRANCH   6  10
HETATM   10  C           1     -22.554  -4.387  -7.480  0.00  0.00     0.198 C 
HETATM   11  O           1     -23.505  -4.635  -6.708  0.00  0.00    -0.646 OA
HETATM   12  O           1     -22.774  -3.882  -8.602  0.00  0.00    -0.646 OA
ENDBRANCH   6  10
ENDBRANCH   3   6
ENDBRANCH   1   2
BRANCH   1  13
HETATM   13  C           1     -20.422  -7.858  -3.370  0.00  0.00     0.044 C 
BRANCH  13  14
HETATM   14  C           1     -21.660  -8.218  -2.558  0.00  0.00     0.030 C 
BRANCH  14  15
HETATM   15  C           1     -21.855  -7.193  -1.448  0.00  0.00     0.230 C 
BRANCH  15  16
HETATM   16  N           1     -22.356  -5.907  -2.037  0.00  0.00    -0.079 N 
HETATM   17  H           1     -22.627  -5.255  -1.268  0.00  0.00     0.274 HD
HETATM   18  H           1     -21.602  -5.471  -2.613  0.00  0.00     0.274 HD
HETATM   19  H           1     -23.187  -6.101  -2.639  0.00  0.00     0.274 HD
ENDBRANCH  15  16
ENDBRANCH  14  15
ENDBRANCH  13  14
ENDBRANCH   1  13
BRANCH   1  20
HETATM   20  N           1     -19.725  -8.520  -5.643  0.00  0.00    -0.067 N 
HETATM   21  H           1     -20.108  -9.425  -6.001  0.00  0.00     0.275 HD
HETATM   22  H           1     -19.434  -7.923  -6.450  0.00  0.00     0.275 HD
HETATM   23  H           1     -18.898  -8.707  -5.033  0.00  0.00     0.275 HD
ENDBRANCH   1  20
TORSDOF 10
ENDMDL
