MODEL 1
REMARK VINA RESULT:      -6.0      0.000      0.000
REMARK  11 active torsions:
REMARK  status: ('A' for Active; 'I' for Inactive)
REMARK    1  A    between atoms: C_1  and  C_14 
REMARK    2  A    between atoms: C_1  and  C_24 
REMARK    3  A    between atoms: C_2  and  C_19 
REMARK    4  A    between atoms: N_6  and  C_14 
REMARK    5  A    between atoms: N_10  and  C_15 
REMARK    6  A    between atoms: C_12  and  C_16 
REMARK    7  A    between atoms: C_12  and  C_19 
REMARK    8  A    between atoms: N_13  and  C_19 
REMARK       I    between atoms: N_13  and  C_18 
REMARK    9  A    between atoms: C_14  and  C_18 
REMARK   10  A    between atoms: C_15  and  C_16 
REMARK   11  A    between atoms: S_23  and  C_24 
ROOT
HETATM    1  O           1     -33.944  -1.940 -11.226  0.00  0.00    -0.271 OA
HETATM    2  H           1     -35.255  -1.966 -14.076  0.00  0.00     0.163 HD
HETATM    3  N           1     -34.949  -1.587 -13.189  0.00  0.00    -0.345 N 
HETATM    4  C           1     -34.309  -2.392 -12.286  0.00  0.00     0.249 C 
ENDROOT
BRANCH   3   5
HETATM    5  C           1     -35.189  -0.192 -12.875  0.00  0.00     0.185 C 
BRANCH   5   6
HETATM    6  C           1     -36.420  -0.077 -12.010  0.00  0.00     0.196 C 
HETATM    7  O           1     -36.335   0.422 -10.866  0.00  0.00    -0.646 OA
HETATM    8  O           1     -37.524  -0.478 -12.437  0.00  0.00    -0.646 OA
ENDBRANCH   5   6
BRANCH   5   9
HETATM    9  C           1     -35.400   0.589 -14.165  0.00  0.00     0.038 C 
BRANCH   9  10
HETATM   10  C           1     -35.510  -0.382 -15.334  0.00  0.00     0.030 C 
BRANCH  10  11
HETATM   11  C           1     -36.908  -0.298 -15.934  0.00  0.00     0.230 C 
BRANCH  11  12
HETATM   12  N           1     -37.434   1.098 -15.783  0.00  0.00    -0.079 N 
HETATM   13  H           1     -36.833   1.758 -16.327  0.00  0.00     0.274 HD
HETATM   14  H           1     -38.415   1.141 -16.144  0.00  0.00     0.274 HD
HETATM   15  H           1     -37.423   1.368 -14.774  0.00  0.00     0.274 HD
ENDBRANCH  11  12
ENDBRANCH  10  11
ENDBRANCH   9  10
ENDBRANCH   5   9
ENDBRANCH   3   5
BRANCH   4  16
HETATM   16  C           1     -34.060  -3.844 -12.613  0.00  0.00     0.275 C 
BRANCH  16  17
HETATM   17  C           1     -32.817  -4.325 -11.875  0.00  0.00     0.053 C 
BRANCH  17  18
HETATM   18  C           1     -33.077  -5.706 -11.289  0.00  0.00     0.076 C 
BRANCH  18  19
HETATM   19  S           1     -34.711  -5.732 -10.499  0.00  0.00    -0.173 SA
HETATM   20  C           1     -34.711  -7.503 -10.100  0.00  0.00     0.089 C 
ENDBRANCH  18  19
ENDBRANCH  17  18
ENDBRANCH  16  17
BRANCH  16  21
HETATM   21  N           1     -33.852  -3.994 -14.091  0.00  0.00    -0.066 N 
HETATM   22  H           1     -33.047  -4.636 -14.267  0.00  0.00     0.275 HD
HETATM   23  H           1     -34.716  -4.393 -14.524  0.00  0.00     0.275 HD
HETATM   24  H           1     -33.651  -3.059 -14.511  0.00  0.00     0.275 HD
ENDBRANCH  16  21
ENDBRANCH   4  16
TORSDOF 11
ENDMDL
MODEL 2
REMARK VINA RESULT:      -5.7      9.475     10.974
REMARK  11 active torsions:
REMARK  status: ('A' for Active; 'I' for Inactive)
REMARK    1  A    between atoms: C_1  and  C_14 
REMARK    2  A    between atoms: C_1  and  C_24 
REMARK    3  A    between atoms: C_2  and  C_19 
REMARK    4  A    between atoms: N_6  and  C_14 
REMARK    5  A    between atoms: N_10  and  C_15 
REMARK    6  A    between atoms: C_12  and  C_16 
REMARK    7  A    between atoms: C_12  and  C_19 
REMARK    8  A    between atoms: N_13  and  C_19 
REMARK       I    between atoms: N_13  and  C_18 
REMARK    9  A    between atoms: C_14  and  C_18 
REMARK   10  A    between atoms: C_15  and  C_16 
REMARK   11  A    between atoms: S_23  and  C_24 
ROOT
HETATM    1  O           1     -26.462  -7.373 -15.341  0.00  0.00    -0.271 OA
HETATM    2  H           1     -27.570  -6.186 -18.025  0.00  0.00     0.163 HD
HETATM    3  N           1     -27.595  -6.567 -17.088  0.00  0.00    -0.345 N 
HETATM    4  C           1     -26.432  -6.918 -16.460  0.00  0.00     0.249 C 
ENDROOT
BRANCH   3   5
HETATM    5  C           1     -28.866  -6.739 -16.410  0.00  0.00     0.185 C 
BRANCH   5   6
HETATM    6  C           1     -29.838  -7.430 -17.334  0.00  0.00     0.196 C 
HETATM    7  O           1     -29.433  -8.316 -18.118  0.00  0.00    -0.646 OA
HETATM    8  O           1     -31.048  -7.118 -17.315  0.00  0.00    -0.646 OA
ENDBRANCH   5   6
BRANCH   5   9
HETATM    9  C           1     -29.420  -5.375 -16.018  0.00  0.00     0.038 C 
BRANCH   9  10
HETATM   10  C           1     -28.826  -4.306 -16.926  0.00  0.00     0.030 C 
BRANCH  10  11
HETATM   11  C           1     -29.811  -3.981 -18.041  0.00  0.00     0.230 C 
BRANCH  11  12
HETATM   12  N           1     -30.717  -2.870 -17.600  0.00  0.00    -0.079 N 
HETATM   13  H           1     -30.149  -2.109 -17.166  0.00  0.00     0.274 HD
HETATM   14  H           1     -31.232  -2.492 -18.428  0.00  0.00     0.274 HD
HETATM   15  H           1     -31.402  -3.235 -16.900  0.00  0.00     0.274 HD
ENDBRANCH  11  12
ENDBRANCH  10  11
ENDBRANCH   9  10
ENDBRANCH   5   9
ENDBRANCH   3   5
BRANCH   4  16
HETATM   16  C           1     -25.110  -6.739 -17.166  0.00  0.00     0.275 C 
BRANCH  16  17
HETATM   17  C           1     -25.328  -6.782 -18.673  0.00  0.00     0.053 C 
BRANCH  17  18
HETATM   18  C           1     -24.058  -7.270 -19.357  0.00  0.00     0.076 C 
BRANCH  18  19
HETATM   19  S           1     -24.462  -7.895 -21.011  0.00  0.00    -0.173 SA
HETATM   20  C           1     -22.792  -8.476 -21.418  0.00  0.00     0.089 C 
ENDBRANCH  18  19
ENDBRANCH  17  18
ENDBRANCH  16  17
BRANCH  16  21
HETATM   21  N           1     -24.176  -7.844 -16.766  0.00  0.00    -0.066 N 
HETATM   22  H           1     -23.282  -7.435 -16.412  0.00  0.00     0.275 HD
HETATM   23  H           1     -24.619  -8.417 -16.013  0.00  0.00     0.275 HD
HETATM   24  H           1     -23.978  -8.449 -17.595  0.00  0.00     0.275 HD
ENDBRANCH  16  21
ENDBRANCH   4  16
TORSDOF 11
ENDMDL
MODEL 3
REMARK VINA RESULT:      -5.7      3.118      6.709
REMARK  11 active torsions:
REMARK  status: ('A' for Active; 'I' for Inactive)
REMARK    1  A    between atoms: C_1  and  C_14 
REMARK    2  A    between atoms: C_1  and  C_24 
REMARK    3  A    between atoms: C_2  and  C_19 
REMARK    4  A    between atoms: N_6  and  C_14 
REMARK    5  A    between atoms: N_10  and  C_15 
REMARK    6  A    between atoms: C_12  and  C_16 
REMARK    7  A    between atoms: C_12  and  C_19 
REMARK    8  A    between atoms: N_13  and  C_19 
REMARK       I    between atoms: N_13  and  C_18 
REMARK    9  A    between atoms: C_14  and  C_18 
REMARK   10  A    between atoms: C_15  and  C_16 
REMARK   11  A    between atoms: S_23  and  C_24 
ROOT
HETATM    1  O           1     -34.118  -1.631 -10.246  0.00  0.00    -0.271 OA
HETATM    2  H           1     -36.284  -3.461 -11.588  0.00  0.00     0.163 HD
HETATM    3  N           1     -35.391  -3.208 -11.184  0.00  0.00    -0.345 N 
HETATM    4  C           1     -35.183  -1.934 -10.729  0.00  0.00     0.249 C 
ENDROOT
BRANCH   3   5
HETATM    5  C           1     -34.333  -4.195 -11.086  0.00  0.00     0.185 C 
BRANCH   5   6
HETATM    6  C           1     -33.408  -4.058 -12.270  0.00  0.00     0.196 C 
HETATM    7  O           1     -33.867  -3.730 -13.386  0.00  0.00    -0.646 OA
HETATM    8  O           1     -32.184  -4.271 -12.135  0.00  0.00    -0.646 OA
ENDBRANCH   5   6
BRANCH   5   9
HETATM    9  C           1     -34.942  -5.591 -11.075  0.00  0.00     0.038 C 
BRANCH   9  10
HETATM   10  C           1     -33.916  -6.588 -10.553  0.00  0.00     0.030 C 
BRANCH  10  11
HETATM   11  C           1     -34.622  -7.870 -10.132  0.00  0.00     0.230 C 
BRANCH  11  12
HETATM   12  N           1     -33.637  -9.002 -10.117  0.00  0.00    -0.079 N 
HETATM   13  H           1     -32.886  -8.818 -10.820  0.00  0.00     0.274 HD
HETATM   14  H           1     -33.212  -9.081  -9.165  0.00  0.00     0.274 HD
HETATM   15  H           1     -34.126  -9.893 -10.356  0.00  0.00     0.274 HD
ENDBRANCH  11  12
ENDBRANCH  10  11
ENDBRANCH   9  10
ENDBRANCH   5   9
ENDBRANCH   3   5
BRANCH   4  16
HETATM   16  C           1     -36.284  -0.907 -10.831  0.00  0.00     0.275 C 
BRANCH  16  17
HETATM   17  C           1     -36.000   0.029 -11.999  0.00  0.00     0.053 C 
BRANCH  17  18
HETATM   18  C           1     -36.969  -0.267 -13.135  0.00  0.00     0.076 C 
BRANCH  18  19
HETATM   19  S           1     -36.239   0.264 -14.709  0.00  0.00    -0.173 SA
HETATM   20  C           1     -34.755   1.025 -13.993  0.00  0.00     0.089 C 
ENDBRANCH  18  19
ENDBRANCH  17  18
ENDBRANCH  16  17
BRANCH  16  21
HETATM   21  N           1     -36.348  -0.114  -9.559  0.00  0.00    -0.066 N 
HETATM   22  H           1     -35.892  -0.652  -8.788  0.00  0.00     0.275 HD
HETATM   23  H           1     -35.849   0.795  -9.692  0.00  0.00     0.275 HD
HETATM   24  H           1     -37.347   0.069  -9.313  0.00  0.00     0.275 HD
ENDBRANCH  16  21
ENDBRANCH   4  16
TORSDOF 11
ENDMDL
MODEL 4
REMARK VINA RESULT:      -5.6      4.095      6.072
REMARK  11 active torsions:
REMARK  status: ('A' for Active; 'I' for Inactive)
REMARK    1  A    between atoms: C_1  and  C_14 
REMARK    2  A    between atoms: C_1  and  C_24 
REMARK    3  A    between atoms: C_2  and  C_19 
REMARK    4  A    between atoms: N_6  and  C_14 
REMARK    5  A    between atoms: N_10  and  C_15 
REMARK    6  A    between atoms: C_12  and  C_16 
REMARK    7  A    between atoms: C_12  and  C_19 
REMARK    8  A    between atoms: N_13  and  C_19 
REMARK       I    between atoms: N_13  and  C_18 
REMARK    9  A    between atoms: C_14  and  C_18 
REMARK   10  A    between atoms: C_15  and  C_16 
REMARK   11  A    between atoms: S_23  and  C_24 
ROOT
HETATM    1  O           1     -35.023  -5.056 -15.285  0.00  0.00    -0.271 OA
HETATM    2  H           1     -32.498  -3.434 -14.371  0.00  0.00     0.163 HD
HETATM    3  N           1     -33.384  -3.915 -14.286  0.00  0.00    -0.345 N 
HETATM    4  C           1     -33.965  -4.483 -15.387  0.00  0.00     0.249 C 
ENDROOT
BRANCH   3   5
HETATM    5  C           1     -34.040  -4.003 -12.995  0.00  0.00     0.185 C 
BRANCH   5   6
HETATM    6  C           1     -34.561  -2.642 -12.603  0.00  0.00     0.196 C 
HETATM    7  O           1     -34.025  -2.015 -11.663  0.00  0.00    -0.646 OA
HETATM    8  O           1     -35.526  -2.140 -13.219  0.00  0.00    -0.646 OA
ENDBRANCH   5   6
BRANCH   5   9
HETATM    9  C           1     -33.041  -4.485 -11.951  0.00  0.00     0.038 C 
BRANCH   9  10
HETATM   10  C           1     -33.754  -5.370 -10.938  0.00  0.00     0.030 C 
BRANCH  10  11
HETATM   11  C           1     -34.823  -6.193 -11.644  0.00  0.00     0.230 C 
BRANCH  11  12
HETATM   12  N           1     -34.825  -7.589 -11.094  0.00  0.00    -0.079 N 
HETATM   13  H           1     -35.353  -7.607 -10.193  0.00  0.00     0.274 HD
HETATM   14  H           1     -35.283  -8.232 -11.779  0.00  0.00     0.274 HD
HETATM   15  H           1     -33.842  -7.900 -10.928  0.00  0.00     0.274 HD
ENDBRANCH  11  12
ENDBRANCH  10  11
ENDBRANCH   9  10
ENDBRANCH   5   9
ENDBRANCH   3   5
BRANCH   4  16
HETATM   16  C           1     -33.282  -4.391 -16.730  0.00  0.00     0.275 C 
BRANCH  16  17
HETATM   17  C           1     -31.797  -4.689 -16.567  0.00  0.00     0.053 C 
BRANCH  17  18
HETATM   18  C           1     -30.990  -3.749 -17.452  0.00  0.00     0.076 C 
BRANCH  18  19
HETATM   19  S           1     -29.512  -4.608 -18.062  0.00  0.00    -0.173 SA
HETATM   20  C           1     -28.333  -3.789 -16.951  0.00  0.00     0.089 C 
ENDBRANCH  18  19
ENDBRANCH  17  18
ENDBRANCH  16  17
BRANCH  16  21
HETATM   21  N           1     -33.455  -3.008 -17.286  0.00  0.00    -0.066 N 
HETATM   22  H           1     -32.925  -2.326 -16.697  0.00  0.00     0.275 HD
HETATM   23  H           1     -33.091  -2.980 -18.265  0.00  0.00     0.275 HD
HETATM   24  H           1     -34.470  -2.757 -17.282  0.00  0.00     0.275 HD
ENDBRANCH  16  21
ENDBRANCH   4  16
TORSDOF 11
ENDMDL
MODEL 5
REMARK VINA RESULT:      -5.6     10.634     12.135
REMARK  11 active torsions:
REMARK  status: ('A' for Active; 'I' for Inactive)
REMARK    1  A    between atoms: C_1  and  C_14 
REMARK    2  A    between atoms: C_1  and  C_24 
REMARK    3  A    between atoms: C_2  and  C_19 
REMARK    4  A    between atoms: N_6  and  C_14 
REMARK    5  A    between atoms: N_10  and  C_15 
REMARK    6  A    between atoms: C_12  and  C_16 
REMARK    7  A    between atoms: C_12  and  C_19 
REMARK    8  A    between atoms: N_13  and  C_19 
REMARK       I    between atoms: N_13  and  C_18 
REMARK    9  A    between atoms: C_14  and  C_18 
REMARK   10  A    between atoms: C_15  and  C_16 
REMARK   11  A    between atoms: S_23  and  C_24 
ROOT
HETATM    1  O           1     -24.664  -6.507 -18.340  0.00  0.00    -0.271 OA
HETATM    2  H           1     -27.789  -6.495 -18.619  0.00  0.00     0.163 HD
HETATM    3  N           1     -26.887  -6.360 -18.181  0.00  0.00    -0.345 N 
HETATM    4  C           1     -25.741  -6.669 -18.863  0.00  0.00     0.249 C 
ENDROOT
BRANCH   3   5
HETATM    5  C           1     -26.808  -5.838 -16.830  0.00  0.00     0.185 C 
BRANCH   5   6
HETATM    6  C           1     -26.880  -6.979 -15.846  0.00  0.00     0.196 C 
HETATM    7  O           1     -25.831  -7.436 -15.341  0.00  0.00    -0.646 OA
HETATM    8  O           1     -27.988  -7.467 -15.535  0.00  0.00    -0.646 OA
ENDBRANCH   5   6
BRANCH   5   9
HETATM    9  C           1     -27.969  -4.883 -16.587  0.00  0.00     0.038 C 
BRANCH   9  10
HETATM   10  C           1     -28.745  -4.688 -17.883  0.00  0.00     0.030 C 
BRANCH  10  11
HETATM   11  C           1     -30.218  -4.461 -17.564  0.00  0.00     0.230 C 
BRANCH  11  12
HETATM   12  N           1     -30.525  -2.995 -17.637  0.00  0.00    -0.079 N 
HETATM   13  H           1     -29.826  -2.464 -17.071  0.00  0.00     0.274 HD
HETATM   14  H           1     -30.480  -2.679 -18.633  0.00  0.00     0.274 HD
HETATM   15  H           1     -31.484  -2.820 -17.259  0.00  0.00     0.274 HD
ENDBRANCH  11  12
ENDBRANCH  10  11
ENDBRANCH   9  10
ENDBRANCH   5   9
ENDBRANCH   3   5
BRANCH   4  16
HETATM   16  C           1     -25.824  -7.212 -20.268  0.00  0.00     0.275 C 
BRANCH  16  17
HETATM   17  C           1     -24.458  -7.739 -20.691  0.00  0.00     0.053 C 
BRANCH  17  18
HETATM   18  C           1     -24.307  -7.605 -22.200  0.00  0.00     0.076 C 
BRANCH  18  19
HETATM   19  S           1     -22.860  -8.551 -22.751  0.00  0.00    -0.173 SA
HETATM   20  C           1     -22.057  -8.653 -21.127  0.00  0.00     0.089 C 
ENDBRANCH  18  19
ENDBRANCH  17  18
ENDBRANCH  16  17
BRANCH  16  21
HETATM   21  N           1     -26.247  -6.118 -21.203  0.00  0.00    -0.066 N 
HETATM   22  H           1     -26.602  -5.305 -20.652  0.00  0.00     0.275 HD
HETATM   23  H           1     -25.429  -5.818 -21.779  0.00  0.00     0.275 HD
HETATM   24  H           1     -27.005  -6.471 -21.831  0.00  0.00     0.275 HD
ENDBRANCH  16  21
ENDBRANCH   4  16
TORSDOF 11
ENDMDL
MODEL 6
REMARK VINA RESULT:      -5.3     10.301     11.680
REMARK  11 active torsions:
REMARK  status: ('A' for Active; 'I' for Inactive)
REMARK    1  A    between atoms: C_1  and  C_14 
REMARK    2  A    between atoms: C_1  and  C_24 
REMARK    3  A    between atoms: C_2  and  C_19 
REMARK    4  A    between atoms: N_6  and  C_14 
REMARK    5  A    between atoms: N_10  and  C_15 
REMARK    6  A    between atoms: C_12  and  C_16 
REMARK    7  A    between atoms: C_12  and  C_19 
REMARK    8  A    between atoms: N_13  and  C_19 
REMARK       I    between atoms: N_13  and  C_18 
REMARK    9  A    between atoms: C_14  and  C_18 
REMARK   10  A    between atoms: C_15  and  C_16 
REMARK   11  A    between atoms: S_23  and  C_24 
ROOT
HETATM    1  O           1     -27.422  -5.661 -20.369  0.00  0.00    -0.271 OA
HETATM    2  H           1     -27.439  -7.588 -17.894  0.00  0.00     0.163 HD
HETATM    3  N           1     -27.651  -6.763 -18.441  0.00  0.00    -0.345 N 
HETATM    4  C           1     -27.170  -6.645 -19.716  0.00  0.00     0.249 C 
ENDROOT
BRANCH   3   5
HETATM    5  C           1     -28.465  -5.706 -17.873  0.00  0.00     0.185 C 
BRANCH   5   6
HETATM    6  C           1     -27.619  -4.858 -16.956  0.00  0.00     0.196 C 
HETATM    7  O           1     -26.526  -5.294 -16.534  0.00  0.00    -0.646 OA
HETATM    8  O           1     -28.009  -3.719 -16.620  0.00  0.00    -0.646 OA
ENDBRANCH   5   6
BRANCH   5   9
HETATM    9  C           1     -29.613  -6.320 -17.082  0.00  0.00     0.038 C 
BRANCH   9  10
HETATM   10  C           1     -30.935  -5.755 -17.583  0.00  0.00     0.030 C 
BRANCH  10  11
HETATM   11  C           1     -31.358  -4.589 -16.699  0.00  0.00     0.230 C 
BRANCH  11  12
HETATM   12  N           1     -31.194  -3.303 -17.455  0.00  0.00    -0.079 N 
HETATM   13  H           1     -31.772  -3.334 -18.324  0.00  0.00     0.274 HD
HETATM   14  H           1     -31.506  -2.505 -16.855  0.00  0.00     0.274 HD
HETATM   15  H           1     -30.189  -3.174 -17.710  0.00  0.00     0.274 HD
ENDBRANCH  11  12
ENDBRANCH  10  11
ENDBRANCH   9  10
ENDBRANCH   5   9
ENDBRANCH   3   5
BRANCH   4  16
HETATM   16  C           1     -26.322  -7.746 -20.307  0.00  0.00     0.275 C 
BRANCH  16  17
HETATM   17  C           1     -25.194  -7.133 -21.128  0.00  0.00     0.053 C 
BRANCH  17  18
HETATM   18  C           1     -23.954  -8.011 -21.021  0.00  0.00     0.076 C 
BRANCH  18  19
HETATM   19  S           1     -23.233  -8.246 -22.669  0.00  0.00    -0.173 SA
HETATM   20  C           1     -21.737  -9.108 -22.112  0.00  0.00     0.089 C 
ENDBRANCH  18  19
ENDBRANCH  17  18
ENDBRANCH  16  17
BRANCH  16  21
HETATM   21  N           1     -27.171  -8.610 -21.192  0.00  0.00    -0.066 N 
HETATM   22  H           1     -27.722  -9.276 -20.605  0.00  0.00     0.275 HD
HETATM   23  H           1     -27.823  -8.007 -21.743  0.00  0.00     0.275 HD
HETATM   24  H           1     -26.556  -9.148 -21.845  0.00  0.00     0.275 HD
ENDBRANCH  16  21
ENDBRANCH   4  16
TORSDOF 11
ENDMDL
MODEL 7
REMARK VINA RESULT:      -5.1     14.365     17.222
REMARK  11 active torsions:
REMARK  status: ('A' for Active; 'I' for Inactive)
REMARK    1  A    between atoms: C_1  and  C_14 
REMARK    2  A    between atoms: C_1  and  C_24 
REMARK    3  A    between atoms: C_2  and  C_19 
REMARK    4  A    between atoms: N_6  and  C_14 
REMARK    5  A    between atoms: N_10  and  C_15 
REMARK    6  A    between atoms: C_12  and  C_16 
REMARK    7  A    between atoms: C_12  and  C_19 
REMARK    8  A    between atoms: N_13  and  C_19 
REMARK       I    between atoms: N_13  and  C_18 
REMARK    9  A    between atoms: C_14  and  C_18 
REMARK   10  A    between atoms: C_15  and  C_16 
REMARK   11  A    between atoms: S_23  and  C_24 
ROOT
HETATM    1  O           1     -20.128  -4.536  -5.818  0.00  0.00    -0.271 OA
HETATM    2  H           1     -22.156  -6.874  -6.329  0.00  0.00     0.163 HD
HETATM    3  N           1     -21.465  -6.324  -5.834  0.00  0.00    -0.345 N 
HETATM    4  C           1     -20.953  -5.192  -6.408  0.00  0.00     0.249 C 
ENDROOT
BRANCH   3   5
HETATM    5  C           1     -21.018  -6.735  -4.517  0.00  0.00     0.185 C 
BRANCH   5   6
HETATM    6  C           1     -20.380  -8.100  -4.607  0.00  0.00     0.196 C 
HETATM    7  O           1     -19.721  -8.545  -3.643  0.00  0.00    -0.646 OA
HETATM    8  O           1     -20.512  -8.785  -5.644  0.00  0.00    -0.646 OA
ENDBRANCH   5   6
BRANCH   5   9
HETATM    9  C           1     -22.212  -6.793  -3.573  0.00  0.00     0.038 C 
BRANCH   9  10
HETATM   10  C           1     -21.871  -6.065  -2.279  0.00  0.00     0.030 C 
BRANCH  10  11
HETATM   11  C           1     -22.194  -6.962  -1.091  0.00  0.00     0.230 C 
BRANCH  11  12
HETATM   12  N           1     -21.131  -8.011  -0.952  0.00  0.00    -0.079 N 
HETATM   13  H           1     -20.905  -8.145   0.059  0.00  0.00     0.274 HD
HETATM   14  H           1     -21.477  -8.912  -1.355  0.00  0.00     0.274 HD
HETATM   15  H           1     -20.272  -7.707  -1.464  0.00  0.00     0.274 HD
ENDBRANCH  11  12
ENDBRANCH  10  11
ENDBRANCH   9  10
ENDBRANCH   5   9
ENDBRANCH   3   5
BRANCH   4  16
HETATM   16  C           1     -21.418  -4.765  -7.779  0.00  0.00     0.275 C 
BRANCH  16  17
HETATM   17  C           1     -20.269  -4.091  -8.518  0.00  0.00     0.053 C 
BRANCH  17  18
HETATM   18  C           1     -20.137  -4.694  -9.910  0.00  0.00     0.076 C 
BRANCH  18  19
HETATM   19  S           1     -20.822  -3.546 -11.137  0.00  0.00    -0.173 SA
HETATM   20  C           1     -22.382  -4.437 -11.394  0.00  0.00     0.089 C 
ENDBRANCH  18  19
ENDBRANCH  17  18
ENDBRANCH  16  17
BRANCH  16  21
HETATM   21  N           1     -22.557  -3.799  -7.641  0.00  0.00    -0.066 N 
HETATM   22  H           1     -22.186  -2.823  -7.609  0.00  0.00     0.275 HD
HETATM   23  H           1     -23.199  -3.901  -8.459  0.00  0.00     0.275 HD
HETATM   24  H           1     -23.081  -4.002  -6.759  0.00  0.00     0.275 HD
ENDBRANCH  16  21
ENDBRANCH   4  16
TORSDOF 11
ENDMDL
MODEL 8
REMARK VINA RESULT:      -5.0      1.737      2.808
REMARK  11 active torsions:
REMARK  status: ('A' for Active; 'I' for Inactive)
REMARK    1  A    between atoms: C_1  and  C_14 
REMARK    2  A    between atoms: C_1  and  C_24 
REMARK    3  A    between atoms: C_2  and  C_19 
REMARK    4  A    between atoms: N_6  and  C_14 
REMARK    5  A    between atoms: N_10  and  C_15 
REMARK    6  A    between atoms: C_12  and  C_16 
REMARK    7  A    between atoms: C_12  and  C_19 
REMARK    8  A    between atoms: N_13  and  C_19 
REMARK       I    between atoms: N_13  and  C_18 
REMARK    9  A    between atoms: C_14  and  C_18 
REMARK   10  A    between atoms: C_15  and  C_16 
REMARK   11  A    between atoms: S_23  and  C_24 
ROOT
HETATM    1  O           1     -34.925   0.236 -12.128  0.00  0.00    -0.271 OA
HETATM    2  H           1     -35.484  -2.083 -14.165  0.00  0.00     0.163 HD
HETATM    3  N           1     -35.427  -1.134 -13.818  0.00  0.00    -0.345 N 
HETATM    4  C           1     -34.993  -0.897 -12.542  0.00  0.00     0.249 C 
ENDROOT
BRANCH   3   5
HETATM    5  C           1     -35.804  -0.026 -14.673  0.00  0.00     0.185 C 
BRANCH   5   6
HETATM    6  C           1     -37.303  -0.009 -14.842  0.00  0.00     0.196 C 
HETATM    7  O           1     -37.826   0.717 -15.715  0.00  0.00    -0.646 OA
HETATM    8  O           1     -38.023  -0.723 -14.110  0.00  0.00    -0.646 OA
ENDBRANCH   5   6
BRANCH   5   9
HETATM    9  C           1     -35.141  -0.188 -16.035  0.00  0.00     0.038 C 
BRANCH   9  10
HETATM   10  C           1     -35.607  -1.489 -16.674  0.00  0.00     0.030 C 
BRANCH  10  11
HETATM   11  C           1     -34.396  -2.322 -17.074  0.00  0.00     0.230 C 
BRANCH  11  12
HETATM   12  N           1     -34.298  -3.524 -16.182  0.00  0.00    -0.079 N 
HETATM   13  H           1     -35.121  -3.548 -15.540  0.00  0.00     0.274 HD
HETATM   14  H           1     -34.286  -4.391 -16.767  0.00  0.00     0.274 HD
HETATM   15  H           1     -33.419  -3.470 -15.620  0.00  0.00     0.274 HD
ENDBRANCH  11  12
ENDBRANCH  10  11
ENDBRANCH   9  10
ENDBRANCH   5   9
ENDBRANCH   3   5
BRANCH   4  16
HETATM   16  C           1     -34.601  -2.051 -11.652  0.00  0.00     0.275 C 
BRANCH  16  17
HETATM   17  C           1     -34.169  -3.232 -12.512  0.00  0.00     0.053 C 
BRANCH  17  18
HETATM   18  C           1     -34.806  -4.508 -11.978  0.00  0.00     0.076 C 
BRANCH  18  19
HETATM   19  S           1     -33.545  -5.515 -11.148  0.00  0.00    -0.173 SA
HETATM   20  C           1     -34.703  -6.570 -10.232  0.00  0.00     0.089 C 
ENDBRANCH  18  19
ENDBRANCH  17  18
ENDBRANCH  16  17
BRANCH  16  21
HETATM   21  N           1     -35.774  -2.451 -10.807  0.00  0.00    -0.066 N 
HETATM   22  H           1     -36.022  -1.669 -10.160  0.00  0.00     0.275 HD
HETATM   23  H           1     -36.589  -2.666 -11.424  0.00  0.00     0.275 HD
HETATM   24  H           1     -35.526  -3.299 -10.248  0.00  0.00     0.275 HD
ENDBRANCH  16  21
ENDBRANCH   4  16
TORSDOF 11
ENDMDL
MODEL 9
REMARK VINA RESULT:      -5.0     14.510     17.418
REMARK  11 active torsions:
REMARK  status: ('A' for Active; 'I' for Inactive)
REMARK    1  A    between atoms: C_1  and  C_14 
REMARK    2  A    between atoms: C_1  and  C_24 
REMARK    3  A    between atoms: C_2  and  C_19 
REMARK    4  A    between atoms: N_6  and  C_14 
REMARK    5  A    between atoms: N_10  and  C_15 
REMARK    6  A    between atoms: C_12  and  C_16 
REMARK    7  A    between atoms: C_12  and  C_19 
REMARK    8  A    between atoms: N_13  and  C_19 
REMARK       I    between atoms: N_13  and  C_18 
REMARK    9  A    between atoms: C_14  and  C_18 
REMARK   10  A    between atoms: C_15  and  C_16 
REMARK   11  A    between atoms: S_23  and  C_24 
ROOT
HETATM    1  O           1     -22.625  -5.476  -5.850  0.00  0.00    -0.271 OA
HETATM    2  H           1     -19.795  -6.292  -4.768  0.00  0.00     0.163 HD
HETATM    3  N           1     -20.801  -6.317  -4.873  0.00  0.00    -0.345 N 
HETATM    4  C           1     -21.423  -5.446  -5.726  0.00  0.00     0.249 C 
ENDROOT
BRANCH   3   5
HETATM    5  C           1     -21.584  -7.276  -4.118  0.00  0.00     0.185 C 
BRANCH   5   6
HETATM    6  C           1     -21.652  -6.844  -2.674  0.00  0.00     0.196 C 
HETATM    7  O           1     -22.430  -5.927  -2.332  0.00  0.00    -0.646 OA
HETATM    8  O           1     -20.931  -7.403  -1.820  0.00  0.00    -0.646 OA
ENDBRANCH   5   6
BRANCH   5   9
HETATM    9  C           1     -20.929  -8.648  -4.208  0.00  0.00     0.038 C 
BRANCH   9  10
HETATM   10  C           1     -19.601  -8.529  -4.944  0.00  0.00     0.030 C 
BRANCH  10  11
HETATM   11  C           1     -18.539  -9.341  -4.213  0.00  0.00     0.230 C 
BRANCH  11  12
HETATM   12  N           1     -18.740  -9.210  -2.732  0.00  0.00    -0.079 N 
HETATM   13  H           1     -17.861  -8.860  -2.291  0.00  0.00     0.274 HD
HETATM   14  H           1     -19.518  -8.536  -2.545  0.00  0.00     0.274 HD
HETATM   15  H           1     -18.984 -10.143  -2.330  0.00  0.00     0.274 HD
ENDBRANCH  11  12
ENDBRANCH  10  11
ENDBRANCH   9  10
ENDBRANCH   5   9
ENDBRANCH   3   5
BRANCH   4  16
HETATM   16  C           1     -20.608  -4.448  -6.511  0.00  0.00     0.275 C 
BRANCH  16  17
HETATM   17  C           1     -21.482  -3.807  -7.582  0.00  0.00     0.053 C 
BRANCH  17  18
HETATM   18  C           1     -20.965  -4.197  -8.960  0.00  0.00     0.076 C 
BRANCH  18  19
HETATM   19  S           1     -22.326  -4.140 -10.158  0.00  0.00    -0.173 SA
HETATM   20  C           1     -23.660  -3.985  -8.937  0.00  0.00     0.089 C 
ENDBRANCH  18  19
ENDBRANCH  17  18
ENDBRANCH  16  17
BRANCH  16  21
HETATM   21  N           1     -19.453  -5.149  -7.163  0.00  0.00    -0.066 N 
HETATM   22  H           1     -19.306  -6.078  -6.709  0.00  0.00     0.275 HD
HETATM   23  H           1     -19.659  -5.286  -8.179  0.00  0.00     0.275 HD
HETATM   24  H           1     -18.590  -4.569  -7.058  0.00  0.00     0.275 HD
ENDBRANCH  16  21
ENDBRANCH   4  16
TORSDOF 11
ENDMDL
