MODEL 1
REMARK VINA RESULT:      -6.2      0.000      0.000
REMARK  12 active torsions:
REMARK  status: ('A' for Active; 'I' for Inactive)
REMARK    1  A    between atoms: C_3  and  C_23 
REMARK    2  A    between atoms: C_3  and  S_21 
REMARK    3  A    between atoms: C_6  and  C_15 
REMARK    4  A    between atoms: C_6  and  C_9 
REMARK    5  A    between atoms: C_6  and  N_10 
REMARK       I    between atoms: N_10  and  C_13 
REMARK    6  A    between atoms: C_13  and  C_14 
REMARK    7  A    between atoms: C_14  and  C_23 
REMARK    8  A    between atoms: C_14  and  N_25 
REMARK    9  A    between atoms: C_15  and  C_19 
REMARK   10  A    between atoms: N_16  and  C_17 
REMARK   11  A    between atoms: C_17  and  C_18 
REMARK   12  A    between atoms: C_18  and  C_19 
ROOT
HETATM    1  H           1     -32.466  -3.555 -14.330  0.00  0.00     0.163 HD
HETATM    2  N           1     -33.373  -3.997 -14.272  0.00  0.00    -0.345 N 
HETATM    3  C           1     -33.948  -4.531 -15.395  0.00  0.00     0.249 C 
HETATM    4  O           1     -35.031  -5.060 -15.326  0.00  0.00    -0.271 OA
ENDROOT
BRANCH   2   5
HETATM    5  C           1     -34.066  -4.069 -13.000  0.00  0.00     0.185 C 
BRANCH   5   6
HETATM    6  C           1     -33.063  -4.358 -11.892  0.00  0.00     0.036 C 
BRANCH   6   7
HETATM    7  C           1     -33.348  -5.728 -11.292  0.00  0.00     0.004 C 
BRANCH   7   8
HETATM    8  C           1     -34.607  -5.656 -10.437  0.00  0.00     0.027 C 
BRANCH   8   9
HETATM    9  C           1     -34.861  -7.011  -9.789  0.00  0.00     0.229 C 
BRANCH   9  10
HETATM   10  N           1     -34.442  -8.101 -10.731  0.00  0.00    -0.079 N 
HETATM   11  H           1     -34.063  -7.677 -11.608  0.00  0.00     0.274 HD
HETATM   12  H           1     -35.267  -8.699 -10.960  0.00  0.00     0.274 HD
HETATM   13  H           1     -33.703  -8.687 -10.280  0.00  0.00     0.274 HD
ENDBRANCH   9  10
ENDBRANCH   8   9
ENDBRANCH   7   8
ENDBRANCH   6   7
ENDBRANCH   5   6
BRANCH   5  14
HETATM   14  C           1     -34.754  -2.754 -12.728  0.00  0.00     0.196 C 
HETATM   15  O           1     -34.960  -1.951 -13.663  0.00  0.00    -0.646 OA
HETATM   16  O           1     -35.118  -2.468 -11.567  0.00  0.00    -0.646 OA
ENDBRANCH   5  14
ENDBRANCH   2   5
BRANCH   3  17
HETATM   17  C           1     -33.227  -4.456 -16.718  0.00  0.00     0.275 C 
BRANCH  17  18
HETATM   18  C           1     -31.735  -4.661 -16.496  0.00  0.00     0.053 C 
BRANCH  18  19
HETATM   19  C           1     -30.951  -3.743 -17.425  0.00  0.00     0.076 C 
BRANCH  19  20
HETATM   20  S           1     -29.523  -4.638 -18.099  0.00  0.00    -0.173 SA
HETATM   21  C           1     -28.307  -3.993 -16.916  0.00  0.00     0.089 C 
ENDBRANCH  19  20
ENDBRANCH  18  19
ENDBRANCH  17  18
BRANCH  17  22
HETATM   22  N           1     -33.459  -3.109 -17.338  0.00  0.00    -0.066 N 
HETATM   23  H           1     -34.284  -3.157 -17.975  0.00  0.00     0.275 HD
HETATM   24  H           1     -32.612  -2.826 -17.882  0.00  0.00     0.275 HD
HETATM   25  H           1     -33.639  -2.406 -16.586  0.00  0.00     0.275 HD
ENDBRANCH  17  22
ENDBRANCH   3  17
TORSDOF 12
ENDMDL
MODEL 2
REMARK VINA RESULT:      -6.2      4.417      6.679
REMARK  12 active torsions:
REMARK  status: ('A' for Active; 'I' for Inactive)
REMARK    1  A    between atoms: C_3  and  C_23 
REMARK    2  A    between atoms: C_3  and  S_21 
REMARK    3  A    between atoms: C_6  and  C_15 
REMARK    4  A    between atoms: C_6  and  C_9 
REMARK    5  A    between atoms: C_6  and  N_10 
REMARK       I    between atoms: N_10  and  C_13 
REMARK    6  A    between atoms: C_13  and  C_14 
REMARK    7  A    between atoms: C_14  and  C_23 
REMARK    8  A    between atoms: C_14  and  N_25 
REMARK    9  A    between atoms: C_15  and  C_19 
REMARK   10  A    between atoms: N_16  and  C_17 
REMARK   11  A    between atoms: C_17  and  C_18 
REMARK   12  A    between atoms: C_18  and  C_19 
ROOT
HETATM    1  H           1     -36.182  -2.435 -12.708  0.00  0.00     0.163 HD
HETATM    2  N           1     -35.509  -1.919 -12.156  0.00  0.00    -0.345 N 
HETATM    3  C           1     -34.415  -2.559 -11.638  0.00  0.00     0.249 C 
HETATM    4  O           1     -33.611  -1.943 -10.980  0.00  0.00    -0.271 OA
ENDROOT
BRANCH   2   5
HETATM    5  C           1     -35.702  -0.502 -11.916  0.00  0.00     0.185 C 
BRANCH   5   6
HETATM    6  C           1     -36.152   0.174 -13.204  0.00  0.00     0.036 C 
BRANCH   6   7
HETATM    7  C           1     -34.965   0.877 -13.850  0.00  0.00     0.004 C 
BRANCH   7   8
HETATM    8  C           1     -35.001   0.655 -15.356  0.00  0.00     0.027 C 
BRANCH   8   9
HETATM    9  C           1     -35.738  -0.644 -15.661  0.00  0.00     0.229 C 
BRANCH   9  10
HETATM   10  N           1     -36.270  -0.599 -17.063  0.00  0.00    -0.079 N 
HETATM   11  H           1     -36.777   0.303 -17.214  0.00  0.00     0.274 HD
HETATM   12  H           1     -36.926  -1.398 -17.211  0.00  0.00     0.274 HD
HETATM   13  H           1     -35.477  -0.671 -17.740  0.00  0.00     0.274 HD
ENDBRANCH   9  10
ENDBRANCH   8   9
ENDBRANCH   7   8
ENDBRANCH   6   7
ENDBRANCH   5   6
BRANCH   5  14
HETATM   14  C           1     -36.754  -0.311 -10.852  0.00  0.00     0.196 C 
HETATM   15  O           1     -36.547   0.473  -9.901  0.00  0.00    -0.646 OA
HETATM   16  O           1     -37.833  -0.937 -10.920  0.00  0.00    -0.646 OA
ENDBRANCH   5  14
ENDBRANCH   2   5
BRANCH   3  17
HETATM   17  C           1     -34.215  -4.033 -11.888  0.00  0.00     0.275 C 
BRANCH  17  18
HETATM   18  C           1     -34.075  -4.760 -10.558  0.00  0.00     0.053 C 
BRANCH  18  19
HETATM   19  C           1     -33.770  -6.230 -10.811  0.00  0.00     0.076 C 
BRANCH  19  20
HETATM   20  S           1     -34.929  -7.262  -9.870  0.00  0.00    -0.173 SA
HETATM   21  C           1     -33.900  -8.757  -9.858  0.00  0.00     0.089 C 
ENDBRANCH  19  20
ENDBRANCH  18  19
ENDBRANCH  17  18
BRANCH  17  22
HETATM   22  N           1     -32.971  -4.237 -12.701  0.00  0.00    -0.066 N 
HETATM   23  H           1     -32.169  -4.444 -12.066  0.00  0.00     0.275 HD
HETATM   24  H           1     -32.767  -3.370 -13.250  0.00  0.00     0.275 HD
HETATM   25  H           1     -33.110  -5.038 -13.358  0.00  0.00     0.275 HD
ENDBRANCH  17  22
ENDBRANCH   3  17
TORSDOF 12
ENDMDL
MODEL 3
REMARK VINA RESULT:      -5.9      3.971      5.443
REMARK  12 active torsions:
REMARK  status: ('A' for Active; 'I' for Inactive)
REMARK    1  A    between atoms: C_3  and  C_23 
REMARK    2  A    between atoms: C_3  and  S_21 
REMARK    3  A    between atoms: C_6  and  C_15 
REMARK    4  A    between atoms: C_6  and  C_9 
REMARK    5  A    between atoms: C_6  and  N_10 
REMARK       I    between atoms: N_10  and  C_13 
REMARK    6  A    between atoms: C_13  and  C_14 
REMARK    7  A    between atoms: C_14  and  C_23 
REMARK    8  A    between atoms: C_14  and  N_25 
REMARK    9  A    between atoms: C_15  and  C_19 
REMARK   10  A    between atoms: N_16  and  C_17 
REMARK   11  A    between atoms: C_17  and  C_18 
REMARK   12  A    between atoms: C_18  and  C_19 
ROOT
HETATM    1  H           1     -36.211  -3.139 -12.122  0.00  0.00     0.163 HD
HETATM    2  N           1     -35.474  -2.943 -11.458  0.00  0.00    -0.345 N 
HETATM    3  C           1     -35.430  -1.732 -10.820  0.00  0.00     0.249 C 
HETATM    4  O           1     -34.551  -1.498 -10.026  0.00  0.00    -0.271 OA
ENDROOT
BRANCH   2   5
HETATM    5  C           1     -34.463  -3.945 -11.179  0.00  0.00     0.185 C 
BRANCH   5   6
HETATM    6  C           1     -35.117  -5.318 -11.108  0.00  0.00     0.036 C 
BRANCH   6   7
HETATM    7  C           1     -34.191  -6.284 -10.381  0.00  0.00     0.004 C 
BRANCH   7   8
HETATM    8  C           1     -34.920  -7.598 -10.134  0.00  0.00     0.027 C 
BRANCH   8   9
HETATM    9  C           1     -33.967  -8.595  -9.486  0.00  0.00     0.229 C 
BRANCH   9  10
HETATM   10  N           1     -33.428  -9.524 -10.532  0.00  0.00    -0.079 N 
HETATM   11  H           1     -32.709  -9.025 -11.104  0.00  0.00     0.274 HD
HETATM   12  H           1     -34.207  -9.842 -11.150  0.00  0.00     0.274 HD
HETATM   13  H           1     -32.990 -10.353 -10.070  0.00  0.00     0.274 HD
ENDBRANCH   9  10
ENDBRANCH   8   9
ENDBRANCH   7   8
ENDBRANCH   6   7
ENDBRANCH   5   6
BRANCH   5  14
HETATM   14  C           1     -33.429  -3.935 -12.278  0.00  0.00     0.196 C 
HETATM   15  O           1     -32.223  -4.116 -12.003  0.00  0.00    -0.646 OA
HETATM   16  O           1     -33.778  -3.746 -13.463  0.00  0.00    -0.646 OA
ENDBRANCH   5  14
ENDBRANCH   2   5
BRANCH   3  17
HETATM   17  C           1     -36.482  -0.689 -11.110  0.00  0.00     0.275 C 
BRANCH  17  18
HETATM   18  C           1     -36.431  -0.312 -12.583  0.00  0.00     0.053 C 
BRANCH  18  19
HETATM   19  C           1     -35.089   0.333 -12.897  0.00  0.00     0.076 C 
BRANCH  19  20
HETATM   20  S           1     -35.084   0.922 -14.614  0.00  0.00    -0.173 SA
HETATM   21  C           1     -36.631   0.110 -15.107  0.00  0.00     0.089 C 
ENDBRANCH  19  20
ENDBRANCH  18  19
ENDBRANCH  17  18
BRANCH  17  22
HETATM   22  N           1     -36.221   0.528 -10.273  0.00  0.00    -0.066 N 
HETATM   23  H           1     -35.929   0.237  -9.314  0.00  0.00     0.275 HD
HETATM   24  H           1     -37.092   1.104 -10.214  0.00  0.00     0.275 HD
HETATM   25  H           1     -35.460   1.096 -10.711  0.00  0.00     0.275 HD
ENDBRANCH  17  22
ENDBRANCH   3  17
TORSDOF 12
ENDMDL
MODEL 4
REMARK VINA RESULT:      -5.6      3.957      4.843
REMARK  12 active torsions:
REMARK  status: ('A' for Active; 'I' for Inactive)
REMARK    1  A    between atoms: C_3  and  C_23 
REMARK    2  A    between atoms: C_3  and  S_21 
REMARK    3  A    between atoms: C_6  and  C_15 
REMARK    4  A    between atoms: C_6  and  C_9 
REMARK    5  A    between atoms: C_6  and  N_10 
REMARK       I    between atoms: N_10  and  C_13 
REMARK    6  A    between atoms: C_13  and  C_14 
REMARK    7  A    between atoms: C_14  and  C_23 
REMARK    8  A    between atoms: C_14  and  N_25 
REMARK    9  A    between atoms: C_15  and  C_19 
REMARK   10  A    between atoms: N_16  and  C_17 
REMARK   11  A    between atoms: C_17  and  C_18 
REMARK   12  A    between atoms: C_18  and  C_19 
ROOT
HETATM    1  H           1     -34.804  -2.257 -13.422  0.00  0.00     0.163 HD
HETATM    2  N           1     -35.248  -2.182 -12.517  0.00  0.00    -0.345 N 
HETATM    3  C           1     -36.274  -1.295 -12.329  0.00  0.00     0.249 C 
HETATM    4  O           1     -36.805  -1.205 -11.248  0.00  0.00    -0.271 OA
ENDROOT
BRANCH   2   5
HETATM    5  C           1     -34.799  -3.013 -11.417  0.00  0.00     0.185 C 
BRANCH   5   6
HETATM    6  C           1     -34.886  -4.479 -11.821  0.00  0.00     0.036 C 
BRANCH   6   7
HETATM    7  C           1     -34.965  -5.346 -10.572  0.00  0.00     0.004 C 
BRANCH   7   8
HETATM    8  C           1     -33.990  -6.510 -10.698  0.00  0.00     0.027 C 
BRANCH   8   9
HETATM    9  C           1     -34.611  -7.762 -10.092  0.00  0.00     0.229 C 
BRANCH   9  10
HETATM   10  N           1     -33.635  -8.897 -10.182  0.00  0.00    -0.079 N 
HETATM   11  H           1     -33.843  -9.469 -11.032  0.00  0.00     0.274 HD
HETATM   12  H           1     -33.719  -9.496  -9.330  0.00  0.00     0.274 HD
HETATM   13  H           1     -32.664  -8.518 -10.246  0.00  0.00     0.274 HD
ENDBRANCH   9  10
ENDBRANCH   8   9
ENDBRANCH   7   8
ENDBRANCH   6   7
ENDBRANCH   5   6
BRANCH   5  14
HETATM   14  C           1     -33.370  -2.668 -11.076  0.00  0.00     0.196 C 
HETATM   15  O           1     -33.119  -1.664 -10.375  0.00  0.00    -0.646 OA
HETATM   16  O           1     -32.437  -3.386 -11.496  0.00  0.00    -0.646 OA
ENDBRANCH   5  14
ENDBRANCH   2   5
BRANCH   3  17
HETATM   17  C           1     -36.741  -0.430 -13.474  0.00  0.00     0.275 C 
BRANCH  17  18
HETATM   18  C           1     -35.654   0.576 -13.827  0.00  0.00     0.053 C 
BRANCH  18  19
HETATM   19  C           1     -35.628   0.788 -15.334  0.00  0.00     0.076 C 
BRANCH  19  20
HETATM   20  S           1     -36.614  -0.501 -16.147  0.00  0.00    -0.173 SA
HETATM   21  C           1     -35.213  -1.549 -16.631  0.00  0.00     0.089 C 
ENDBRANCH  19  20
ENDBRANCH  18  19
ENDBRANCH  17  18
BRANCH  17  22
HETATM   22  N           1     -37.986   0.303 -13.069  0.00  0.00    -0.066 N 
HETATM   23  H           1     -37.862   0.700 -12.112  0.00  0.00     0.275 HD
HETATM   24  H           1     -38.796  -0.359 -13.070  0.00  0.00     0.275 HD
HETATM   25  H           1     -38.171   1.078 -13.746  0.00  0.00     0.275 HD
ENDBRANCH  17  22
ENDBRANCH   3  17
TORSDOF 12
ENDMDL
MODEL 5
REMARK VINA RESULT:      -5.6     14.112     16.003
REMARK  12 active torsions:
REMARK  status: ('A' for Active; 'I' for Inactive)
REMARK    1  A    between atoms: C_3  and  C_23 
REMARK    2  A    between atoms: C_3  and  S_21 
REMARK    3  A    between atoms: C_6  and  C_15 
REMARK    4  A    between atoms: C_6  and  C_9 
REMARK    5  A    between atoms: C_6  and  N_10 
REMARK       I    between atoms: N_10  and  C_13 
REMARK    6  A    between atoms: C_13  and  C_14 
REMARK    7  A    between atoms: C_14  and  C_23 
REMARK    8  A    between atoms: C_14  and  N_25 
REMARK    9  A    between atoms: C_15  and  C_19 
REMARK   10  A    between atoms: N_16  and  C_17 
REMARK   11  A    between atoms: C_17  and  C_18 
REMARK   12  A    between atoms: C_18  and  C_19 
ROOT
HETATM    1  H           1     -20.810  -4.668  -4.669  0.00  0.00     0.163 HD
HETATM    2  N           1     -21.178  -5.479  -5.149  0.00  0.00    -0.345 N 
HETATM    3  C           1     -21.525  -6.596  -4.437  0.00  0.00     0.249 C 
HETATM    4  O           1     -21.965  -7.565  -5.010  0.00  0.00    -0.271 OA
ENDROOT
BRANCH   2   5
HETATM    5  C           1     -21.337  -5.460  -6.590  0.00  0.00     0.185 C 
BRANCH   5   6
HETATM    6  C           1     -21.892  -4.108  -7.020  0.00  0.00     0.036 C 
BRANCH   6   7
HETATM    7  C           1     -23.193  -4.313  -7.785  0.00  0.00     0.004 C 
BRANCH   7   8
HETATM    8  C           1     -22.921  -4.239  -9.281  0.00  0.00     0.027 C 
BRANCH   8   9
HETATM    9  C           1     -24.022  -3.435  -9.959  0.00  0.00     0.229 C 
BRANCH   9  10
HETATM   10  N           1     -25.359  -3.999  -9.580  0.00  0.00    -0.079 N 
HETATM   11  H           1     -25.627  -3.653  -8.631  0.00  0.00     0.274 HD
HETATM   12  H           1     -25.306  -5.042  -9.569  0.00  0.00     0.274 HD
HETATM   13  H           1     -26.077  -3.696 -10.277  0.00  0.00     0.274 HD
ENDBRANCH   9  10
ENDBRANCH   8   9
ENDBRANCH   7   8
ENDBRANCH   6   7
ENDBRANCH   5   6
BRANCH   5  14
HETATM   14  C           1     -19.998  -5.687  -7.247  0.00  0.00     0.196 C 
HETATM   15  O           1     -19.453  -4.764  -7.891  0.00  0.00    -0.646 OA
HETATM   16  O           1     -19.434  -6.798  -7.149  0.00  0.00    -0.646 OA
ENDBRANCH   5  14
ENDBRANCH   2   5
BRANCH   3  17
HETATM   17  C           1     -21.359  -6.617  -2.938  0.00  0.00     0.275 C 
BRANCH  17  18
HETATM   18  C           1     -21.421  -8.054  -2.439  0.00  0.00     0.053 C 
BRANCH  18  19
HETATM   19  C           1     -20.823  -8.134  -1.042  0.00  0.00     0.076 C 
BRANCH  19  20
HETATM   20  S           1     -21.780  -9.304  -0.037  0.00  0.00    -0.173 SA
HETATM   21  C           1     -23.085  -8.136   0.440  0.00  0.00     0.089 C 
ENDBRANCH  19  20
ENDBRANCH  18  19
ENDBRANCH  17  18
BRANCH  17  22
HETATM   22  N           1     -22.461  -5.821  -2.303  0.00  0.00    -0.066 N 
HETATM   23  H           1     -22.546  -4.898  -2.784  0.00  0.00     0.275 HD
HETATM   24  H           1     -22.243  -5.669  -1.292  0.00  0.00     0.275 HD
HETATM   25  H           1     -23.363  -6.342  -2.389  0.00  0.00     0.275 HD
ENDBRANCH  17  22
ENDBRANCH   3  17
TORSDOF 12
ENDMDL
MODEL 6
REMARK VINA RESULT:      -5.4     13.977     15.102
REMARK  12 active torsions:
REMARK  status: ('A' for Active; 'I' for Inactive)
REMARK    1  A    between atoms: C_3  and  C_23 
REMARK    2  A    between atoms: C_3  and  S_21 
REMARK    3  A    between atoms: C_6  and  C_15 
REMARK    4  A    between atoms: C_6  and  C_9 
REMARK    5  A    between atoms: C_6  and  N_10 
REMARK       I    between atoms: N_10  and  C_13 
REMARK    6  A    between atoms: C_13  and  C_14 
REMARK    7  A    between atoms: C_14  and  C_23 
REMARK    8  A    between atoms: C_14  and  N_25 
REMARK    9  A    between atoms: C_15  and  C_19 
REMARK   10  A    between atoms: N_16  and  C_17 
REMARK   11  A    between atoms: C_17  and  C_18 
REMARK   12  A    between atoms: C_18  and  C_19 
ROOT
HETATM    1  H           1     -22.127  -6.199  -6.395  0.00  0.00     0.163 HD
HETATM    2  N           1     -21.391  -5.901  -5.769  0.00  0.00    -0.345 N 
HETATM    3  C           1     -20.663  -4.777  -6.052  0.00  0.00     0.249 C 
HETATM    4  O           1     -19.785  -4.421  -5.304  0.00  0.00    -0.271 OA
ENDROOT
BRANCH   2   5
HETATM    5  C           1     -21.107  -6.665  -4.569  0.00  0.00     0.185 C 
BRANCH   5   6
HETATM    6  C           1     -22.266  -6.523  -3.592  0.00  0.00     0.036 C 
BRANCH   6   7
HETATM    7  C           1     -21.741  -6.036  -2.248  0.00  0.00     0.004 C 
BRANCH   7   8
HETATM    8  C           1     -22.311  -6.905  -1.134  0.00  0.00     0.027 C 
BRANCH   8   9
HETATM    9  C           1     -21.338  -8.036  -0.824  0.00  0.00     0.229 C 
BRANCH   9  10
HETATM   10  N           1     -21.872  -9.322  -1.381  0.00  0.00    -0.079 N 
HETATM   11  H           1     -21.605  -9.402  -2.389  0.00  0.00     0.274 HD
HETATM   12  H           1     -22.913  -9.333  -1.295  0.00  0.00     0.274 HD
HETATM   13  H           1     -21.470 -10.126  -0.849  0.00  0.00     0.274 HD
ENDBRANCH   9  10
ENDBRANCH   8   9
ENDBRANCH   7   8
ENDBRANCH   6   7
ENDBRANCH   5   6
BRANCH   5  14
HETATM   14  C           1     -20.925  -8.118  -4.929  0.00  0.00     0.196 C 
HETATM   15  O           1     -21.670  -8.986  -4.422  0.00  0.00    -0.646 OA
HETATM   16  O           1     -20.031  -8.457  -5.733  0.00  0.00    -0.646 OA
ENDBRANCH   5  14
ENDBRANCH   2   5
BRANCH   3  17
HETATM   17  C           1     -20.959  -3.983  -7.301  0.00  0.00     0.275 C 
BRANCH  17  18
HETATM   18  C           1     -22.064  -4.670  -8.091  0.00  0.00     0.053 C 
BRANCH  18  19
HETATM   19  C           1     -22.705  -3.672  -9.044  0.00  0.00     0.076 C 
BRANCH  19  20
HETATM   20  S           1     -22.743  -4.369 -10.719  0.00  0.00    -0.173 SA
HETATM   21  C           1     -21.356  -3.397 -11.372  0.00  0.00     0.089 C 
ENDBRANCH  19  20
ENDBRANCH  18  19
ENDBRANCH  17  18
BRANCH  17  22
HETATM   22  N           1     -19.721  -3.899  -8.144  0.00  0.00    -0.066 N 
HETATM   23  H           1     -19.805  -3.099  -8.809  0.00  0.00     0.275 HD
HETATM   24  H           1     -19.604  -4.789  -8.681  0.00  0.00     0.275 HD
HETATM   25  H           1     -18.888  -3.755  -7.529  0.00  0.00     0.275 HD
ENDBRANCH  17  22
ENDBRANCH   3  17
TORSDOF 12
ENDMDL
MODEL 7
REMARK VINA RESULT:      -5.3      4.268      5.401
REMARK  12 active torsions:
REMARK  status: ('A' for Active; 'I' for Inactive)
REMARK    1  A    between atoms: C_3  and  C_23 
REMARK    2  A    between atoms: C_3  and  S_21 
REMARK    3  A    between atoms: C_6  and  C_15 
REMARK    4  A    between atoms: C_6  and  C_9 
REMARK    5  A    between atoms: C_6  and  N_10 
REMARK       I    between atoms: N_10  and  C_13 
REMARK    6  A    between atoms: C_13  and  C_14 
REMARK    7  A    between atoms: C_14  and  C_23 
REMARK    8  A    between atoms: C_14  and  N_25 
REMARK    9  A    between atoms: C_15  and  C_19 
REMARK   10  A    between atoms: N_16  and  C_17 
REMARK   11  A    between atoms: C_17  and  C_18 
REMARK   12  A    between atoms: C_18  and  C_19 
ROOT
HETATM    1  H           1     -34.461  -0.026 -11.488  0.00  0.00     0.163 HD
HETATM    2  N           1     -35.380  -0.423 -11.629  0.00  0.00    -0.345 N 
HETATM    3  C           1     -36.120  -0.066 -12.725  0.00  0.00     0.249 C 
HETATM    4  O           1     -37.217  -0.541 -12.894  0.00  0.00    -0.271 OA
ENDROOT
BRANCH   2   5
HETATM    5  C           1     -35.915  -1.371 -10.672  0.00  0.00     0.185 C 
BRANCH   5   6
HETATM    6  C           1     -34.795  -2.273 -10.171  0.00  0.00     0.036 C 
BRANCH   6   7
HETATM    7  C           1     -33.584  -2.134 -11.084  0.00  0.00     0.004 C 
BRANCH   7   8
HETATM    8  C           1     -33.024  -3.515 -11.398  0.00  0.00     0.027 C 
BRANCH   8   9
HETATM    9  C           1     -33.884  -4.578 -10.727  0.00  0.00     0.229 C 
BRANCH   9  10
HETATM   10  N           1     -33.917  -5.809 -11.583  0.00  0.00    -0.079 N 
HETATM   11  H           1     -34.909  -6.111 -11.721  0.00  0.00     0.274 HD
HETATM   12  H           1     -33.382  -6.574 -11.114  0.00  0.00     0.274 HD
HETATM   13  H           1     -33.484  -5.601 -12.511  0.00  0.00     0.274 HD
ENDBRANCH   9  10
ENDBRANCH   8   9
ENDBRANCH   7   8
ENDBRANCH   6   7
ENDBRANCH   5   6
BRANCH   5  14
HETATM   14  C           1     -36.520  -0.625  -9.509  0.00  0.00     0.196 C 
HETATM   15  O           1     -37.761  -0.489  -9.430  0.00  0.00    -0.646 OA
HETATM   16  O           1     -35.782  -0.141  -8.624  0.00  0.00    -0.646 OA
ENDBRANCH   5  14
ENDBRANCH   2   5
BRANCH   3  17
HETATM   17  C           1     -35.563   0.921 -13.722  0.00  0.00     0.275 C 
BRANCH  17  18
HETATM   18  C           1     -36.169   0.655 -15.093  0.00  0.00     0.053 C 
BRANCH  18  19
HETATM   19  C           1     -35.304  -0.346 -15.846  0.00  0.00     0.076 C 
BRANCH  19  20
HETATM   20  S           1     -36.347  -1.345 -16.944  0.00  0.00    -0.173 SA
HETATM   21  C           1     -37.938  -0.769 -16.287  0.00  0.00     0.089 C 
ENDBRANCH  19  20
ENDBRANCH  18  19
ENDBRANCH  17  18
BRANCH  17  22
HETATM   22  N           1     -34.072   0.767 -13.796  0.00  0.00    -0.066 N 
HETATM   23  H           1     -33.614   1.577 -13.322  0.00  0.00     0.275 HD
HETATM   24  H           1     -33.775   0.735 -14.798  0.00  0.00     0.275 HD
HETATM   25  H           1     -33.789  -0.119 -13.322  0.00  0.00     0.275 HD
ENDBRANCH  17  22
ENDBRANCH   3  17
TORSDOF 12
ENDMDL
MODEL 8
REMARK VINA RESULT:      -5.2     14.246     15.395
REMARK  12 active torsions:
REMARK  status: ('A' for Active; 'I' for Inactive)
REMARK    1  A    between atoms: C_3  and  C_23 
REMARK    2  A    between atoms: C_3  and  S_21 
REMARK    3  A    between atoms: C_6  and  C_15 
REMARK    4  A    between atoms: C_6  and  C_9 
REMARK    5  A    between atoms: C_6  and  N_10 
REMARK       I    between atoms: N_10  and  C_13 
REMARK    6  A    between atoms: C_13  and  C_14 
REMARK    7  A    between atoms: C_14  and  C_23 
REMARK    8  A    between atoms: C_14  and  N_25 
REMARK    9  A    between atoms: C_15  and  C_19 
REMARK   10  A    between atoms: N_16  and  C_17 
REMARK   11  A    between atoms: C_17  and  C_18 
REMARK   12  A    between atoms: C_18  and  C_19 
ROOT
HETATM    1  H           1     -23.141  -6.373  -4.594  0.00  0.00     0.163 HD
HETATM    2  N           1     -22.149  -6.197  -4.508  0.00  0.00    -0.345 N 
HETATM    3  C           1     -21.472  -5.581  -5.526  0.00  0.00     0.249 C 
HETATM    4  O           1     -20.287  -5.370  -5.423  0.00  0.00    -0.271 OA
ENDROOT
BRANCH   2   5
HETATM    5  C           1     -21.443  -6.595  -3.305  0.00  0.00     0.185 C 
BRANCH   5   6
HETATM    6  C           1     -22.345  -6.386  -2.096  0.00  0.00     0.036 C 
BRANCH   6   7
HETATM    7  C           1     -21.739  -7.083  -0.885  0.00  0.00     0.004 C 
BRANCH   7   8
HETATM    8  C           1     -22.833  -7.817  -0.120  0.00  0.00     0.027 C 
BRANCH   8   9
HETATM    9  C           1     -22.667  -9.319  -0.309  0.00  0.00     0.229 C 
BRANCH   9  10
HETATM   10  N           1     -21.210  -9.671  -0.259  0.00  0.00    -0.079 N 
HETATM   11  H           1     -20.977 -10.060   0.683  0.00  0.00     0.274 HD
HETATM   12  H           1     -20.639  -8.814  -0.433  0.00  0.00     0.274 HD
HETATM   13  H           1     -20.998 -10.384  -0.993  0.00  0.00     0.274 HD
ENDBRANCH   9  10
ENDBRANCH   8   9
ENDBRANCH   7   8
ENDBRANCH   6   7
ENDBRANCH   5   6
BRANCH   5  14
HETATM   14  C           1     -21.062  -8.051  -3.404  0.00  0.00     0.196 C 
HETATM   15  O           1     -19.947  -8.435  -2.988  0.00  0.00    -0.646 OA
HETATM   16  O           1     -21.859  -8.874  -3.903  0.00  0.00    -0.646 OA
ENDBRANCH   5  14
ENDBRANCH   2   5
BRANCH   3  17
HETATM   17  C           1     -22.206  -5.167  -6.777  0.00  0.00     0.275 C 
BRANCH  17  18
HETATM   18  C           1     -21.566  -3.910  -7.349  0.00  0.00     0.053 C 
BRANCH  18  19
HETATM   19  C           1     -21.925  -3.781  -8.823  0.00  0.00     0.076 C 
BRANCH  19  20
HETATM   20  S           1     -20.526  -4.332  -9.839  0.00  0.00    -0.173 SA
HETATM   21  C           1     -21.296  -3.985 -11.445  0.00  0.00     0.089 C 
ENDBRANCH  19  20
ENDBRANCH  18  19
ENDBRANCH  17  18
BRANCH  17  22
HETATM   22  N           1     -23.642  -4.889  -6.444  0.00  0.00    -0.066 N 
HETATM   23  H           1     -23.845  -3.876  -6.594  0.00  0.00     0.275 HD
HETATM   24  H           1     -23.822  -5.138  -5.445  0.00  0.00     0.275 HD
HETATM   25  H           1     -24.261  -5.462  -7.062  0.00  0.00     0.275 HD
ENDBRANCH  17  22
ENDBRANCH   3  17
TORSDOF 12
ENDMDL
MODEL 9
REMARK VINA RESULT:      -5.1     15.007     16.500
REMARK  12 active torsions:
REMARK  status: ('A' for Active; 'I' for Inactive)
REMARK    1  A    between atoms: C_3  and  C_23 
REMARK    2  A    between atoms: C_3  and  S_21 
REMARK    3  A    between atoms: C_6  and  C_15 
REMARK    4  A    between atoms: C_6  and  C_9 
REMARK    5  A    between atoms: C_6  and  N_10 
REMARK       I    between atoms: N_10  and  C_13 
REMARK    6  A    between atoms: C_13  and  C_14 
REMARK    7  A    between atoms: C_14  and  C_23 
REMARK    8  A    between atoms: C_14  and  N_25 
REMARK    9  A    between atoms: C_15  and  C_19 
REMARK   10  A    between atoms: N_16  and  C_17 
REMARK   11  A    between atoms: C_17  and  C_18 
REMARK   12  A    between atoms: C_18  and  C_19 
ROOT
HETATM    1  H           1     -21.476  -8.585  -6.294  0.00  0.00     0.163 HD
HETATM    2  N           1     -20.857  -8.194  -5.596  0.00  0.00    -0.345 N 
HETATM    3  C           1     -20.098  -9.023  -4.813  0.00  0.00     0.249 C 
HETATM    4  O           1     -19.358  -8.557  -3.980  0.00  0.00    -0.271 OA
ENDROOT
BRANCH   2   5
HETATM    5  C           1     -20.771  -6.757  -5.424  0.00  0.00     0.185 C 
BRANCH   5   6
HETATM    6  C           1     -20.768  -6.083  -6.789  0.00  0.00     0.036 C 
BRANCH   6   7
HETATM    7  C           1     -20.188  -4.680  -6.662  0.00  0.00     0.004 C 
BRANCH   7   8
HETATM    8  C           1     -21.204  -3.663  -7.165  0.00  0.00     0.027 C 
BRANCH   8   9
HETATM    9  C           1     -22.179  -4.345  -8.116  0.00  0.00     0.229 C 
BRANCH   9  10
HETATM   10  N           1     -23.580  -4.158  -7.614  0.00  0.00    -0.079 N 
HETATM   11  H           1     -23.887  -3.175  -7.795  0.00  0.00     0.274 HD
HETATM   12  H           1     -23.611  -4.350  -6.588  0.00  0.00     0.274 HD
HETATM   13  H           1     -24.219  -4.819  -8.110  0.00  0.00     0.274 HD
ENDBRANCH   9  10
ENDBRANCH   8   9
ENDBRANCH   7   8
ENDBRANCH   6   7
ENDBRANCH   5   6
BRANCH   5  14
HETATM   14  C           1     -21.958  -6.274  -4.627  0.00  0.00     0.196 C 
HETATM   15  O           1     -23.062  -6.107  -5.189  0.00  0.00    -0.646 OA
HETATM   16  O           1     -21.837  -6.042  -3.405  0.00  0.00    -0.646 OA
ENDBRANCH   5  14
ENDBRANCH   2   5
BRANCH   3  17
HETATM   17  C           1     -20.187 -10.519  -4.992  0.00  0.00     0.275 C 
BRANCH  17  18
HETATM   18  C           1     -18.800 -11.130  -4.850  0.00  0.00     0.053 C 
BRANCH  18  19
HETATM   19  C           1     -18.042 -10.982  -6.162  0.00  0.00     0.076 C 
BRANCH  19  20
HETATM   20  S           1     -16.321 -10.518  -5.820  0.00  0.00    -0.173 SA
HETATM   21  C           1     -16.462 -10.548  -4.011  0.00  0.00     0.089 C 
ENDBRANCH  19  20
ENDBRANCH  18  19
ENDBRANCH  17  18
BRANCH  17  22
HETATM   22  N           1     -20.731 -10.827  -6.355  0.00  0.00    -0.066 N 
HETATM   23  H           1     -19.945 -10.888  -7.039  0.00  0.00     0.275 HD
HETATM   24  H           1     -21.390 -10.069  -6.647  0.00  0.00     0.275 HD
HETATM   25  H           1     -21.242 -11.739  -6.329  0.00  0.00     0.275 HD
ENDBRANCH  17  22
ENDBRANCH   3  17
TORSDOF 12
ENDMDL
