MODEL 1
REMARK VINA RESULT:      -5.8      0.000      0.000
REMARK  10 active torsions:
REMARK  status: ('A' for Active; 'I' for Inactive)
REMARK    1  A    between atoms: P_2  and  O_3 
REMARK    2  A    between atoms: P_2  and  O_13 
REMARK    3  A    between atoms: O_3  and  C_20 
REMARK    4  A    between atoms: N_4  and  C_17 
REMARK    5  A    between atoms: C_9  and  C_21 
REMARK    6  A    between atoms: N_15  and  C_21 
REMARK       I    between atoms: N_15  and  C_16 
REMARK    7  A    between atoms: C_16  and  C_17 
REMARK    8  A    between atoms: C_17  and  C_18 
REMARK    9  A    between atoms: C_18  and  S_19 
REMARK   10  A    between atoms: C_20  and  C_21 
ROOT
HETATM    1  O           1     -24.344  -6.471 -18.525  0.00  0.00    -0.271 OA
HETATM    2  N           1     -26.551  -6.631 -18.223  0.00  0.00    -0.343 N 
HETATM    3  C           1     -25.410  -6.849 -18.949  0.00  0.00     0.249 C 
HETATM    4  H           1     -27.444  -6.948 -18.579  0.00  0.00     0.163 HD
ENDROOT
BRANCH   2   5
HETATM    5  C           1     -26.479  -5.947 -16.948  0.00  0.00     0.210 C 
BRANCH   5   6
HETATM    6  C           1     -26.449  -6.964 -15.833  0.00  0.00     0.198 C 
HETATM    7  O           1     -27.517  -7.363 -15.321  0.00  0.00    -0.646 OA
HETATM    8  O           1     -25.355  -7.407 -15.421  0.00  0.00    -0.646 OA
ENDBRANCH   5   6
BRANCH   5   9
HETATM    9  C           1     -27.700  -5.051 -16.785  0.00  0.00     0.217 C 
BRANCH   9  10
HETATM   10  O           1     -28.727  -5.500 -17.628  0.00  0.00    -0.287 OA
BRANCH  10  11
HETATM   11  P           1     -30.207  -5.538 -16.984  0.00  0.00     0.406 P 
HETATM   12  O           1     -30.938  -6.720 -17.494  0.00  0.00    -0.624 OA
HETATM   13  O           1     -30.939  -4.307 -17.358  0.00  0.00    -0.624 OA
BRANCH  11  14
HETATM   14  O           1     -30.091  -5.630 -15.376  0.00  0.00    -0.300 OA
HETATM   15  H           1     -29.208  -5.911 -15.210  0.00  0.00     0.223 HD
ENDBRANCH  11  14
ENDBRANCH  10  11
ENDBRANCH   9  10
ENDBRANCH   5   9
ENDBRANCH   2   5
BRANCH   3  16
HETATM   16  C           1     -25.485  -7.561 -20.277  0.00  0.00     0.283 C 
BRANCH  16  17
HETATM   17  N           1     -26.920  -7.818 -20.625  0.00  0.00    -0.066 N 
HETATM   18  H           1     -27.079  -8.847 -20.711  0.00  0.00     0.275 HD
HETATM   19  H           1     -27.535  -7.433 -19.873  0.00  0.00     0.275 HD
HETATM   20  H           1     -27.147  -7.354 -21.534  0.00  0.00     0.275 HD
ENDBRANCH  16  17
BRANCH  16  21
HETATM   21  C           1     -24.848  -6.693 -21.355  0.00  0.00     0.113 C 
BRANCH  21  22
HETATM   22  S           1     -23.907  -7.742 -22.498  0.00  0.00    -0.180 SA
HETATM   23  H           1     -22.714  -7.165 -22.270  0.00  0.00     0.101 HD
ENDBRANCH  21  22
ENDBRANCH  16  21
ENDBRANCH   3  16
TORSDOF 10
ENDMDL
MODEL 2
REMARK VINA RESULT:      -5.4     11.046     12.668
REMARK  10 active torsions:
REMARK  status: ('A' for Active; 'I' for Inactive)
REMARK    1  A    between atoms: P_2  and  O_3 
REMARK    2  A    between atoms: P_2  and  O_13 
REMARK    3  A    between atoms: O_3  and  C_20 
REMARK    4  A    between atoms: N_4  and  C_17 
REMARK    5  A    between atoms: C_9  and  C_21 
REMARK    6  A    between atoms: N_15  and  C_21 
REMARK       I    between atoms: N_15  and  C_16 
REMARK    7  A    between atoms: C_16  and  C_17 
REMARK    8  A    between atoms: C_17  and  C_18 
REMARK    9  A    between atoms: C_18  and  S_19 
REMARK   10  A    between atoms: C_20  and  C_21 
ROOT
HETATM    1  O           1     -21.348  -7.402  -6.786  0.00  0.00    -0.271 OA
HETATM    2  N           1     -21.322  -5.191  -6.476  0.00  0.00    -0.343 N 
HETATM    3  C           1     -21.246  -6.478  -6.015  0.00  0.00     0.249 C 
HETATM    4  H           1     -21.236  -4.417  -5.829  0.00  0.00     0.163 HD
ENDROOT
BRANCH   2   5
HETATM    5  C           1     -21.523  -4.937  -7.889  0.00  0.00     0.210 C 
BRANCH   5   6
HETATM    6  C           1     -20.192  -4.666  -8.546  0.00  0.00     0.198 C 
HETATM    7  O           1     -19.192  -4.396  -7.846  0.00  0.00    -0.646 OA
HETATM    8  O           1     -20.089  -4.713  -9.791  0.00  0.00    -0.646 OA
ENDBRANCH   5   6
BRANCH   5   9
HETATM    9  C           1     -22.430  -3.725  -8.061  0.00  0.00     0.217 C 
BRANCH   9  10
HETATM   10  O           1     -23.650  -4.128  -8.621  0.00  0.00    -0.287 OA
BRANCH  10  11
HETATM   11  P           1     -23.779  -3.974 -10.223  0.00  0.00     0.406 P 
HETATM   12  O           1     -25.020  -3.237 -10.552  0.00  0.00    -0.624 OA
HETATM   13  O           1     -23.825  -5.317 -10.845  0.00  0.00    -0.624 OA
BRANCH  11  14
HETATM   14  O           1     -22.504  -3.161 -10.790  0.00  0.00    -0.300 OA
HETATM   15  H           1     -21.835  -3.812 -10.916  0.00  0.00     0.223 HD
ENDBRANCH  11  14
ENDBRANCH  10  11
ENDBRANCH   9  10
ENDBRANCH   5   9
ENDBRANCH   2   5
BRANCH   3  16
HETATM   16  C           1     -21.036  -6.742  -4.545  0.00  0.00     0.283 C 
BRANCH  16  17
HETATM   17  N           1     -22.119  -6.068  -3.757  0.00  0.00    -0.066 N 
HETATM   18  H           1     -22.021  -6.317  -2.746  0.00  0.00     0.275 HD
HETATM   19  H           1     -22.039  -5.033  -3.869  0.00  0.00     0.275 HD
HETATM   20  H           1     -23.052  -6.386  -4.104  0.00  0.00     0.275 HD
ENDBRANCH  16  17
BRANCH  16  21
HETATM   21  C           1     -21.080  -8.243  -4.287  0.00  0.00     0.113 C 
BRANCH  21  22
HETATM   22  S           1     -19.387  -8.884  -4.161  0.00  0.00    -0.180 SA
HETATM   23  H           1     -19.701  -9.969  -3.430  0.00  0.00     0.101 HD
ENDBRANCH  21  22
ENDBRANCH  16  21
ENDBRANCH   3  16
TORSDOF 10
ENDMDL
MODEL 3
REMARK VINA RESULT:      -4.9     11.667     13.422
REMARK  10 active torsions:
REMARK  status: ('A' for Active; 'I' for Inactive)
REMARK    1  A    between atoms: P_2  and  O_3 
REMARK    2  A    between atoms: P_2  and  O_13 
REMARK    3  A    between atoms: O_3  and  C_20 
REMARK    4  A    between atoms: N_4  and  C_17 
REMARK    5  A    between atoms: C_9  and  C_21 
REMARK    6  A    between atoms: N_15  and  C_21 
REMARK       I    between atoms: N_15  and  C_16 
REMARK    7  A    between atoms: C_16  and  C_17 
REMARK    8  A    between atoms: C_17  and  C_18 
REMARK    9  A    between atoms: C_18  and  S_19 
REMARK   10  A    between atoms: C_20  and  C_21 
ROOT
HETATM    1  O           1     -20.845  -7.865  -6.077  0.00  0.00    -0.271 OA
HETATM    2  N           1     -21.624  -5.788  -5.818  0.00  0.00    -0.343 N 
HETATM    3  C           1     -21.398  -7.061  -5.366  0.00  0.00     0.249 C 
HETATM    4  H           1     -22.088  -5.115  -5.221  0.00  0.00     0.163 HD
ENDROOT
BRANCH   2   5
HETATM    5  C           1     -21.200  -5.406  -7.150  0.00  0.00     0.210 C 
BRANCH   5   6
HETATM    6  C           1     -19.862  -4.711  -7.072  0.00  0.00     0.198 C 
HETATM    7  O           1     -19.335  -4.493  -5.960  0.00  0.00    -0.646 OA
HETATM    8  O           1     -19.282  -4.354  -8.119  0.00  0.00    -0.646 OA
ENDBRANCH   5   6
BRANCH   5   9
HETATM    9  C           1     -22.229  -4.461  -7.757  0.00  0.00     0.217 C 
BRANCH   9  10
HETATM   10  O           1     -22.339  -4.709  -9.132  0.00  0.00    -0.287 OA
BRANCH  10  11
HETATM   11  P           1     -23.614  -4.049  -9.872  0.00  0.00     0.406 P 
HETATM   12  O           1     -24.416  -5.111 -10.519  0.00  0.00    -0.624 OA
HETATM   13  O           1     -23.146  -3.091 -10.898  0.00  0.00    -0.624 OA
BRANCH  11  14
HETATM   14  O           1     -24.524  -3.275  -8.786  0.00  0.00    -0.300 OA
HETATM   15  H           1     -24.137  -2.419  -8.709  0.00  0.00     0.223 HD
ENDBRANCH  11  14
ENDBRANCH  10  11
ENDBRANCH   9  10
ENDBRANCH   5   9
ENDBRANCH   2   5
BRANCH   3  16
HETATM   16  C           1     -21.840  -7.458  -3.979  0.00  0.00     0.283 C 
BRANCH  16  17
HETATM   17  N           1     -21.105  -8.695  -3.556  0.00  0.00    -0.066 N 
HETATM   18  H           1     -20.438  -8.978  -4.308  0.00  0.00     0.275 HD
HETATM   19  H           1     -20.575  -8.501  -2.676  0.00  0.00     0.275 HD
HETATM   20  H           1     -21.790  -9.467  -3.389  0.00  0.00     0.275 HD
ENDBRANCH  16  17
BRANCH  16  21
HETATM   21  C           1     -21.533  -6.327  -3.005  0.00  0.00     0.113 C 
BRANCH  21  22
HETATM   22  S           1     -22.220  -6.730  -1.374  0.00  0.00    -0.180 SA
HETATM   23  H           1     -23.192  -7.542  -1.828  0.00  0.00     0.101 HD
ENDBRANCH  21  22
ENDBRANCH  16  21
ENDBRANCH   3  16
TORSDOF 10
ENDMDL
MODEL 4
REMARK VINA RESULT:      -4.7     13.489     15.116
REMARK  10 active torsions:
REMARK  status: ('A' for Active; 'I' for Inactive)
REMARK    1  A    between atoms: P_2  and  O_3 
REMARK    2  A    between atoms: P_2  and  O_13 
REMARK    3  A    between atoms: O_3  and  C_20 
REMARK    4  A    between atoms: N_4  and  C_17 
REMARK    5  A    between atoms: C_9  and  C_21 
REMARK    6  A    between atoms: N_15  and  C_21 
REMARK       I    between atoms: N_15  and  C_16 
REMARK    7  A    between atoms: C_16  and  C_17 
REMARK    8  A    between atoms: C_17  and  C_18 
REMARK    9  A    between atoms: C_18  and  S_19 
REMARK   10  A    between atoms: C_20  and  C_21 
ROOT
HETATM    1  O           1     -19.617  -4.805  -5.956  0.00  0.00    -0.271 OA
HETATM    2  N           1     -21.596  -5.643  -5.351  0.00  0.00    -0.343 N 
HETATM    3  C           1     -20.814  -4.819  -6.115  0.00  0.00     0.249 C 
HETATM    4  H           1     -22.600  -5.654  -5.485  0.00  0.00     0.163 HD
ENDROOT
BRANCH   2   5
HETATM    5  C           1     -20.989  -6.499  -4.352  0.00  0.00     0.210 C 
BRANCH   5   6
HETATM    6  C           1     -20.893  -7.907  -4.887  0.00  0.00     0.198 C 
HETATM    7  O           1     -21.763  -8.752  -4.584  0.00  0.00    -0.646 OA
HETATM    8  O           1     -19.943  -8.228  -5.633  0.00  0.00    -0.646 OA
ENDBRANCH   5   6
BRANCH   5   9
HETATM    9  C           1     -21.844  -6.492  -3.091  0.00  0.00     0.217 C 
BRANCH   9  10
HETATM   10  O           1     -21.075  -6.925  -2.002  0.00  0.00    -0.287 OA
BRANCH  10  11
HETATM   11  P           1     -21.824  -7.890  -0.946  0.00  0.00     0.406 P 
HETATM   12  O           1     -23.027  -7.208  -0.418  0.00  0.00    -0.624 OA
HETATM   13  O           1     -20.906  -8.203   0.173  0.00  0.00    -0.624 OA
BRANCH  11  14
HETATM   14  O           1     -22.262  -9.258  -1.683  0.00  0.00    -0.300 OA
HETATM   15  H           1     -22.949  -9.616  -1.148  0.00  0.00     0.223 HD
ENDBRANCH  11  14
ENDBRANCH  10  11
ENDBRANCH   9  10
ENDBRANCH   5   9
ENDBRANCH   2   5
BRANCH   3  16
HETATM   16  C           1     -21.448  -3.929  -7.155  0.00  0.00     0.283 C 
BRANCH  16  17
HETATM   17  N           1     -20.644  -3.988  -8.420  0.00  0.00    -0.066 N 
HETATM   18  H           1     -19.747  -4.493  -8.239  0.00  0.00     0.275 HD
HETATM   19  H           1     -21.188  -4.497  -9.153  0.00  0.00     0.275 HD
HETATM   20  H           1     -20.438  -3.018  -8.748  0.00  0.00     0.275 HD
ENDBRANCH  16  17
BRANCH  16  21
HETATM   21  C           1     -22.868  -4.404  -7.434  0.00  0.00     0.113 C 
BRANCH  21  22
HETATM   22  S           1     -23.357  -3.903  -9.108  0.00  0.00    -0.180 SA
HETATM   23  H           1     -22.113  -3.630  -9.542  0.00  0.00     0.101 HD
ENDBRANCH  21  22
ENDBRANCH  16  21
ENDBRANCH   3  16
TORSDOF 10
ENDMDL
MODEL 5
REMARK VINA RESULT:      -4.5     13.402     15.142
REMARK  10 active torsions:
REMARK  status: ('A' for Active; 'I' for Inactive)
REMARK    1  A    between atoms: P_2  and  O_3 
REMARK    2  A    between atoms: P_2  and  O_13 
REMARK    3  A    between atoms: O_3  and  C_20 
REMARK    4  A    between atoms: N_4  and  C_17 
REMARK    5  A    between atoms: C_9  and  C_21 
REMARK    6  A    between atoms: N_15  and  C_21 
REMARK       I    between atoms: N_15  and  C_16 
REMARK    7  A    between atoms: C_16  and  C_17 
REMARK    8  A    between atoms: C_17  and  C_18 
REMARK    9  A    between atoms: C_18  and  S_19 
REMARK   10  A    between atoms: C_20  and  C_21 
ROOT
HETATM    1  O           1     -22.555  -5.921  -5.411  0.00  0.00    -0.271 OA
HETATM    2  N           1     -20.879  -6.799  -4.225  0.00  0.00    -0.343 N 
HETATM    3  C           1     -21.364  -6.015  -5.238  0.00  0.00     0.249 C 
HETATM    4  H           1     -19.879  -6.877  -4.081  0.00  0.00     0.163 HD
ENDROOT
BRANCH   2   5
HETATM    5  C           1     -21.795  -7.515  -3.360  0.00  0.00     0.210 C 
BRANCH   5   6
HETATM    6  C           1     -21.831  -6.849  -2.005  0.00  0.00     0.198 C 
HETATM    7  O           1     -22.192  -5.657  -1.904  0.00  0.00    -0.646 OA
HETATM    8  O           1     -21.500  -7.491  -0.985  0.00  0.00    -0.646 OA
ENDBRANCH   5   6
BRANCH   5   9
HETATM    9  C           1     -21.324  -8.955  -3.205  0.00  0.00     0.217 C 
BRANCH   9  10
HETATM   10  O           1     -21.711  -9.697  -4.330  0.00  0.00    -0.287 OA
BRANCH  10  11
HETATM   11  P           1     -20.513 -10.267  -5.250  0.00  0.00     0.406 P 
HETATM   12  O           1     -19.711 -11.238  -4.473  0.00  0.00    -0.624 OA
HETATM   13  O           1     -19.648  -9.146  -5.681  0.00  0.00    -0.624 OA
BRANCH  11  14
HETATM   14  O           1     -21.134 -10.999  -6.548  0.00  0.00    -0.300 OA
HETATM   15  H           1     -22.021 -10.687  -6.604  0.00  0.00     0.223 HD
ENDBRANCH  11  14
ENDBRANCH  10  11
ENDBRANCH   9  10
ENDBRANCH   5   9
ENDBRANCH   2   5
BRANCH   3  16
HETATM   16  C           1     -20.409  -5.270  -6.138  0.00  0.00     0.283 C 
BRANCH  16  17
HETATM   17  N           1     -19.822  -6.220  -7.139  0.00  0.00    -0.066 N 
HETATM   18  H           1     -20.552  -6.482  -7.840  0.00  0.00     0.275 HD
HETATM   19  H           1     -19.022  -5.759  -7.628  0.00  0.00     0.275 HD
HETATM   20  H           1     -19.486  -7.079  -6.649  0.00  0.00     0.275 HD
ENDBRANCH  16  17
BRANCH  16  21
HETATM   21  C           1     -21.160  -4.163  -6.869  0.00  0.00     0.113 C 
BRANCH  21  22
HETATM   22  S           1     -21.302  -4.586  -8.627  0.00  0.00    -0.180 SA
HETATM   23  H           1     -22.263  -3.689  -8.911  0.00  0.00     0.101 HD
ENDBRANCH  21  22
ENDBRANCH  16  21
ENDBRANCH   3  16
TORSDOF 10
ENDMDL
MODEL 6
REMARK VINA RESULT:      -4.5      1.712      2.080
REMARK  10 active torsions:
REMARK  status: ('A' for Active; 'I' for Inactive)
REMARK    1  A    between atoms: P_2  and  O_3 
REMARK    2  A    between atoms: P_2  and  O_13 
REMARK    3  A    between atoms: O_3  and  C_20 
REMARK    4  A    between atoms: N_4  and  C_17 
REMARK    5  A    between atoms: C_9  and  C_21 
REMARK    6  A    between atoms: N_15  and  C_21 
REMARK       I    between atoms: N_15  and  C_16 
REMARK    7  A    between atoms: C_16  and  C_17 
REMARK    8  A    between atoms: C_17  and  C_18 
REMARK    9  A    between atoms: C_18  and  S_19 
REMARK   10  A    between atoms: C_20  and  C_21 
ROOT
HETATM    1  O           1     -23.394  -6.298 -18.859  0.00  0.00    -0.271 OA
HETATM    2  N           1     -25.487  -6.961 -18.454  0.00  0.00    -0.343 N 
HETATM    3  C           1     -24.377  -6.879 -19.251  0.00  0.00     0.249 C 
HETATM    4  H           1     -26.311  -7.449 -18.784  0.00  0.00     0.163 HD
ENDROOT
BRANCH   2   5
HETATM    5  C           1     -25.483  -6.350 -17.140  0.00  0.00     0.210 C 
BRANCH   5   6
HETATM    6  C           1     -25.142  -7.392 -16.102  0.00  0.00     0.198 C 
HETATM    7  O           1     -24.256  -8.242 -16.337  0.00  0.00    -0.646 OA
HETATM    8  O           1     -25.746  -7.405 -15.008  0.00  0.00    -0.646 OA
ENDBRANCH   5   6
BRANCH   5   9
HETATM    9  C           1     -26.861  -5.772 -16.846  0.00  0.00     0.217 C 
BRANCH   9  10
HETATM   10  O           1     -27.771  -6.212 -17.818  0.00  0.00    -0.287 OA
BRANCH  10  11
HETATM   11  P           1     -29.186  -6.761 -17.268  0.00  0.00     0.406 P 
HETATM   12  O           1     -30.247  -6.476 -18.260  0.00  0.00    -0.624 OA
HETATM   13  O           1     -29.513  -6.087 -15.991  0.00  0.00    -0.624 OA
BRANCH  11  14
HETATM   14  O           1     -29.088  -8.355 -17.027  0.00  0.00    -0.300 OA
HETATM   15  H           1     -29.488  -8.741 -17.788  0.00  0.00     0.223 HD
ENDBRANCH  11  14
ENDBRANCH  10  11
ENDBRANCH   9  10
ENDBRANCH   5   9
ENDBRANCH   2   5
BRANCH   3  16
HETATM   16  C           1     -24.382  -7.515 -20.619  0.00  0.00     0.283 C 
BRANCH  16  17
HETATM   17  N           1     -23.459  -8.697 -20.624  0.00  0.00    -0.066 N 
HETATM   18  H           1     -23.955  -9.525 -21.025  0.00  0.00     0.275 HD
HETATM   19  H           1     -22.619  -8.480 -21.207  0.00  0.00     0.275 HD
HETATM   20  H           1     -23.160  -8.910 -19.646  0.00  0.00     0.275 HD
ENDBRANCH  16  17
BRANCH  16  21
HETATM   21  C           1     -25.794  -7.973 -20.961  0.00  0.00     0.113 C 
BRANCH  21  22
HETATM   22  S           1     -26.902  -6.537 -21.002  0.00  0.00    -0.180 SA
HETATM   23  H           1     -26.225  -5.863 -21.949  0.00  0.00     0.101 HD
ENDBRANCH  21  22
ENDBRANCH  16  21
ENDBRANCH   3  16
TORSDOF 10
ENDMDL
MODEL 7
REMARK VINA RESULT:      -4.4     15.155     17.054
REMARK  10 active torsions:
REMARK  status: ('A' for Active; 'I' for Inactive)
REMARK    1  A    between atoms: P_2  and  O_3 
REMARK    2  A    between atoms: P_2  and  O_13 
REMARK    3  A    between atoms: O_3  and  C_20 
REMARK    4  A    between atoms: N_4  and  C_17 
REMARK    5  A    between atoms: C_9  and  C_21 
REMARK    6  A    between atoms: N_15  and  C_21 
REMARK       I    between atoms: N_15  and  C_16 
REMARK    7  A    between atoms: C_16  and  C_17 
REMARK    8  A    between atoms: C_17  and  C_18 
REMARK    9  A    between atoms: C_18  and  S_19 
REMARK   10  A    between atoms: C_20  and  C_21 
ROOT
HETATM    1  O           1     -19.350  -9.713  -1.915  0.00  0.00    -0.271 OA
HETATM    2  N           1     -21.460  -9.068  -1.567  0.00  0.00    -0.343 N 
HETATM    3  C           1     -20.434  -9.967  -1.446  0.00  0.00     0.249 C 
HETATM    4  H           1     -22.368  -9.282  -1.173  0.00  0.00     0.163 HD
ENDROOT
BRANCH   2   5
HETATM    5  C           1     -21.246  -7.812  -2.256  0.00  0.00     0.210 C 
BRANCH   5   6
HETATM    6  C           1     -22.142  -6.753  -1.661  0.00  0.00     0.198 C 
HETATM    7  O           1     -22.325  -5.675  -2.268  0.00  0.00    -0.646 OA
HETATM    8  O           1     -22.699  -6.953  -0.561  0.00  0.00    -0.646 OA
ENDBRANCH   5   6
BRANCH   5   9
HETATM    9  C           1     -21.575  -7.983  -3.734  0.00  0.00     0.217 C 
BRANCH   9  10
HETATM   10  O           1     -20.583  -7.365  -4.509  0.00  0.00    -0.287 OA
BRANCH  10  11
HETATM   11  P           1     -21.090  -6.215  -5.523  0.00  0.00     0.406 P 
HETATM   12  O           1     -20.884  -6.661  -6.919  0.00  0.00    -0.624 OA
HETATM   13  O           1     -20.320  -4.973  -5.284  0.00  0.00    -0.624 OA
BRANCH  11  14
HETATM   14  O           1     -22.660  -5.933  -5.274  0.00  0.00    -0.300 OA
HETATM   15  H           1     -23.109  -6.511  -5.866  0.00  0.00     0.223 HD
ENDBRANCH  11  14
ENDBRANCH  10  11
ENDBRANCH   9  10
ENDBRANCH   5   9
ENDBRANCH   2   5
BRANCH   3  16
HETATM   16  C           1     -20.657 -11.275  -0.728  0.00  0.00     0.283 C 
BRANCH  16  17
HETATM   17  N           1     -20.683 -11.034   0.752  0.00  0.00    -0.066 N 
HETATM   18  H           1     -21.467 -11.578   1.179  0.00  0.00     0.275 HD
HETATM   19  H           1     -19.777 -11.344   1.170  0.00  0.00     0.275 HD
HETATM   20  H           1     -20.824 -10.016   0.936  0.00  0.00     0.275 HD
ENDBRANCH  16  17
BRANCH  16  21
HETATM   21  C           1     -21.987 -11.875  -1.168  0.00  0.00     0.113 C 
BRANCH  21  22
HETATM   22  S           1     -21.784 -12.677  -2.783  0.00  0.00    -0.180 SA
HETATM   23  H           1     -22.731 -11.960  -3.416  0.00  0.00     0.101 HD
ENDBRANCH  21  22
ENDBRANCH  16  21
ENDBRANCH   3  16
TORSDOF 10
ENDMDL
MODEL 8
REMARK VINA RESULT:      -4.4     14.502     15.880
REMARK  10 active torsions:
REMARK  status: ('A' for Active; 'I' for Inactive)
REMARK    1  A    between atoms: P_2  and  O_3 
REMARK    2  A    between atoms: P_2  and  O_13 
REMARK    3  A    between atoms: O_3  and  C_20 
REMARK    4  A    between atoms: N_4  and  C_17 
REMARK    5  A    between atoms: C_9  and  C_21 
REMARK    6  A    between atoms: N_15  and  C_21 
REMARK       I    between atoms: N_15  and  C_16 
REMARK    7  A    between atoms: C_16  and  C_17 
REMARK    8  A    between atoms: C_17  and  C_18 
REMARK    9  A    between atoms: C_18  and  S_19 
REMARK   10  A    between atoms: C_20  and  C_21 
ROOT
HETATM    1  O           1     -18.912  -9.045  -2.664  0.00  0.00    -0.271 OA
HETATM    2  N           1     -20.991  -8.459  -3.229  0.00  0.00    -0.343 N 
HETATM    3  C           1     -19.881  -9.251  -3.355  0.00  0.00     0.249 C 
HETATM    4  H           1     -21.803  -8.632  -3.808  0.00  0.00     0.163 HD
ENDROOT
BRANCH   2   5
HETATM    5  C           1     -21.004  -7.375  -2.267  0.00  0.00     0.210 C 
BRANCH   5   6
HETATM    6  C           1     -22.018  -7.672  -1.188  0.00  0.00     0.198 C 
HETATM    7  O           1     -22.118  -8.830  -0.727  0.00  0.00    -0.646 OA
HETATM    8  O           1     -22.756  -6.761  -0.757  0.00  0.00    -0.646 OA
ENDBRANCH   5   6
BRANCH   5   9
HETATM    9  C           1     -21.377  -6.078  -2.971  0.00  0.00     0.217 C 
BRANCH   9  10
HETATM   10  O           1     -22.167  -6.364  -4.093  0.00  0.00    -0.287 OA
BRANCH  10  11
HETATM   11  P           1     -21.565  -5.907  -5.520  0.00  0.00     0.406 P 
HETATM   12  O           1     -22.601  -5.177  -6.285  0.00  0.00    -0.624 OA
HETATM   13  O           1     -21.142  -7.104  -6.282  0.00  0.00    -0.624 OA
BRANCH  11  14
HETATM   14  O           1     -20.292  -4.942  -5.282  0.00  0.00    -0.300 OA
HETATM   15  H           1     -19.545  -5.456  -5.538  0.00  0.00     0.223 HD
ENDBRANCH  11  14
ENDBRANCH  10  11
ENDBRANCH   9  10
ENDBRANCH   5   9
ENDBRANCH   2   5
BRANCH   3  16
HETATM   16  C           1     -19.868 -10.379  -4.356  0.00  0.00     0.283 C 
BRANCH  16  17
HETATM   17  N           1     -20.378  -9.882  -5.676  0.00  0.00    -0.066 N 
HETATM   18  H           1     -21.285  -9.382  -5.532  0.00  0.00     0.275 HD
HETATM   19  H           1     -19.682  -9.224  -6.092  0.00  0.00     0.275 HD
HETATM   20  H           1     -20.525 -10.691  -6.320  0.00  0.00     0.275 HD
ENDBRANCH  16  17
BRANCH  16  21
HETATM   21  C           1     -18.444 -10.893  -4.525  0.00  0.00     0.113 C 
BRANCH  21  22
HETATM   22  S           1     -17.658 -10.051  -5.927  0.00  0.00    -0.180 SA
HETATM   23  H           1     -17.969  -8.802  -5.533  0.00  0.00     0.101 HD
ENDBRANCH  21  22
ENDBRANCH  16  21
ENDBRANCH   3  16
TORSDOF 10
ENDMDL
MODEL 9
REMARK VINA RESULT:      -4.3     14.377     15.896
REMARK  10 active torsions:
REMARK  status: ('A' for Active; 'I' for Inactive)
REMARK    1  A    between atoms: P_2  and  O_3 
REMARK    2  A    between atoms: P_2  and  O_13 
REMARK    3  A    between atoms: O_3  and  C_20 
REMARK    4  A    between atoms: N_4  and  C_17 
REMARK    5  A    between atoms: C_9  and  C_21 
REMARK    6  A    between atoms: N_15  and  C_21 
REMARK       I    between atoms: N_15  and  C_16 
REMARK    7  A    between atoms: C_16  and  C_17 
REMARK    8  A    between atoms: C_17  and  C_18 
REMARK    9  A    between atoms: C_18  and  S_19 
REMARK   10  A    between atoms: C_20  and  C_21 
ROOT
HETATM    1  O           1     -19.680  -9.582  -3.302  0.00  0.00    -0.271 OA
HETATM    2  N           1     -21.607  -8.453  -3.347  0.00  0.00    -0.343 N 
HETATM    3  C           1     -20.815  -9.511  -3.709  0.00  0.00     0.249 C 
HETATM    4  H           1     -22.558  -8.394  -3.688  0.00  0.00     0.163 HD
ENDROOT
BRANCH   2   5
HETATM    5  C           1     -21.083  -7.419  -2.477  0.00  0.00     0.210 C 
BRANCH   5   6
HETATM    6  C           1     -21.748  -7.515  -1.125  0.00  0.00     0.198 C 
HETATM    7  O           1     -22.722  -6.781  -0.854  0.00  0.00    -0.646 OA
HETATM    8  O           1     -21.323  -8.329  -0.277  0.00  0.00    -0.646 OA
ENDBRANCH   5   6
BRANCH   5   9
HETATM    9  C           1     -21.366  -6.053  -3.086  0.00  0.00     0.217 C 
BRANCH   9  10
HETATM   10  O           1     -22.151  -6.207  -4.237  0.00  0.00    -0.287 OA
BRANCH  10  11
HETATM   11  P           1     -21.427  -5.868  -5.640  0.00  0.00     0.406 P 
HETATM   12  O           1     -20.238  -5.022  -5.392  0.00  0.00    -0.624 OA
HETATM   13  O           1     -22.372  -5.143  -6.520  0.00  0.00    -0.624 OA
BRANCH  11  14
HETATM   14  O           1     -20.969  -7.242  -6.355  0.00  0.00    -0.300 OA
HETATM   15  H           1     -20.062  -7.347  -6.123  0.00  0.00     0.223 HD
ENDBRANCH  11  14
ENDBRANCH  10  11
ENDBRANCH   9  10
ENDBRANCH   5   9
ENDBRANCH   2   5
BRANCH   3  16
HETATM   16  C           1     -21.362 -10.586  -4.615  0.00  0.00     0.283 C 
BRANCH  16  17
HETATM   17  N           1     -20.882 -10.351  -6.016  0.00  0.00    -0.066 N 
HETATM   18  H           1     -19.847 -10.487  -6.057  0.00  0.00     0.275 HD
HETATM   19  H           1     -21.347 -11.028  -6.661  0.00  0.00     0.275 HD
HETATM   20  H           1     -21.117  -9.374  -6.305  0.00  0.00     0.275 HD
ENDBRANCH  16  17
BRANCH  16  21
HETATM   21  C           1     -20.877 -11.949  -4.135  0.00  0.00     0.113 C 
BRANCH  21  22
HETATM   22  S           1     -21.913 -12.507  -2.754  0.00  0.00    -0.180 SA
HETATM   23  H           1     -22.594 -11.356  -2.614  0.00  0.00     0.101 HD
ENDBRANCH  21  22
ENDBRANCH  16  21
ENDBRANCH   3  16
TORSDOF 10
ENDMDL
