MODEL 1
REMARK VINA RESULT:      -6.8      0.000      0.000
REMARK  9 active torsions:
REMARK  status: ('A' for Active; 'I' for Inactive)
REMARK    1  A    between atoms: N_2  and  C_19 
REMARK       I    between atoms: N_2  and  C_3 
REMARK    2  A    between atoms: C_3  and  C_10 
REMARK    3  A    between atoms: N_7  and  C_10 
REMARK    4  A    between atoms: Se_8  and  C_9 
REMARK    5  A    between atoms: C_9  and  C_10 
REMARK    6  A    between atoms: O_11  and  C_12 
REMARK    7  A    between atoms: C_15  and  C_18 
REMARK    8  A    between atoms: C_18  and  C_19 
REMARK    9  A    between atoms: C_19  and  C_20 
ROOT
HETATM    1  C           1     -21.053  -5.252  -6.644  0.00  0.00     0.189 C 
ENDROOT
BRANCH   1   2
HETATM    2  N           1     -21.036  -5.185  -5.195  0.00  0.00    -0.344 N 
HETATM    3  C           1     -21.300  -6.306  -4.456  0.00  0.00     0.249 C 
HETATM    4  O           1     -21.547  -7.351  -5.009  0.00  0.00    -0.271 OA
HETATM    5  H           1     -20.828  -4.310  -4.732  0.00  0.00     0.163 HD
BRANCH   3   6
HETATM    6  C           1     -21.282  -6.237  -2.948  0.00  0.00     0.274 C 
BRANCH   6   7
HETATM    7  N           1     -22.650  -5.875  -2.449  0.00  0.00    -0.067 N 
HETATM    8  H           1     -23.361  -6.492  -2.902  0.00  0.00     0.275 HD
HETATM    9  H           1     -22.688  -6.003  -1.413  0.00  0.00     0.275 HD
HETATM   10  H           1     -22.853  -4.877  -2.685  0.00  0.00     0.275 HD
ENDBRANCH   6   7
BRANCH   6  11
HETATM   11  C           1     -20.877  -7.590  -2.381  0.00  0.00     0.045 C 
BRANCH  11  12
HETATM   12 Se           1     -21.905  -7.953  -0.766  0.00  0.00     0.000 Se
HETATM   13  H           1     -21.311  -9.282  -0.546  0.00  0.00     0.000 HD
ENDBRANCH  11  12
ENDBRANCH   6  11
ENDBRANCH   3   6
ENDBRANCH   1   2
BRANCH   1  14
HETATM   14  C           1     -21.549  -3.927  -7.206  0.00  0.00     0.074 C 
BRANCH  14  15
HETATM   15  C           1     -22.104  -4.143  -8.580  0.00  0.00    -0.056 A 
HETATM   16  C           1     -23.469  -4.370  -8.754  0.00  0.00     0.010 A 
HETATM   17  C           1     -23.986  -4.571 -10.034  0.00  0.00     0.037 A 
HETATM   18  C           1     -23.137  -4.544 -11.140  0.00  0.00     0.065 A 
HETATM   19  C           1     -21.772  -4.316 -10.967  0.00  0.00     0.037 A 
HETATM   20  C           1     -21.255  -4.115  -9.687  0.00  0.00     0.010 A 
BRANCH  18  21
HETATM   21  O           1     -23.639  -4.738 -12.383  0.00  0.00    -0.361 OA
HETATM   22  H           1     -22.904  -4.987 -12.969  0.00  0.00     0.217 HD
ENDBRANCH  18  21
ENDBRANCH  14  15
ENDBRANCH   1  14
BRANCH   1  23
HETATM   23  C           1     -19.658  -5.523  -7.151  0.00  0.00     0.197 C 
HETATM   24  O           1     -18.853  -4.579  -7.299  0.00  0.00    -0.646 OA
HETATM   25  O           1     -19.308  -6.692  -7.422  0.00  0.00    -0.646 OA
ENDBRANCH   1  23
TORSDOF 9
ENDMDL
MODEL 2
REMARK VINA RESULT:      -6.7     11.802     13.998
REMARK  9 active torsions:
REMARK  status: ('A' for Active; 'I' for Inactive)
REMARK    1  A    between atoms: N_2  and  C_19 
REMARK       I    between atoms: N_2  and  C_3 
REMARK    2  A    between atoms: C_3  and  C_10 
REMARK    3  A    between atoms: N_7  and  C_10 
REMARK    4  A    between atoms: Se_8  and  C_9 
REMARK    5  A    between atoms: C_9  and  C_10 
REMARK    6  A    between atoms: O_11  and  C_12 
REMARK    7  A    between atoms: C_15  and  C_18 
REMARK    8  A    between atoms: C_18  and  C_19 
REMARK    9  A    between atoms: C_19  and  C_20 
ROOT
HETATM    1  C           1     -27.326  -6.304 -17.134  0.00  0.00     0.189 C 
ENDROOT
BRANCH   1   2
HETATM    2  N           1     -26.149  -6.690 -17.889  0.00  0.00    -0.344 N 
HETATM    3  C           1     -26.112  -6.498 -19.244  0.00  0.00     0.249 C 
HETATM    4  O           1     -27.059  -6.007 -19.811  0.00  0.00    -0.271 OA
HETATM    5  H           1     -25.356  -7.101 -17.414  0.00  0.00     0.163 HD
BRANCH   3   6
HETATM    6  C           1     -24.888  -6.899 -20.030  0.00  0.00     0.274 C 
BRANCH   6   7
HETATM    7  N           1     -23.880  -7.515 -19.104  0.00  0.00    -0.067 N 
HETATM    8  H           1     -23.594  -8.449 -19.472  0.00  0.00     0.275 HD
HETATM    9  H           1     -23.042  -6.894 -19.039  0.00  0.00     0.275 HD
HETATM   10  H           1     -24.305  -7.629 -18.156  0.00  0.00     0.275 HD
ENDBRANCH   6   7
BRANCH   6  11
HETATM   11  C           1     -25.278  -7.910 -21.099  0.00  0.00     0.045 C 
BRANCH  11  12
HETATM   12 Se           1     -23.886  -7.986 -22.461  0.00  0.00     0.000 Se
HETATM   13  H           1     -22.908  -7.221 -21.670  0.00  0.00     0.000 HD
ENDBRANCH  11  12
ENDBRANCH   6  11
ENDBRANCH   3   6
ENDBRANCH   1   2
BRANCH   1  14
HETATM   14  C           1     -28.573  -6.804 -17.848  0.00  0.00     0.074 C 
BRANCH  14  15
HETATM   15  C           1     -29.674  -5.801 -17.697  0.00  0.00    -0.056 A 
HETATM   16  C           1     -29.439  -4.457 -17.988  0.00  0.00     0.010 A 
HETATM   17  C           1     -30.464  -3.523 -17.847  0.00  0.00     0.037 A 
HETATM   18  C           1     -31.726  -3.932 -17.414  0.00  0.00     0.065 A 
HETATM   19  C           1     -31.962  -5.275 -17.124  0.00  0.00     0.037 A 
HETATM   20  C           1     -30.936  -6.210 -17.265  0.00  0.00     0.010 A 
BRANCH  18  21
HETATM   21  O           1     -32.722  -3.024 -17.278  0.00  0.00    -0.361 OA
HETATM   22  H           1     -32.769  -2.504 -18.098  0.00  0.00     0.217 HD
ENDBRANCH  18  21
ENDBRANCH  14  15
ENDBRANCH   1  14
BRANCH   1  23
HETATM   23  C           1     -27.258  -6.910 -15.754  0.00  0.00     0.197 C 
HETATM   24  O           1     -26.180  -7.379 -15.330  0.00  0.00    -0.646 OA
HETATM   25  O           1     -28.280  -6.943 -15.034  0.00  0.00    -0.646 OA
ENDBRANCH   1  23
TORSDOF 9
ENDMDL
MODEL 3
REMARK VINA RESULT:      -6.6      1.177      1.699
REMARK  9 active torsions:
REMARK  status: ('A' for Active; 'I' for Inactive)
REMARK    1  A    between atoms: N_2  and  C_19 
REMARK       I    between atoms: N_2  and  C_3 
REMARK    2  A    between atoms: C_3  and  C_10 
REMARK    3  A    between atoms: N_7  and  C_10 
REMARK    4  A    between atoms: Se_8  and  C_9 
REMARK    5  A    between atoms: C_9  and  C_10 
REMARK    6  A    between atoms: O_11  and  C_12 
REMARK    7  A    between atoms: C_15  and  C_18 
REMARK    8  A    between atoms: C_18  and  C_19 
REMARK    9  A    between atoms: C_19  and  C_20 
ROOT
HETATM    1  C           1     -21.056  -5.061  -7.053  0.00  0.00     0.189 C 
ENDROOT
BRANCH   1   2
HETATM    2  N           1     -21.591  -5.506  -5.780  0.00  0.00    -0.344 N 
HETATM    3  C           1     -21.498  -6.823  -5.422  0.00  0.00     0.249 C 
HETATM    4  O           1     -20.970  -7.616  -6.165  0.00  0.00    -0.271 OA
HETATM    5  H           1     -22.032  -4.841  -5.157  0.00  0.00     0.163 HD
BRANCH   3   6
HETATM    6  C           1     -22.053  -7.286  -4.097  0.00  0.00     0.274 C 
BRANCH   6   7
HETATM    7  N           1     -21.642  -8.708  -3.853  0.00  0.00    -0.067 N 
HETATM    8  H           1     -22.342  -9.352  -4.287  0.00  0.00     0.275 HD
HETATM    9  H           1     -20.703  -8.877  -4.279  0.00  0.00     0.275 HD
HETATM   10  H           1     -21.597  -8.885  -2.824  0.00  0.00     0.275 HD
ENDBRANCH   6   7
BRANCH   6  11
HETATM   11  C           1     -21.512  -6.403  -2.982  0.00  0.00     0.045 C 
BRANCH  11  12
HETATM   12 Se           1     -22.194  -7.030  -1.267  0.00  0.00     0.000 Se
HETATM   13  H           1     -20.967  -6.696  -0.525  0.00  0.00     0.000 HD
ENDBRANCH  11  12
ENDBRANCH   6  11
ENDBRANCH   3   6
ENDBRANCH   1   2
BRANCH   1  14
HETATM   14  C           1     -21.866  -3.874  -7.556  0.00  0.00     0.074 C 
BRANCH  14  15
HETATM   15  C           1     -22.354  -4.153  -8.944  0.00  0.00    -0.056 A 
HETATM   16  C           1     -21.451  -4.197 -10.006  0.00  0.00     0.010 A 
HETATM   17  C           1     -21.906  -4.457 -11.298  0.00  0.00     0.037 A 
HETATM   18  C           1     -23.264  -4.674 -11.530  0.00  0.00     0.065 A 
HETATM   19  C           1     -24.167  -4.632 -10.467  0.00  0.00     0.037 A 
HETATM   20  C           1     -23.713  -4.371  -9.174  0.00  0.00     0.010 A 
BRANCH  18  21
HETATM   21  O           1     -23.706  -4.927 -12.785  0.00  0.00    -0.361 OA
HETATM   22  H           1     -23.701  -5.891 -12.916  0.00  0.00     0.217 HD
ENDBRANCH  18  21
ENDBRANCH  14  15
ENDBRANCH   1  14
BRANCH   1  23
HETATM   23  C           1     -19.615  -4.649  -6.877  0.00  0.00     0.197 C 
HETATM   24  O           1     -19.153  -4.470  -5.730  0.00  0.00    -0.646 OA
HETATM   25  O           1     -18.885  -4.486  -7.878  0.00  0.00    -0.646 OA
ENDBRANCH   1  23
TORSDOF 9
ENDMDL
MODEL 4
REMARK VINA RESULT:      -6.4     11.610     13.683
REMARK  9 active torsions:
REMARK  status: ('A' for Active; 'I' for Inactive)
REMARK    1  A    between atoms: N_2  and  C_19 
REMARK       I    between atoms: N_2  and  C_3 
REMARK    2  A    between atoms: C_3  and  C_10 
REMARK    3  A    between atoms: N_7  and  C_10 
REMARK    4  A    between atoms: Se_8  and  C_9 
REMARK    5  A    between atoms: C_9  and  C_10 
REMARK    6  A    between atoms: O_11  and  C_12 
REMARK    7  A    between atoms: C_15  and  C_18 
REMARK    8  A    between atoms: C_18  and  C_19 
REMARK    9  A    between atoms: C_19  and  C_20 
ROOT
HETATM    1  C           1     -27.598  -6.438 -16.891  0.00  0.00     0.189 C 
ENDROOT
BRANCH   1   2
HETATM    2  N           1     -28.553  -5.396 -16.564  0.00  0.00    -0.344 N 
HETATM    3  C           1     -29.673  -5.230 -17.333  0.00  0.00     0.249 C 
HETATM    4  O           1     -29.868  -5.951 -18.282  0.00  0.00    -0.271 OA
HETATM    5  H           1     -28.390  -4.792 -15.769  0.00  0.00     0.163 HD
BRANCH   3   6
HETATM    6  C           1     -30.667  -4.146 -16.993  0.00  0.00     0.274 C 
BRANCH   6   7
HETATM    7  N           1     -30.690  -3.128 -18.095  0.00  0.00    -0.067 N 
HETATM    8  H           1     -31.611  -3.169 -18.588  0.00  0.00     0.275 HD
HETATM    9  H           1     -30.554  -2.174 -17.691  0.00  0.00     0.275 HD
HETATM   10  H           1     -29.922  -3.333 -18.774  0.00  0.00     0.275 HD
ENDBRANCH   6   7
BRANCH   6  11
HETATM   11  C           1     -32.052  -4.756 -16.837  0.00  0.00     0.045 C 
BRANCH  11  12
HETATM   12 Se           1     -33.405  -3.395 -17.176  0.00  0.00     0.000 Se
HETATM   13  H           1     -33.978  -4.088 -18.342  0.00  0.00     0.000 HD
ENDBRANCH  11  12
ENDBRANCH   6  11
ENDBRANCH   3   6
ENDBRANCH   1   2
BRANCH   1  14
HETATM   14  C           1     -26.338  -5.808 -17.467  0.00  0.00     0.074 C 
BRANCH  14  15
HETATM   15  C           1     -25.947  -6.528 -18.720  0.00  0.00    -0.056 A 
HETATM   16  C           1     -24.639  -6.985 -18.884  0.00  0.00     0.010 A 
HETATM   17  C           1     -24.276  -7.656 -20.051  0.00  0.00     0.037 A 
HETATM   18  C           1     -25.219  -7.870 -21.056  0.00  0.00     0.065 A 
HETATM   19  C           1     -26.527  -7.415 -20.891  0.00  0.00     0.037 A 
HETATM   20  C           1     -26.891  -6.743 -19.724  0.00  0.00     0.010 A 
BRANCH  18  21
HETATM   21  O           1     -24.866  -8.522 -22.189  0.00  0.00    -0.361 OA
HETATM   22  H           1     -23.897  -8.593 -22.206  0.00  0.00     0.217 HD
ENDBRANCH  18  21
ENDBRANCH  14  15
ENDBRANCH   1  14
BRANCH   1  23
HETATM   23  C           1     -27.249  -7.209 -15.641  0.00  0.00     0.197 C 
HETATM   24  O           1     -28.157  -7.634 -14.895  0.00  0.00    -0.646 OA
HETATM   25  O           1     -26.052  -7.423 -15.352  0.00  0.00    -0.646 OA
ENDBRANCH   1  23
TORSDOF 9
ENDMDL
MODEL 5
REMARK VINA RESULT:      -5.8      3.832      7.430
REMARK  9 active torsions:
REMARK  status: ('A' for Active; 'I' for Inactive)
REMARK    1  A    between atoms: N_2  and  C_19 
REMARK       I    between atoms: N_2  and  C_3 
REMARK    2  A    between atoms: C_3  and  C_10 
REMARK    3  A    between atoms: N_7  and  C_10 
REMARK    4  A    between atoms: Se_8  and  C_9 
REMARK    5  A    between atoms: C_9  and  C_10 
REMARK    6  A    between atoms: O_11  and  C_12 
REMARK    7  A    between atoms: C_15  and  C_18 
REMARK    8  A    between atoms: C_18  and  C_19 
REMARK    9  A    between atoms: C_19  and  C_20 
ROOT
HETATM    1  C           1     -20.242  -8.130  -4.780  0.00  0.00     0.189 C 
ENDROOT
BRANCH   1   2
HETATM    2  N           1     -20.662  -7.523  -6.029  0.00  0.00    -0.344 N 
HETATM    3  C           1     -20.818  -6.166  -6.112  0.00  0.00     0.249 C 
HETATM    4  O           1     -20.606  -5.473  -5.145  0.00  0.00    -0.271 OA
HETATM    5  H           1     -20.838  -8.104  -6.839  0.00  0.00     0.163 HD
BRANCH   3   6
HETATM    6  C           1     -21.254  -5.534  -7.411  0.00  0.00     0.274 C 
BRANCH   6   7
HETATM    7  N           1     -22.305  -4.500  -7.134  0.00  0.00    -0.067 N 
HETATM    8  H           1     -22.662  -4.115  -8.038  0.00  0.00     0.275 HD
HETATM    9  H           1     -23.095  -4.938  -6.608  0.00  0.00     0.275 HD
HETATM   10  H           1     -21.891  -3.727  -6.566  0.00  0.00     0.275 HD
ENDBRANCH   6   7
BRANCH   6  11
HETATM   11  C           1     -20.058  -4.874  -8.083  0.00  0.00     0.045 C 
BRANCH  11  12
HETATM   12 Se           1     -20.556  -4.299  -9.877  0.00  0.00     0.000 Se
HETATM   13  H           1     -19.470  -3.310  -9.987  0.00  0.00     0.000 HD
ENDBRANCH  11  12
ENDBRANCH   6  11
ENDBRANCH   3   6
ENDBRANCH   1   2
BRANCH   1  14
HETATM   14  C           1     -21.326  -9.079  -4.289  0.00  0.00     0.074 C 
BRANCH  14  15
HETATM   15  C           1     -21.668  -8.755  -2.868  0.00  0.00    -0.056 A 
HETATM   16  C           1     -21.704  -7.427  -2.443  0.00  0.00     0.010 A 
HETATM   17  C           1     -22.023  -7.126  -1.119  0.00  0.00     0.037 A 
HETATM   18  C           1     -22.305  -8.153  -0.219  0.00  0.00     0.065 A 
HETATM   19  C           1     -22.270  -9.481  -0.643  0.00  0.00     0.037 A 
HETATM   20  C           1     -21.951  -9.783  -1.968  0.00  0.00     0.010 A 
BRANCH  18  21
HETATM   21  O           1     -22.615  -7.861   1.067  0.00  0.00    -0.361 OA
HETATM   22  H           1     -23.361  -8.425   1.333  0.00  0.00     0.217 HD
ENDBRANCH  18  21
ENDBRANCH  14  15
ENDBRANCH   1  14
BRANCH   1  23
HETATM   23  C           1     -18.962  -8.899  -5.001  0.00  0.00     0.197 C 
HETATM   24  O           1     -18.564  -9.129  -6.162  0.00  0.00    -0.646 OA
HETATM   25  O           1     -18.300  -9.305  -4.021  0.00  0.00    -0.646 OA
ENDBRANCH   1  23
TORSDOF 9
ENDMDL
MODEL 6
REMARK VINA RESULT:      -5.7      3.267      4.815
REMARK  9 active torsions:
REMARK  status: ('A' for Active; 'I' for Inactive)
REMARK    1  A    between atoms: N_2  and  C_19 
REMARK       I    between atoms: N_2  and  C_3 
REMARK    2  A    between atoms: C_3  and  C_10 
REMARK    3  A    between atoms: N_7  and  C_10 
REMARK    4  A    between atoms: Se_8  and  C_9 
REMARK    5  A    between atoms: C_9  and  C_10 
REMARK    6  A    between atoms: O_11  and  C_12 
REMARK    7  A    between atoms: C_15  and  C_18 
REMARK    8  A    between atoms: C_18  and  C_19 
REMARK    9  A    between atoms: C_19  and  C_20 
ROOT
HETATM    1  C           1     -21.330  -7.155  -4.038  0.00  0.00     0.189 C 
ENDROOT
BRANCH   1   2
HETATM    2  N           1     -21.444  -8.579  -4.290  0.00  0.00    -0.344 N 
HETATM    3  C           1     -20.365  -9.281  -4.754  0.00  0.00     0.249 C 
HETATM    4  O           1     -19.316  -8.715  -4.953  0.00  0.00    -0.271 OA
HETATM    5  H           1     -22.322  -9.053  -4.122  0.00  0.00     0.163 HD
BRANCH   3   6
HETATM    6  C           1     -20.484 -10.763  -5.016  0.00  0.00     0.274 C 
BRANCH   6   7
HETATM    7  N           1     -21.104 -10.982  -6.364  0.00  0.00    -0.067 N 
HETATM    8  H           1     -21.468 -11.960  -6.424  0.00  0.00     0.275 HD
HETATM    9  H           1     -21.892 -10.309  -6.499  0.00  0.00     0.275 HD
HETATM   10  H           1     -20.384 -10.832  -7.106  0.00  0.00     0.275 HD
ENDBRANCH   6   7
BRANCH   6  11
HETATM   11  C           1     -19.101 -11.398  -4.984  0.00  0.00     0.045 C 
BRANCH  11  12
HETATM   12 Se           1     -18.559 -11.866  -6.797  0.00  0.00     0.000 Se
HETATM   13  H           1     -18.031 -10.527  -7.110  0.00  0.00     0.000 HD
ENDBRANCH  11  12
ENDBRANCH   6  11
ENDBRANCH   3   6
ENDBRANCH   1   2
BRANCH   1  14
HETATM   14  C           1     -22.335  -6.405  -4.901  0.00  0.00     0.074 C 
BRANCH  14  15
HETATM   15  C           1     -21.607  -5.596  -5.928  0.00  0.00    -0.056 A 
HETATM   16  C           1     -20.213  -5.556  -5.927  0.00  0.00     0.010 A 
HETATM   17  C           1     -19.536  -4.803  -6.885  0.00  0.00     0.037 A 
HETATM   18  C           1     -20.252  -4.088  -7.845  0.00  0.00     0.065 A 
HETATM   19  C           1     -21.646  -4.129  -7.848  0.00  0.00     0.037 A 
HETATM   20  C           1     -22.324  -4.883  -6.889  0.00  0.00     0.010 A 
BRANCH  18  21
HETATM   21  O           1     -19.594  -3.356  -8.776  0.00  0.00    -0.361 OA
HETATM   22  H           1     -20.039  -3.487  -9.631  0.00  0.00     0.217 HD
ENDBRANCH  18  21
ENDBRANCH  14  15
ENDBRANCH   1  14
BRANCH   1  23
HETATM   23  C           1     -21.611  -6.879  -2.581  0.00  0.00     0.197 C 
HETATM   24  O           1     -22.426  -5.988  -2.261  0.00  0.00    -0.646 OA
HETATM   25  O           1     -21.028  -7.541  -1.695  0.00  0.00    -0.646 OA
ENDBRANCH   1  23
TORSDOF 9
ENDMDL
MODEL 7
REMARK VINA RESULT:      -5.6      6.247      9.009
REMARK  9 active torsions:
REMARK  status: ('A' for Active; 'I' for Inactive)
REMARK    1  A    between atoms: N_2  and  C_19 
REMARK       I    between atoms: N_2  and  C_3 
REMARK    2  A    between atoms: C_3  and  C_10 
REMARK    3  A    between atoms: N_7  and  C_10 
REMARK    4  A    between atoms: Se_8  and  C_9 
REMARK    5  A    between atoms: C_9  and  C_10 
REMARK    6  A    between atoms: O_11  and  C_12 
REMARK    7  A    between atoms: C_15  and  C_18 
REMARK    8  A    between atoms: C_18  and  C_19 
REMARK    9  A    between atoms: C_19  and  C_20 
ROOT
HETATM    1  C           1     -21.486  -8.108  -1.709  0.00  0.00     0.189 C 
ENDROOT
BRANCH   1   2
HETATM    2  N           1     -20.081  -8.204  -2.058  0.00  0.00    -0.344 N 
HETATM    3  C           1     -19.620  -9.293  -2.746  0.00  0.00     0.249 C 
HETATM    4  O           1     -20.381 -10.175  -3.063  0.00  0.00    -0.271 OA
HETATM    5  H           1     -19.443  -7.464  -1.792  0.00  0.00     0.163 HD
BRANCH   3   6
HETATM    6  C           1     -18.158  -9.393  -3.108  0.00  0.00     0.274 C 
BRANCH   6   7
HETATM    7  N           1     -17.520 -10.493  -2.312  0.00  0.00    -0.067 N 
HETATM    8  H           1     -17.275 -11.285  -2.947  0.00  0.00     0.275 HD
HETATM    9  H           1     -16.653 -10.133  -1.853  0.00  0.00     0.275 HD
HETATM   10  H           1     -18.190 -10.825  -1.581  0.00  0.00     0.275 HD
ENDBRANCH   6   7
BRANCH   6  11
HETATM   11  C           1     -18.021  -9.697  -4.593  0.00  0.00     0.045 C 
BRANCH  11  12
HETATM   12 Se           1     -16.157 -10.083  -5.010  0.00  0.00     0.000 Se
HETATM   13  H           1     -15.682  -9.860  -3.634  0.00  0.00     0.000 HD
ENDBRANCH  11  12
ENDBRANCH   6  11
ENDBRANCH   3   6
ENDBRANCH   1   2
BRANCH   1  14
HETATM   14  C           1     -21.656  -8.353  -0.217  0.00  0.00     0.074 C 
BRANCH  14  15
HETATM   15  C           1     -22.136  -9.753   0.009  0.00  0.00    -0.056 A 
HETATM   16  C           1     -23.460 -10.091  -0.273  0.00  0.00     0.010 A 
HETATM   17  C           1     -23.906 -11.395  -0.064  0.00  0.00     0.037 A 
HETATM   18  C           1     -23.030 -12.363   0.428  0.00  0.00     0.065 A 
HETATM   19  C           1     -21.706 -12.025   0.709  0.00  0.00     0.037 A 
HETATM   20  C           1     -21.259 -10.720   0.500  0.00  0.00     0.010 A 
BRANCH  18  21
HETATM   21  O           1     -23.464 -13.629   0.632  0.00  0.00    -0.361 OA
HETATM   22  H           1     -24.055 -13.625   1.404  0.00  0.00     0.217 HD
ENDBRANCH  18  21
ENDBRANCH  14  15
ENDBRANCH   1  14
BRANCH   1  23
HETATM   23  C           1     -21.996  -6.730  -2.055  0.00  0.00     0.197 C 
HETATM   24  O           1     -22.432  -5.981  -1.154  0.00  0.00    -0.646 OA
HETATM   25  O           1     -21.983  -6.338  -3.242  0.00  0.00    -0.646 OA
ENDBRANCH   1  23
TORSDOF 9
ENDMDL
MODEL 8
REMARK VINA RESULT:      -5.5      4.804      7.740
REMARK  9 active torsions:
REMARK  status: ('A' for Active; 'I' for Inactive)
REMARK    1  A    between atoms: N_2  and  C_19 
REMARK       I    between atoms: N_2  and  C_3 
REMARK    2  A    between atoms: C_3  and  C_10 
REMARK    3  A    between atoms: N_7  and  C_10 
REMARK    4  A    between atoms: Se_8  and  C_9 
REMARK    5  A    between atoms: C_9  and  C_10 
REMARK    6  A    between atoms: O_11  and  C_12 
REMARK    7  A    between atoms: C_15  and  C_18 
REMARK    8  A    between atoms: C_18  and  C_19 
REMARK    9  A    between atoms: C_19  and  C_20 
ROOT
HETATM    1  C           1     -20.903  -8.687  -4.757  0.00  0.00     0.189 C 
ENDROOT
BRANCH   1   2
HETATM    2  N           1     -20.338  -9.803  -5.492  0.00  0.00    -0.344 N 
HETATM    3  C           1     -20.894 -11.048  -5.380  0.00  0.00     0.249 C 
HETATM    4  O           1     -21.856 -11.219  -4.671  0.00  0.00    -0.271 OA
HETATM    5  H           1     -19.532  -9.659  -6.087  0.00  0.00     0.163 HD
BRANCH   3   6
HETATM    6  C           1     -20.305 -12.209  -6.145  0.00  0.00     0.274 C 
BRANCH   6   7
HETATM    7  N           1     -21.235 -12.595  -7.257  0.00  0.00    -0.067 N 
HETATM    8  H           1     -20.678 -12.914  -8.082  0.00  0.00     0.275 HD
HETATM    9  H           1     -21.858 -13.371  -6.938  0.00  0.00     0.275 HD
HETATM   10  H           1     -21.816 -11.770  -7.527  0.00  0.00     0.275 HD
ENDBRANCH   6   7
BRANCH   6  11
HETATM   11  C           1     -18.958 -11.804  -6.727  0.00  0.00     0.045 C 
BRANCH  11  12
HETATM   12 Se           1     -18.684 -12.716  -8.428  0.00  0.00     0.000 Se
HETATM   13  H           1     -17.259 -12.358  -8.523  0.00  0.00     0.000 HD
ENDBRANCH  11  12
ENDBRANCH   6  11
ENDBRANCH   3   6
ENDBRANCH   1   2
BRANCH   1  14
HETATM   14  C           1     -20.102  -8.462  -3.482  0.00  0.00     0.074 C 
BRANCH  14  15
HETATM   15  C           1     -21.037  -8.319  -2.322  0.00  0.00    -0.056 A 
HETATM   16  C           1     -21.438  -9.446  -1.605  0.00  0.00     0.010 A 
HETATM   17  C           1     -22.308  -9.312  -0.524  0.00  0.00     0.037 A 
HETATM   18  C           1     -22.779  -8.051  -0.159  0.00  0.00     0.065 A 
HETATM   19  C           1     -22.378  -6.924  -0.875  0.00  0.00     0.037 A 
HETATM   20  C           1     -21.507  -7.057  -1.957  0.00  0.00     0.010 A 
BRANCH  18  21
HETATM   21  O           1     -23.624  -7.921   0.891  0.00  0.00    -0.361 OA
HETATM   22  H           1     -24.436  -7.490   0.573  0.00  0.00     0.217 HD
ENDBRANCH  18  21
ENDBRANCH  14  15
ENDBRANCH   1  14
BRANCH   1  23
HETATM   23  C           1     -20.851  -7.444  -5.611  0.00  0.00     0.197 C 
HETATM   24  O           1     -21.810  -6.644  -5.608  0.00  0.00    -0.646 OA
HETATM   25  O           1     -19.848  -7.216  -6.322  0.00  0.00    -0.646 OA
ENDBRANCH   1  23
TORSDOF 9
ENDMDL
MODEL 9
REMARK VINA RESULT:      -5.5      3.119      4.671
REMARK  9 active torsions:
REMARK  status: ('A' for Active; 'I' for Inactive)
REMARK    1  A    between atoms: N_2  and  C_19 
REMARK       I    between atoms: N_2  and  C_3 
REMARK    2  A    between atoms: C_3  and  C_10 
REMARK    3  A    between atoms: N_7  and  C_10 
REMARK    4  A    between atoms: Se_8  and  C_9 
REMARK    5  A    between atoms: C_9  and  C_10 
REMARK    6  A    between atoms: O_11  and  C_12 
REMARK    7  A    between atoms: C_15  and  C_18 
REMARK    8  A    between atoms: C_18  and  C_19 
REMARK    9  A    between atoms: C_19  and  C_20 
ROOT
HETATM    1  C           1     -21.327  -7.220  -3.954  0.00  0.00     0.189 C 
ENDROOT
BRANCH   1   2
HETATM    2  N           1     -21.403  -8.659  -4.124  0.00  0.00    -0.344 N 
HETATM    3  C           1     -20.281  -9.369  -4.454  0.00  0.00     0.249 C 
HETATM    4  O           1     -19.226  -8.800  -4.602  0.00  0.00    -0.271 OA
HETATM    5  H           1     -22.287  -9.136  -3.999  0.00  0.00     0.163 HD
BRANCH   3   6
HETATM    6  C           1     -20.360 -10.867  -4.631  0.00  0.00     0.274 C 
BRANCH   6   7
HETATM    7  N           1     -21.047 -11.473  -3.443  0.00  0.00    -0.067 N 
HETATM    8  H           1     -22.076 -11.306  -3.513  0.00  0.00     0.275 HD
HETATM    9  H           1     -20.863 -12.501  -3.421  0.00  0.00     0.275 HD
HETATM   10  H           1     -20.682 -11.034  -2.568  0.00  0.00     0.275 HD
ENDBRANCH   6   7
BRANCH   6  11
HETATM   11  C           1     -21.148 -11.189  -5.892  0.00  0.00     0.045 C 
BRANCH  11  12
HETATM   12 Se           1     -22.421 -12.617  -5.517  0.00  0.00     0.000 Se
HETATM   13  H           1     -22.742 -12.861  -6.933  0.00  0.00     0.000 HD
ENDBRANCH  11  12
ENDBRANCH   6  11
ENDBRANCH   3   6
ENDBRANCH   1   2
BRANCH   1  14
HETATM   14  C           1     -22.337  -6.547  -4.872  0.00  0.00     0.074 C 
BRANCH  14  15
HETATM   15  C           1     -21.616  -5.700  -5.873  0.00  0.00    -0.056 A 
HETATM   16  C           1     -22.338  -4.928  -6.783  0.00  0.00     0.010 A 
HETATM   17  C           1     -21.665  -4.138  -7.716  0.00  0.00     0.037 A 
HETATM   18  C           1     -20.271  -4.120  -7.739  0.00  0.00     0.065 A 
HETATM   19  C           1     -19.549  -4.891  -6.828  0.00  0.00     0.037 A 
HETATM   20  C           1     -20.221  -5.682  -5.895  0.00  0.00     0.010 A 
BRANCH  18  21
HETATM   21  O           1     -19.618  -3.353  -8.645  0.00  0.00    -0.361 OA
HETATM   22  H           1     -19.358  -2.525  -8.206  0.00  0.00     0.217 HD
ENDBRANCH  18  21
ENDBRANCH  14  15
ENDBRANCH   1  14
BRANCH   1  23
HETATM   23  C           1     -21.636  -6.867  -2.519  0.00  0.00     0.197 C 
HETATM   24  O           1     -21.102  -7.508  -1.589  0.00  0.00    -0.646 OA
HETATM   25  O           1     -22.425  -5.933  -2.262  0.00  0.00    -0.646 OA
ENDBRANCH   1  23
TORSDOF 9
ENDMDL
