MODEL 1
REMARK VINA RESULT:      -6.7      0.000      0.000
REMARK  7 active torsions:
REMARK  status: ('A' for Active; 'I' for Inactive)
REMARK    1  A    between atoms: N_1  and  C_11 
REMARK    2  A    between atoms: N_4  and  C_19 
REMARK       I    between atoms: N_4  and  C_5 
REMARK    3  A    between atoms: C_5  and  C_11 
REMARK    4  A    between atoms: C_11  and  C_21 
REMARK    5  A    between atoms: C_14  and  C_21 
REMARK    6  A    between atoms: C_15  and  C_19 
REMARK    7  A    between atoms: C_18  and  C_19 
ROOT
HETATM    1  C           1     -21.169  -5.645  -6.852  0.00  0.00     0.280 C 
ENDROOT
BRANCH   1   2
HETATM    2  N           1     -19.991  -6.262  -7.544  0.00  0.00    -0.066 N 
HETATM    3  H           1     -20.037  -6.050  -8.567  0.00  0.00     0.275 HD
HETATM    4  H           1     -19.108  -5.869  -7.146  0.00  0.00     0.275 HD
HETATM    5  H           1     -20.006  -7.298  -7.402  0.00  0.00     0.275 HD
ENDBRANCH   1   2
BRANCH   1   6
HETATM    6  C           1     -21.684  -4.489  -7.673  0.00  0.00     0.249 C 
HETATM    7  O           1     -21.645  -3.366  -7.228  0.00  0.00    -0.271 OA
HETATM    8  N           1     -22.198  -4.712  -8.923  0.00  0.00    -0.344 N 
HETATM    9  H           1     -22.231  -5.651  -9.295  0.00  0.00     0.163 HD
BRANCH   8  10
HETATM   10  C           1     -22.693  -3.601  -9.712  0.00  0.00     0.189 C 
BRANCH  10  11
HETATM   11  C           1     -21.887  -3.493 -11.000  0.00  0.00     0.010 C 
HETATM   12  C           1     -22.229  -4.662 -11.913  0.00  0.00     0.012 C 
HETATM   13  C           1     -20.401  -3.523 -10.672  0.00  0.00     0.012 C 
ENDBRANCH  10  11
BRANCH  10  14
HETATM   14  C           1     -24.146  -3.831 -10.047  0.00  0.00     0.197 C 
HETATM   15  O           1     -24.807  -2.933 -10.611  0.00  0.00    -0.646 OA
HETATM   16  O           1     -24.689  -4.919  -9.758  0.00  0.00    -0.646 OA
ENDBRANCH  10  14
ENDBRANCH   8  10
ENDBRANCH   1   6
BRANCH   1  17
HETATM   17  C           1     -20.744  -5.143  -5.478  0.00  0.00     0.101 C 
BRANCH  17  18
HETATM   18  C           1     -21.115  -6.155  -4.439  0.00  0.00     0.028 A 
HETATM   19  C           1     -21.119  -7.515  -4.639  0.00  0.00     0.114 A 
HETATM   20  N           1     -21.515  -8.048  -3.444  0.00  0.00    -0.360 N 
HETATM   21  H           1     -21.631  -9.069  -3.228  0.00  0.00     0.166 HD
HETATM   22  C           1     -21.732  -7.010  -2.584  0.00  0.00     0.180 A 
HETATM   23  N           1     -21.498  -5.852  -3.158  0.00  0.00    -0.355 N 
ATOM     24  HN          1     -21.584  -4.925  -2.740  1.00  0.00     0.166 HD
ENDBRANCH  17  18
ENDBRANCH   1  17
TORSDOF 7
ENDMDL
MODEL 2
REMARK VINA RESULT:      -6.4      2.774      6.728
REMARK  7 active torsions:
REMARK  status: ('A' for Active; 'I' for Inactive)
REMARK    1  A    between atoms: N_1  and  C_11 
REMARK    2  A    between atoms: N_4  and  C_19 
REMARK       I    between atoms: N_4  and  C_5 
REMARK    3  A    between atoms: C_5  and  C_11 
REMARK    4  A    between atoms: C_11  and  C_21 
REMARK    5  A    between atoms: C_14  and  C_21 
REMARK    6  A    between atoms: C_15  and  C_19 
REMARK    7  A    between atoms: C_18  and  C_19 
ROOT
HETATM    1  C           1     -21.930  -4.434  -7.036  0.00  0.00     0.280 C 
ENDROOT
BRANCH   1   2
HETATM    2  N           1     -21.441  -3.017  -7.014  0.00  0.00    -0.066 N 
HETATM    3  H           1     -21.750  -2.555  -6.128  0.00  0.00     0.275 HD
HETATM    4  H           1     -20.397  -3.008  -7.065  0.00  0.00     0.275 HD
HETATM    5  H           1     -21.834  -2.500  -7.832  0.00  0.00     0.275 HD
ENDBRANCH   1   2
BRANCH   1   6
HETATM    6  C           1     -21.027  -5.290  -6.181  0.00  0.00     0.249 C 
HETATM    7  O           1     -19.835  -5.096  -6.180  0.00  0.00    -0.271 OA
HETATM    8  N           1     -21.559  -6.287  -5.408  0.00  0.00    -0.344 N 
HETATM    9  H           1     -22.558  -6.449  -5.409  0.00  0.00     0.163 HD
BRANCH   8  10
HETATM   10  C           1     -20.692  -7.109  -4.587  0.00  0.00     0.189 C 
BRANCH  10  11
HETATM   11  C           1     -21.406  -7.463  -3.289  0.00  0.00     0.010 C 
HETATM   12  C           1     -21.856  -6.186  -2.592  0.00  0.00     0.012 C 
HETATM   13  C           1     -20.455  -8.230  -2.380  0.00  0.00     0.012 C 
ENDBRANCH  10  11
BRANCH  10  14
HETATM   14  C           1     -20.347  -8.375  -5.332  0.00  0.00     0.197 C 
HETATM   15  O           1     -19.155  -8.635  -5.604  0.00  0.00    -0.646 OA
HETATM   16  O           1     -21.253  -9.162  -5.679  0.00  0.00    -0.646 OA
ENDBRANCH  10  14
ENDBRANCH   8  10
ENDBRANCH   1   6
BRANCH   1  17
HETATM   17  C           1     -21.916  -4.954  -8.468  0.00  0.00     0.101 C 
BRANCH  17  18
HETATM   18  C           1     -23.105  -4.419  -9.205  0.00  0.00     0.028 A 
HETATM   19  C           1     -23.334  -4.595 -10.549  0.00  0.00     0.114 A 
HETATM   20  N           1     -24.515  -3.950 -10.794  0.00  0.00    -0.360 N 
HETATM   21  H           1     -25.001  -3.877 -11.722  0.00  0.00     0.166 HD
HETATM   22  C           1     -24.945  -3.418  -9.612  0.00  0.00     0.180 A 
HETATM   23  N           1     -24.111  -3.686  -8.633  0.00  0.00    -0.355 N 
ATOM     24  HN          1     -24.195  -3.407  -7.655  1.00  0.00     0.166 HD
ENDBRANCH  17  18
ENDBRANCH   1  17
TORSDOF 7
ENDMDL
MODEL 3
REMARK VINA RESULT:      -6.4      2.660      6.757
REMARK  7 active torsions:
REMARK  status: ('A' for Active; 'I' for Inactive)
REMARK    1  A    between atoms: N_1  and  C_11 
REMARK    2  A    between atoms: N_4  and  C_19 
REMARK       I    between atoms: N_4  and  C_5 
REMARK    3  A    between atoms: C_5  and  C_11 
REMARK    4  A    between atoms: C_11  and  C_21 
REMARK    5  A    between atoms: C_14  and  C_21 
REMARK    6  A    between atoms: C_15  and  C_19 
REMARK    7  A    between atoms: C_18  and  C_19 
ROOT
HETATM    1  C           1     -21.222  -4.778  -6.542  0.00  0.00     0.280 C 
ENDROOT
BRANCH   1   2
HETATM    2  N           1     -19.776  -4.569  -6.204  0.00  0.00    -0.066 N 
HETATM    3  H           1     -19.201  -5.321  -6.648  0.00  0.00     0.275 HD
HETATM    4  H           1     -19.466  -3.637  -6.562  0.00  0.00     0.275 HD
HETATM    5  H           1     -19.653  -4.602  -5.167  0.00  0.00     0.275 HD
ENDBRANCH   1   2
BRANCH   1   6
HETATM    6  C           1     -21.823  -5.772  -5.579  0.00  0.00     0.249 C 
HETATM    7  O           1     -23.023  -5.907  -5.519  0.00  0.00    -0.271 OA
HETATM    8  N           1     -21.010  -6.523  -4.772  0.00  0.00    -0.344 N 
HETATM    9  H           1     -20.006  -6.410  -4.822  0.00  0.00     0.163 HD
BRANCH   8  10
HETATM   10  C           1     -21.588  -7.478  -3.847  0.00  0.00     0.189 C 
BRANCH  10  11
HETATM   11  C           1     -20.755  -8.753  -3.846  0.00  0.00     0.010 C 
HETATM   12  C           1     -19.635  -8.629  -4.871  0.00  0.00     0.012 C 
HETATM   13  C           1     -21.641  -9.938  -4.204  0.00  0.00     0.012 C 
ENDBRANCH  10  11
BRANCH  10  14
HETATM   14  C           1     -21.603  -6.886  -2.459  0.00  0.00     0.197 C 
HETATM   15  O           1     -20.890  -7.382  -1.561  0.00  0.00    -0.646 OA
HETATM   16  O           1     -22.330  -5.901  -2.207  0.00  0.00    -0.646 OA
ENDBRANCH  10  14
ENDBRANCH   8  10
ENDBRANCH   1   6
BRANCH   1  17
HETATM   17  C           1     -21.338  -5.313  -7.964  0.00  0.00     0.101 C 
BRANCH  17  18
HETATM   18  C           1     -22.382  -4.539  -8.706  0.00  0.00     0.028 A 
HETATM   19  C           1     -22.276  -4.143 -10.018  0.00  0.00     0.114 A 
HETATM   20  N           1     -23.438  -3.473 -10.281  0.00  0.00    -0.360 N 
HETATM   21  H           1     -23.705  -3.028 -11.194  0.00  0.00     0.166 HD
HETATM   22  C           1     -24.188  -3.488  -9.139  0.00  0.00     0.180 A 
HETATM   23  N           1     -23.574  -4.126  -8.169  0.00  0.00    -0.355 N 
ATOM     24  HN          1     -23.911  -4.280  -7.219  1.00  0.00     0.166 HD
ENDBRANCH  17  18
ENDBRANCH   1  17
TORSDOF 7
ENDMDL
MODEL 4
REMARK VINA RESULT:      -6.1     15.220     15.991
REMARK  7 active torsions:
REMARK  status: ('A' for Active; 'I' for Inactive)
REMARK    1  A    between atoms: N_1  and  C_11 
REMARK    2  A    between atoms: N_4  and  C_19 
REMARK       I    between atoms: N_4  and  C_5 
REMARK    3  A    between atoms: C_5  and  C_11 
REMARK    4  A    between atoms: C_11  and  C_21 
REMARK    5  A    between atoms: C_14  and  C_21 
REMARK    6  A    between atoms: C_15  and  C_19 
REMARK    7  A    between atoms: C_18  and  C_19 
ROOT
HETATM    1  C           1     -36.800  -0.598 -10.588  0.00  0.00     0.280 C 
ENDROOT
BRANCH   1   2
HETATM    2  N           1     -35.440  -1.064 -10.162  0.00  0.00    -0.066 N 
HETATM    3  H           1     -34.963  -0.303  -9.626  0.00  0.00     0.275 HD
HETATM    4  H           1     -35.536  -1.909  -9.555  0.00  0.00     0.275 HD
HETATM    5  H           1     -34.873  -1.302 -11.007  0.00  0.00     0.275 HD
ENDBRANCH   1   2
BRANCH   1   6
HETATM    6  C           1     -36.862  -0.543 -12.095  0.00  0.00     0.249 C 
HETATM    7  O           1     -37.930  -0.459 -12.653  0.00  0.00    -0.271 OA
HETATM    8  N           1     -35.708  -0.589 -12.830  0.00  0.00    -0.344 N 
HETATM    9  H           1     -34.814  -0.659 -12.363  0.00  0.00     0.163 HD
BRANCH   8  10
HETATM   10  C           1     -35.767  -0.536 -14.278  0.00  0.00     0.189 C 
BRANCH  10  11
HETATM   11  C           1     -34.986   0.672 -14.776  0.00  0.00     0.010 C 
HETATM   12  C           1     -34.470   1.469 -13.585  0.00  0.00     0.012 C 
HETATM   13  C           1     -35.897   1.553 -15.619  0.00  0.00     0.012 C 
ENDBRANCH  10  11
BRANCH  10  14
HETATM   14  C           1     -35.165  -1.796 -14.851  0.00  0.00     0.197 C 
HETATM   15  O           1     -35.131  -1.965 -16.089  0.00  0.00    -0.646 OA
HETATM   16  O           1     -34.701  -2.670 -14.088  0.00  0.00    -0.646 OA
ENDBRANCH  10  14
ENDBRANCH   8  10
ENDBRANCH   1   6
BRANCH   1  17
HETATM   17  C           1     -37.062   0.790 -10.018  0.00  0.00     0.101 C 
BRANCH  17  18
HETATM   18  C           1     -37.277   0.691  -8.540  0.00  0.00     0.028 A 
HETATM   19  C           1     -38.000  -0.300  -7.920  0.00  0.00     0.114 A 
HETATM   20  N           1     -37.937  -0.004  -6.587  0.00  0.00    -0.360 N 
HETATM   21  H           1     -38.380  -0.551  -5.808  0.00  0.00     0.166 HD
HETATM   22  C           1     -37.194   1.134  -6.454  0.00  0.00     0.180 A 
HETATM   23  N           1     -36.781   1.578  -7.619  0.00  0.00    -0.355 N 
ATOM     24  HN          1     -36.213   2.406  -7.801  1.00  0.00     0.166 HD
ENDBRANCH  17  18
ENDBRANCH   1  17
TORSDOF 7
ENDMDL
MODEL 5
REMARK VINA RESULT:      -6.0      2.714      6.964
REMARK  7 active torsions:
REMARK  status: ('A' for Active; 'I' for Inactive)
REMARK    1  A    between atoms: N_1  and  C_11 
REMARK    2  A    between atoms: N_4  and  C_19 
REMARK       I    between atoms: N_4  and  C_5 
REMARK    3  A    between atoms: C_5  and  C_11 
REMARK    4  A    between atoms: C_11  and  C_21 
REMARK    5  A    between atoms: C_14  and  C_21 
REMARK    6  A    between atoms: C_15  and  C_19 
REMARK    7  A    between atoms: C_18  and  C_19 
ROOT
HETATM    1  C           1     -22.271  -5.133  -6.894  0.00  0.00     0.280 C 
ENDROOT
BRANCH   1   2
HETATM    2  N           1     -23.610  -4.884  -6.267  0.00  0.00    -0.066 N 
HETATM    3  H           1     -23.786  -5.601  -5.526  0.00  0.00     0.275 HD
HETATM    4  H           1     -23.622  -3.931  -5.838  0.00  0.00     0.275 HD
HETATM    5  H           1     -24.354  -4.948  -6.997  0.00  0.00     0.275 HD
ENDBRANCH   1   2
BRANCH   1   6
HETATM    6  C           1     -21.322  -5.676  -5.853  0.00  0.00     0.249 C 
HETATM    7  O           1     -20.225  -5.188  -5.720  0.00  0.00    -0.271 OA
HETATM    8  N           1     -21.705  -6.725  -5.060  0.00  0.00    -0.344 N 
HETATM    9  H           1     -22.623  -7.134  -5.171  0.00  0.00     0.163 HD
BRANCH   8  10
HETATM   10  C           1     -20.794  -7.247  -4.060  0.00  0.00     0.189 C 
BRANCH  10  11
HETATM   11  C           1     -21.539  -7.445  -2.746  0.00  0.00     0.010 C 
HETATM   12  C           1     -22.096  -6.109  -2.272  0.00  0.00     0.012 C 
HETATM   13  C           1     -20.583  -7.996  -1.698  0.00  0.00     0.012 C 
ENDBRANCH  10  11
BRANCH  10  14
HETATM   14  C           1     -20.241  -8.571  -4.528  0.00  0.00     0.197 C 
HETATM   15  O           1     -21.018  -9.496  -4.845  0.00  0.00    -0.646 OA
HETATM   16  O           1     -19.004  -8.743  -4.595  0.00  0.00    -0.646 OA
ENDBRANCH  10  14
ENDBRANCH   8  10
ENDBRANCH   1   6
BRANCH   1  17
HETATM   17  C           1     -21.720  -3.825  -7.449  0.00  0.00     0.101 C 
BRANCH  17  18
HETATM   18  C           1     -21.384  -4.000  -8.897  0.00  0.00     0.028 A 
HETATM   19  C           1     -20.198  -4.511  -9.368  0.00  0.00     0.114 A 
HETATM   20  N           1     -20.318  -4.490 -10.730  0.00  0.00    -0.360 N 
HETATM   21  H           1     -19.596  -4.810 -11.422  0.00  0.00     0.166 HD
HETATM   22  C           1     -21.549  -3.975 -11.025  0.00  0.00     0.180 A 
HETATM   23  N           1     -22.216  -3.669  -9.936  0.00  0.00    -0.355 N 
ATOM     24  HN          1     -23.153  -3.270  -9.875  1.00  0.00     0.166 HD
ENDBRANCH  17  18
ENDBRANCH   1  17
TORSDOF 7
ENDMDL
MODEL 6
REMARK VINA RESULT:      -5.9      4.486      8.087
REMARK  7 active torsions:
REMARK  status: ('A' for Active; 'I' for Inactive)
REMARK    1  A    between atoms: N_1  and  C_11 
REMARK    2  A    between atoms: N_4  and  C_19 
REMARK       I    between atoms: N_4  and  C_5 
REMARK    3  A    between atoms: C_5  and  C_11 
REMARK    4  A    between atoms: C_11  and  C_21 
REMARK    5  A    between atoms: C_14  and  C_21 
REMARK    6  A    between atoms: C_15  and  C_19 
REMARK    7  A    between atoms: C_18  and  C_19 
ROOT
HETATM    1  C           1     -20.508  -7.551  -4.608  0.00  0.00     0.280 C 
ENDROOT
BRANCH   1   2
HETATM    2  N           1     -21.099  -8.384  -5.706  0.00  0.00    -0.066 N 
HETATM    3  H           1     -20.402  -9.099  -6.016  0.00  0.00     0.275 HD
HETATM    4  H           1     -21.958  -8.865  -5.354  0.00  0.00     0.275 HD
HETATM    5  H           1     -21.349  -7.769  -6.514  0.00  0.00     0.275 HD
ENDBRANCH   1   2
BRANCH   1   6
HETATM    6  C           1     -20.443  -8.367  -3.340  0.00  0.00     0.249 C 
HETATM    7  O           1     -19.416  -8.925  -3.032  0.00  0.00    -0.271 OA
HETATM    8  N           1     -21.548  -8.476  -2.539  0.00  0.00    -0.344 N 
HETATM    9  H           1     -22.407  -8.009  -2.797  0.00  0.00     0.163 HD
BRANCH   8  10
HETATM   10  C           1     -21.485  -9.259  -1.320  0.00  0.00     0.189 C 
BRANCH  10  11
HETATM   11  C           1     -22.189  -8.510  -0.197  0.00  0.00     0.010 C 
HETATM   12  C           1     -22.433  -7.068  -0.622  0.00  0.00     0.012 C 
HETATM   13  C           1     -21.318  -8.530   1.051  0.00  0.00     0.012 C 
ENDBRANCH  10  11
BRANCH  10  14
HETATM   14  C           1     -22.166 -10.588  -1.542  0.00  0.00     0.197 C 
HETATM   15  O           1     -23.394 -10.703  -1.339  0.00  0.00    -0.646 OA
HETATM   16  O           1     -21.501 -11.574  -1.928  0.00  0.00    -0.646 OA
ENDBRANCH  10  14
ENDBRANCH   8  10
ENDBRANCH   1   6
BRANCH   1  17
HETATM   17  C           1     -21.378  -6.322  -4.378  0.00  0.00     0.101 C 
BRANCH  17  18
HETATM   18  C           1     -21.290  -5.417  -5.567  0.00  0.00     0.028 A 
HETATM   19  C           1     -20.135  -4.815  -6.006  0.00  0.00     0.114 A 
HETATM   20  N           1     -20.509  -4.089  -7.103  0.00  0.00    -0.360 N 
HETATM   21  H           1     -19.880  -3.495  -7.698  0.00  0.00     0.166 HD
HETATM   22  C           1     -21.850  -4.275  -7.280  0.00  0.00     0.180 A 
HETATM   23  N           1     -22.350  -5.074  -6.366  0.00  0.00    -0.355 N 
ATOM     24  HN          1     -23.320  -5.375  -6.269  1.00  0.00     0.166 HD
ENDBRANCH  17  18
ENDBRANCH   1  17
TORSDOF 7
ENDMDL
MODEL 7
REMARK VINA RESULT:      -5.8      4.492      8.687
REMARK  7 active torsions:
REMARK  status: ('A' for Active; 'I' for Inactive)
REMARK    1  A    between atoms: N_1  and  C_11 
REMARK    2  A    between atoms: N_4  and  C_19 
REMARK       I    between atoms: N_4  and  C_5 
REMARK    3  A    between atoms: C_5  and  C_11 
REMARK    4  A    between atoms: C_11  and  C_21 
REMARK    5  A    between atoms: C_14  and  C_21 
REMARK    6  A    between atoms: C_15  and  C_19 
REMARK    7  A    between atoms: C_18  and  C_19 
ROOT
HETATM    1  C           1     -20.851  -7.216  -3.417  0.00  0.00     0.280 C 
ENDROOT
BRANCH   1   2
HETATM    2  N           1     -20.091  -8.387  -3.965  0.00  0.00    -0.066 N 
HETATM    3  H           1     -20.721  -8.959  -4.572  0.00  0.00     0.275 HD
HETATM    4  H           1     -19.282  -8.043  -4.531  0.00  0.00     0.275 HD
HETATM    5  H           1     -19.740  -8.975  -3.176  0.00  0.00     0.275 HD
ENDBRANCH   1   2
BRANCH   1   6
HETATM    6  C           1     -21.619  -7.647  -2.191  0.00  0.00     0.249 C 
HETATM    7  O           1     -22.289  -6.845  -1.585  0.00  0.00    -0.271 OA
HETATM    8  N           1     -21.557  -8.947  -1.765  0.00  0.00    -0.344 N 
HETATM    9  H           1     -20.996  -9.618  -2.273  0.00  0.00     0.163 HD
BRANCH   8  10
HETATM   10  C           1     -22.295  -9.361  -0.588  0.00  0.00     0.189 C 
BRANCH  10  11
HETATM   11  C           1     -22.822 -10.775  -0.789  0.00  0.00     0.010 C 
HETATM   12  C           1     -22.977 -11.053  -2.279  0.00  0.00     0.012 C 
HETATM   13  C           1     -24.174 -10.915  -0.104  0.00  0.00     0.012 C 
ENDBRANCH  10  11
BRANCH  10  14
HETATM   14  C           1     -21.382  -9.331   0.613  0.00  0.00     0.197 C 
HETATM   15  O           1     -20.639 -10.305   0.858  0.00  0.00    -0.646 OA
HETATM   16  O           1     -21.371  -8.332   1.364  0.00  0.00    -0.646 OA
ENDBRANCH  10  14
ENDBRANCH   8  10
ENDBRANCH   1   6
BRANCH   1  17
HETATM   17  C           1     -21.823  -6.703  -4.472  0.00  0.00     0.101 C 
BRANCH  17  18
HETATM   18  C           1     -21.058  -6.053  -5.582  0.00  0.00     0.028 A 
HETATM   19  C           1     -20.390  -4.856  -5.474  0.00  0.00     0.114 A 
HETATM   20  N           1     -19.841  -4.644  -6.708  0.00  0.00    -0.360 N 
HETATM   21  H           1     -19.257  -3.820  -6.994  0.00  0.00     0.166 HD
HETATM   22  C           1     -20.192  -5.700  -7.500  0.00  0.00     0.180 A 
HETATM   23  N           1     -20.929  -6.568  -6.846  0.00  0.00    -0.355 N 
ATOM     24  HN          1     -21.322  -7.440  -7.202  1.00  0.00     0.166 HD
ENDBRANCH  17  18
ENDBRANCH   1  17
TORSDOF 7
ENDMDL
MODEL 8
REMARK VINA RESULT:      -5.7      3.505      7.174
REMARK  7 active torsions:
REMARK  status: ('A' for Active; 'I' for Inactive)
REMARK    1  A    between atoms: N_1  and  C_11 
REMARK    2  A    between atoms: N_4  and  C_19 
REMARK       I    between atoms: N_4  and  C_5 
REMARK    3  A    between atoms: C_5  and  C_11 
REMARK    4  A    between atoms: C_11  and  C_21 
REMARK    5  A    between atoms: C_14  and  C_21 
REMARK    6  A    between atoms: C_15  and  C_19 
REMARK    7  A    between atoms: C_18  and  C_19 
ROOT
HETATM    1  C           1     -21.578  -6.308  -5.568  0.00  0.00     0.280 C 
ENDROOT
BRANCH   1   2
HETATM    2  N           1     -22.133  -6.142  -4.185  0.00  0.00    -0.066 N 
HETATM    3  H           1     -21.542  -6.673  -3.506  0.00  0.00     0.275 HD
HETATM    4  H           1     -22.132  -5.129  -3.929  0.00  0.00     0.275 HD
HETATM    5  H           1     -23.112  -6.508  -4.156  0.00  0.00     0.275 HD
ENDBRANCH   1   2
BRANCH   1   6
HETATM    6  C           1     -20.476  -7.339  -5.545  0.00  0.00     0.249 C 
HETATM    7  O           1     -19.584  -7.288  -6.359  0.00  0.00    -0.271 OA
HETATM    8  N           1     -20.486  -8.332  -4.603  0.00  0.00    -0.344 N 
HETATM    9  H           1     -21.232  -8.374  -3.921  0.00  0.00     0.163 HD
BRANCH   8  10
HETATM   10  C           1     -19.427  -9.322  -4.581  0.00  0.00     0.189 C 
BRANCH  10  11
HETATM   11  C           1     -19.040  -9.621  -3.139  0.00  0.00     0.010 C 
HETATM   12  C           1     -19.800  -8.689  -2.205  0.00  0.00     0.012 C 
HETATM   13  C           1     -17.543  -9.406  -2.960  0.00  0.00     0.012 C 
ENDBRANCH  10  11
BRANCH  10  14
HETATM   14  C           1     -19.909 -10.589  -5.244  0.00  0.00     0.197 C 
HETATM   15  O           1     -20.611 -11.401  -4.605  0.00  0.00    -0.646 OA
HETATM   16  O           1     -19.606 -10.826  -6.434  0.00  0.00    -0.646 OA
ENDBRANCH  10  14
ENDBRANCH   8  10
ENDBRANCH   1   6
BRANCH   1  17
HETATM   17  C           1     -21.020  -4.977  -6.054  0.00  0.00     0.101 C 
BRANCH  17  18
HETATM   18  C           1     -21.691  -4.591  -7.335  0.00  0.00     0.028 A 
HETATM   19  C           1     -21.070  -4.548  -8.561  0.00  0.00     0.114 A 
HETATM   20  N           1     -22.042  -4.152  -9.437  0.00  0.00    -0.360 N 
HETATM   21  H           1     -21.925  -4.010 -10.471  0.00  0.00     0.166 HD
HETATM   22  C           1     -23.191  -3.972  -8.721  0.00  0.00     0.180 A 
HETATM   23  N           1     -23.009  -4.230  -7.446  0.00  0.00    -0.355 N 
ATOM     24  HN          1     -23.701  -4.174  -6.698  1.00  0.00     0.166 HD
ENDBRANCH  17  18
ENDBRANCH   1  17
TORSDOF 7
ENDMDL
MODEL 9
REMARK VINA RESULT:      -5.6      5.335      9.348
REMARK  7 active torsions:
REMARK  status: ('A' for Active; 'I' for Inactive)
REMARK    1  A    between atoms: N_1  and  C_11 
REMARK    2  A    between atoms: N_4  and  C_19 
REMARK       I    between atoms: N_4  and  C_5 
REMARK    3  A    between atoms: C_5  and  C_11 
REMARK    4  A    between atoms: C_11  and  C_21 
REMARK    5  A    between atoms: C_14  and  C_21 
REMARK    6  A    between atoms: C_15  and  C_19 
REMARK    7  A    between atoms: C_18  and  C_19 
ROOT
HETATM    1  C           1     -22.092  -7.160  -2.140  0.00  0.00     0.280 C 
ENDROOT
BRANCH   1   2
HETATM    2  N           1     -22.281  -5.744  -1.684  0.00  0.00    -0.066 N 
HETATM    3  H           1     -21.610  -5.122  -2.190  0.00  0.00     0.275 HD
HETATM    4  H           1     -23.260  -5.440  -1.890  0.00  0.00     0.275 HD
HETATM    5  H           1     -22.105  -5.683  -0.655  0.00  0.00     0.275 HD
ENDBRANCH   1   2
BRANCH   1   6
HETATM    6  C           1     -22.160  -8.084  -0.949  0.00  0.00     0.249 C 
HETATM    7  O           1     -22.311  -7.631   0.161  0.00  0.00    -0.271 OA
HETATM    8  N           1     -22.050  -9.438  -1.125  0.00  0.00    -0.344 N 
HETATM    9  H           1     -21.923  -9.818  -2.054  0.00  0.00     0.163 HD
BRANCH   8  10
HETATM   10  C           1     -22.115 -10.326   0.019  0.00  0.00     0.189 C 
BRANCH  10  11
HETATM   11  C           1     -22.753 -11.645  -0.396  0.00  0.00     0.010 C 
HETATM   12  C           1     -24.097 -11.372  -1.058  0.00  0.00     0.012 C 
HETATM   13  C           1     -22.962 -12.516   0.834  0.00  0.00     0.012 C 
ENDBRANCH  10  11
BRANCH  10  14
HETATM   14  C           1     -20.720 -10.583   0.535  0.00  0.00     0.197 C 
HETATM   15  O           1     -20.386 -10.169   1.666  0.00  0.00    -0.646 OA
HETATM   16  O           1     -19.899 -11.210  -0.169  0.00  0.00    -0.646 OA
ENDBRANCH  10  14
ENDBRANCH   8  10
ENDBRANCH   1   6
BRANCH   1  17
HETATM   17  C           1     -20.733  -7.299  -2.814  0.00  0.00     0.101 C 
BRANCH  17  18
HETATM   18  C           1     -20.879  -7.065  -4.285  0.00  0.00     0.028 A 
HETATM   19  C           1     -21.050  -8.057  -5.221  0.00  0.00     0.114 A 
HETATM   20  N           1     -21.136  -7.404  -6.419  0.00  0.00    -0.360 N 
HETATM   21  H           1     -21.270  -7.849  -7.361  0.00  0.00     0.166 HD
HETATM   22  C           1     -21.015  -6.067  -6.166  0.00  0.00     0.180 A 
HETATM   23  N           1     -20.858  -5.832  -4.884  0.00  0.00    -0.355 N 
ATOM     24  HN          1     -20.744  -4.925  -4.430  1.00  0.00     0.166 HD
ENDBRANCH  17  18
ENDBRANCH   1  17
TORSDOF 7
ENDMDL
