MODEL 1
REMARK VINA RESULT:      -6.3      0.000      0.000
REMARK  8 active torsions:
REMARK  status: ('A' for Active; 'I' for Inactive)
REMARK    1  A    between atoms: C_3  and  C_18 
REMARK    2  A    between atoms: N_4  and  C_16 
REMARK       I    between atoms: N_4  and  C_19 
REMARK    3  A    between atoms: C_5  and  C_19 
REMARK    4  A    between atoms: C_5  and  C_6 
REMARK    5  A    between atoms: C_5  and  N_20 
REMARK    6  A    between atoms: C_6  and  C_9 
REMARK    7  A    between atoms: C_13  and  C_16 
REMARK    8  A    between atoms: C_16  and  C_18 
ROOT
HETATM    1  N           1     -23.208  -4.536  -8.552  0.00  0.00    -0.345 N 
HETATM    2  H           1     -23.903  -5.259  -8.416  0.00  0.00     0.163 HD
HETATM    3  C           1     -22.337  -4.226  -7.543  0.00  0.00     0.249 C 
HETATM    4  O           1     -21.508  -3.362  -7.705  0.00  0.00    -0.271 OA
ENDROOT
BRANCH   3   5
HETATM    5  C           1     -22.412  -4.962  -6.227  0.00  0.00     0.275 C 
BRANCH   5   6
HETATM    6  C           1     -21.514  -6.192  -6.282  0.00  0.00     0.046 C 
BRANCH   6   7
HETATM    7  C           1     -21.808  -7.089  -5.087  0.00  0.00    -0.020 C 
HETATM    8  C           1     -21.112  -8.430  -5.277  0.00  0.00     0.009 C 
HETATM    9  C           1     -21.293  -6.426  -3.817  0.00  0.00     0.009 C 
ENDBRANCH   6   7
ENDBRANCH   5   6
BRANCH   5  10
HETATM   10  N           1     -23.827  -5.388  -5.975  0.00  0.00    -0.066 N 
HETATM   11  H           1     -23.868  -5.966  -5.107  0.00  0.00     0.275 HD
HETATM   12  H           1     -24.431  -4.543  -5.861  0.00  0.00     0.275 HD
HETATM   13  H           1     -24.171  -5.953  -6.785  0.00  0.00     0.275 HD
ENDBRANCH   5  10
ENDBRANCH   3   5
BRANCH   1  14
HETATM   14  C           1     -23.137  -3.828  -9.815  0.00  0.00     0.185 C 
BRANCH  14  15
HETATM   15  C           1     -24.517  -3.366 -10.210  0.00  0.00     0.196 C 
HETATM   16  O           1     -25.216  -2.718  -9.400  0.00  0.00    -0.646 OA
HETATM   17  O           1     -24.963  -3.631 -11.348  0.00  0.00    -0.646 OA
ENDBRANCH  14  15
BRANCH  14  18
HETATM   18  C           1     -22.585  -4.758 -10.888  0.00  0.00     0.040 C 
BRANCH  18  19
HETATM   19  C           1     -21.246  -4.227 -11.380  0.00  0.00    -0.020 C 
HETATM   20  C           1     -21.250  -2.705 -11.316  0.00  0.00     0.009 C 
HETATM   21  C           1     -20.129  -4.769 -10.498  0.00  0.00     0.009 C 
ENDBRANCH  18  19
ENDBRANCH  14  18
ENDBRANCH   1  14
TORSDOF 8
ENDMDL
MODEL 2
REMARK VINA RESULT:      -6.3     11.948     13.666
REMARK  8 active torsions:
REMARK  status: ('A' for Active; 'I' for Inactive)
REMARK    1  A    between atoms: C_3  and  C_18 
REMARK    2  A    between atoms: N_4  and  C_16 
REMARK       I    between atoms: N_4  and  C_19 
REMARK    3  A    between atoms: C_5  and  C_19 
REMARK    4  A    between atoms: C_5  and  C_6 
REMARK    5  A    between atoms: C_5  and  N_20 
REMARK    6  A    between atoms: C_6  and  C_9 
REMARK    7  A    between atoms: C_13  and  C_16 
REMARK    8  A    between atoms: C_16  and  C_18 
ROOT
HETATM    1  N           1     -35.363  -2.070 -12.070  0.00  0.00    -0.345 N 
HETATM    2  H           1     -35.908  -2.682 -12.663  0.00  0.00     0.163 HD
HETATM    3  C           1     -34.225  -2.536 -11.467  0.00  0.00     0.249 C 
HETATM    4  O           1     -33.575  -1.805 -10.758  0.00  0.00    -0.271 OA
ENDROOT
BRANCH   3   5
HETATM    5  C           1     -33.783  -3.962 -11.688  0.00  0.00     0.275 C 
BRANCH   5   6
HETATM    6  C           1     -34.060  -4.779 -10.432  0.00  0.00     0.046 C 
BRANCH   6   7
HETATM    7  C           1     -34.238  -6.244 -10.808  0.00  0.00    -0.020 C 
HETATM    8  C           1     -34.897  -6.987  -9.653  0.00  0.00     0.009 C 
HETATM    9  C           1     -35.120  -6.346 -12.044  0.00  0.00     0.009 C 
ENDBRANCH   6   7
ENDBRANCH   5   6
BRANCH   5  10
HETATM   10  N           1     -32.314  -3.987 -11.987  0.00  0.00    -0.066 N 
HETATM   11  H           1     -32.104  -3.318 -12.760  0.00  0.00     0.275 HD
HETATM   12  H           1     -31.779  -3.711 -11.132  0.00  0.00     0.275 HD
HETATM   13  H           1     -32.034  -4.952 -12.276  0.00  0.00     0.275 HD
ENDBRANCH   5  10
ENDBRANCH   3   5
BRANCH   1  14
HETATM   14  C           1     -35.788  -0.701 -11.857  0.00  0.00     0.185 C 
BRANCH  14  15
HETATM   15  C           1     -36.754  -0.649 -10.699  0.00  0.00     0.196 C 
HETATM   16  O           1     -36.362  -0.267  -9.575  0.00  0.00    -0.646 OA
HETATM   17  O           1     -37.946  -0.988 -10.864  0.00  0.00    -0.646 OA
ENDBRANCH  14  15
BRANCH  14  18
HETATM   18  C           1     -36.472  -0.180 -13.114  0.00  0.00     0.040 C 
BRANCH  18  19
HETATM   19  C           1     -35.435   0.025 -14.209  0.00  0.00    -0.020 C 
HETATM   20  C           1     -36.141   0.313 -15.528  0.00  0.00     0.009 C 
HETATM   21  C           1     -34.540   1.203 -13.845  0.00  0.00     0.009 C 
ENDBRANCH  18  19
ENDBRANCH  14  18
ENDBRANCH   1  14
TORSDOF 8
ENDMDL
MODEL 3
REMARK VINA RESULT:      -6.2     11.002     12.687
REMARK  8 active torsions:
REMARK  status: ('A' for Active; 'I' for Inactive)
REMARK    1  A    between atoms: C_3  and  C_18 
REMARK    2  A    between atoms: N_4  and  C_16 
REMARK       I    between atoms: N_4  and  C_19 
REMARK    3  A    between atoms: C_5  and  C_19 
REMARK    4  A    between atoms: C_5  and  C_6 
REMARK    5  A    between atoms: C_5  and  N_20 
REMARK    6  A    between atoms: C_6  and  C_9 
REMARK    7  A    between atoms: C_13  and  C_16 
REMARK    8  A    between atoms: C_16  and  C_18 
ROOT
HETATM    1  N           1     -27.540  -6.610 -18.666  0.00  0.00    -0.345 N 
HETATM    2  H           1     -27.624  -6.929 -19.622  0.00  0.00     0.163 HD
HETATM    3  C           1     -26.308  -6.311 -18.149  0.00  0.00     0.249 C 
HETATM    4  O           1     -26.208  -5.931 -17.007  0.00  0.00    -0.271 OA
ENDROOT
BRANCH   3   5
HETATM    5  C           1     -25.074  -6.458 -19.005  0.00  0.00     0.275 C 
BRANCH   5   6
HETATM    6  C           1     -25.479  -6.521 -20.473  0.00  0.00     0.046 C 
BRANCH   6   7
HETATM    7  C           1     -25.232  -7.924 -21.009  0.00  0.00    -0.020 C 
HETATM    8  C           1     -26.554  -8.543 -21.440  0.00  0.00     0.009 C 
HETATM    9  C           1     -24.292  -7.851 -22.205  0.00  0.00     0.009 C 
ENDBRANCH   6   7
ENDBRANCH   5   6
BRANCH   5  10
HETATM   10  N           1     -24.356  -7.720 -18.631  0.00  0.00    -0.066 N 
HETATM   11  H           1     -24.019  -8.199 -19.496  0.00  0.00     0.275 HD
HETATM   12  H           1     -23.540  -7.490 -18.020  0.00  0.00     0.275 HD
HETATM   13  H           1     -25.009  -8.353 -18.115  0.00  0.00     0.275 HD
ENDBRANCH   5  10
ENDBRANCH   3   5
BRANCH   1  14
HETATM   14  C           1     -28.725  -6.470 -17.843  0.00  0.00     0.185 C 
BRANCH  14  15
HETATM   15  C           1     -29.512  -7.756 -17.872  0.00  0.00     0.196 C 
HETATM   16  O           1     -30.167  -8.066 -18.892  0.00  0.00    -0.646 OA
HETATM   17  O           1     -29.510  -8.514 -16.878  0.00  0.00    -0.646 OA
ENDBRANCH  14  15
BRANCH  14  18
HETATM   18  C           1     -29.586  -5.334 -18.381  0.00  0.00     0.040 C 
BRANCH  18  19
HETATM   19  C           1     -29.863  -4.335 -17.266  0.00  0.00    -0.020 C 
HETATM   20  C           1     -28.708  -3.346 -17.174  0.00  0.00     0.009 C 
HETATM   21  C           1     -31.152  -3.582 -17.568  0.00  0.00     0.009 C 
ENDBRANCH  18  19
ENDBRANCH  14  18
ENDBRANCH   1  14
TORSDOF 8
ENDMDL
MODEL 4
REMARK VINA RESULT:      -5.9     11.915     14.355
REMARK  8 active torsions:
REMARK  status: ('A' for Active; 'I' for Inactive)
REMARK    1  A    between atoms: C_3  and  C_18 
REMARK    2  A    between atoms: N_4  and  C_16 
REMARK       I    between atoms: N_4  and  C_19 
REMARK    3  A    between atoms: C_5  and  C_19 
REMARK    4  A    between atoms: C_5  and  C_6 
REMARK    5  A    between atoms: C_5  and  N_20 
REMARK    6  A    between atoms: C_6  and  C_9 
REMARK    7  A    between atoms: C_13  and  C_16 
REMARK    8  A    between atoms: C_16  and  C_18 
ROOT
HETATM    1  N           1     -35.982  -1.675 -11.605  0.00  0.00    -0.345 N 
HETATM    2  H           1     -36.813  -1.546 -12.168  0.00  0.00     0.163 HD
HETATM    3  C           1     -35.876  -1.056 -10.389  0.00  0.00     0.249 C 
HETATM    4  O           1     -34.883  -1.209  -9.718  0.00  0.00    -0.271 OA
ENDROOT
BRANCH   3   5
HETATM    5  C           1     -36.999  -0.183  -9.885  0.00  0.00     0.275 C 
BRANCH   5   6
HETATM    6  C           1     -37.573  -0.780  -8.607  0.00  0.00     0.046 C 
BRANCH   6   7
HETATM    7  C           1     -37.941   0.339  -7.643  0.00  0.00    -0.020 C 
HETATM    8  C           1     -38.075  -0.226  -6.235  0.00  0.00     0.009 C 
HETATM    9  C           1     -36.851   1.402  -7.661  0.00  0.00     0.009 C 
ENDBRANCH   6   7
ENDBRANCH   5   6
BRANCH   5  10
HETATM   10  N           1     -38.075  -0.106 -10.927  0.00  0.00    -0.066 N 
HETATM   11  H           1     -38.372  -1.071 -11.194  0.00  0.00     0.275 HD
HETATM   12  H           1     -38.894   0.419 -10.545  0.00  0.00     0.275 HD
HETATM   13  H           1     -37.708   0.391 -11.771  0.00  0.00     0.275 HD
ENDBRANCH   5  10
ENDBRANCH   3   5
BRANCH   1  14
HETATM   14  C           1     -34.902  -2.512 -12.090  0.00  0.00     0.185 C 
BRANCH  14  15
HETATM   15  C           1     -34.846  -2.440 -13.595  0.00  0.00     0.196 C 
HETATM   16  O           1     -35.186  -1.390 -14.184  0.00  0.00    -0.646 OA
HETATM   17  O           1     -34.461  -3.429 -14.255  0.00  0.00    -0.646 OA
ENDBRANCH  14  15
BRANCH  14  18
HETATM   18  C           1     -35.145  -3.953 -11.658  0.00  0.00     0.040 C 
BRANCH  18  19
HETATM   19  C           1     -33.949  -4.453 -10.860  0.00  0.00    -0.020 C 
HETATM   20  C           1     -34.010  -5.971 -10.753  0.00  0.00     0.009 C 
HETATM   21  C           1     -32.662  -4.045 -11.565  0.00  0.00     0.009 C 
ENDBRANCH  18  19
ENDBRANCH  14  18
ENDBRANCH   1  14
TORSDOF 8
ENDMDL
MODEL 5
REMARK VINA RESULT:      -5.9      2.839      6.887
REMARK  8 active torsions:
REMARK  status: ('A' for Active; 'I' for Inactive)
REMARK    1  A    between atoms: C_3  and  C_18 
REMARK    2  A    between atoms: N_4  and  C_16 
REMARK       I    between atoms: N_4  and  C_19 
REMARK    3  A    between atoms: C_5  and  C_19 
REMARK    4  A    between atoms: C_5  and  C_6 
REMARK    5  A    between atoms: C_5  and  N_20 
REMARK    6  A    between atoms: C_6  and  C_9 
REMARK    7  A    between atoms: C_13  and  C_16 
REMARK    8  A    between atoms: C_16  and  C_18 
ROOT
HETATM    1  N           1     -21.383  -6.609  -5.998  0.00  0.00    -0.345 N 
HETATM    2  H           1     -22.042  -7.108  -6.580  0.00  0.00     0.163 HD
HETATM    3  C           1     -21.136  -5.282  -6.226  0.00  0.00     0.249 C 
HETATM    4  O           1     -20.348  -4.686  -5.531  0.00  0.00    -0.271 OA
ENDROOT
BRANCH   3   5
HETATM    5  C           1     -21.848  -4.563  -7.345  0.00  0.00     0.275 C 
BRANCH   5   6
HETATM    6  C           1     -21.295  -5.035  -8.684  0.00  0.00     0.046 C 
BRANCH   6   7
HETATM    7  C           1     -21.704  -4.056  -9.777  0.00  0.00    -0.020 C 
HETATM    8  C           1     -20.556  -3.887 -10.763  0.00  0.00     0.009 C 
HETATM    9  C           1     -22.926  -4.595 -10.509  0.00  0.00     0.009 C 
ENDBRANCH   6   7
ENDBRANCH   5   6
BRANCH   5  10
HETATM   10  N           1     -21.629  -3.086  -7.207  0.00  0.00    -0.066 N 
HETATM   11  H           1     -22.072  -2.591  -8.013  0.00  0.00     0.275 HD
HETATM   12  H           1     -22.056  -2.751  -6.315  0.00  0.00     0.275 HD
HETATM   13  H           1     -20.602  -2.885  -7.198  0.00  0.00     0.275 HD
ENDBRANCH   5  10
ENDBRANCH   3   5
BRANCH   1  14
HETATM   14  C           1     -20.698  -7.300  -4.924  0.00  0.00     0.185 C 
BRANCH  14  15
HETATM   15  C           1     -20.168  -8.618  -5.431  0.00  0.00     0.196 C 
HETATM   16  O           1     -20.948  -9.580  -5.608  0.00  0.00    -0.646 OA
HETATM   17  O           1     -18.949  -8.750  -5.674  0.00  0.00    -0.646 OA
ENDBRANCH  14  15
BRANCH  14  18
HETATM   18  C           1     -21.671  -7.550  -3.779  0.00  0.00     0.040 C 
BRANCH  18  19
HETATM   19  C           1     -21.113  -6.946  -2.497  0.00  0.00    -0.020 C 
HETATM   20  C           1     -22.249  -6.328  -1.693  0.00  0.00     0.009 C 
HETATM   21  C           1     -20.442  -8.037  -1.673  0.00  0.00     0.009 C 
ENDBRANCH  18  19
ENDBRANCH  14  18
ENDBRANCH   1  14
TORSDOF 8
ENDMDL
MODEL 6
REMARK VINA RESULT:      -5.8      9.609     12.275
REMARK  8 active torsions:
REMARK  status: ('A' for Active; 'I' for Inactive)
REMARK    1  A    between atoms: C_3  and  C_18 
REMARK    2  A    between atoms: N_4  and  C_16 
REMARK       I    between atoms: N_4  and  C_19 
REMARK    3  A    between atoms: C_5  and  C_19 
REMARK    4  A    between atoms: C_5  and  C_6 
REMARK    5  A    between atoms: C_5  and  N_20 
REMARK    6  A    between atoms: C_6  and  C_9 
REMARK    7  A    between atoms: C_13  and  C_16 
REMARK    8  A    between atoms: C_16  and  C_18 
ROOT
HETATM    1  N           1     -26.849  -6.314 -18.020  0.00  0.00    -0.345 N 
HETATM    2  H           1     -27.708  -6.362 -18.553  0.00  0.00     0.163 HD
HETATM    3  C           1     -25.665  -6.691 -18.594  0.00  0.00     0.249 C 
HETATM    4  O           1     -24.639  -6.635 -17.958  0.00  0.00    -0.271 OA
ENDROOT
BRANCH   3   5
HETATM    5  C           1     -25.640  -7.177 -20.023  0.00  0.00     0.275 C 
BRANCH   5   6
HETATM    6  C           1     -24.247  -6.970 -20.606  0.00  0.00     0.046 C 
BRANCH   6   7
HETATM    7  C           1     -23.847  -8.196 -21.414  0.00  0.00    -0.020 C 
HETATM    8  C           1     -23.890  -7.862 -22.899  0.00  0.00     0.009 C 
HETATM    9  C           1     -22.435  -8.617 -21.030  0.00  0.00     0.009 C 
ENDBRANCH   6   7
ENDBRANCH   5   6
BRANCH   5  10
HETATM   10  N           1     -26.639  -6.403 -20.830  0.00  0.00    -0.066 N 
HETATM   11  H           1     -26.665  -6.777 -21.804  0.00  0.00     0.275 HD
HETATM   12  H           1     -27.585  -6.495 -20.396  0.00  0.00     0.275 HD
HETATM   13  H           1     -26.363  -5.394 -20.852  0.00  0.00     0.275 HD
ENDBRANCH   5  10
ENDBRANCH   3   5
BRANCH   1  14
HETATM   14  C           1     -26.873  -5.849 -16.647  0.00  0.00     0.185 C 
BRANCH  14  15
HETATM   15  C           1     -26.745  -7.027 -15.714  0.00  0.00     0.196 C 
HETATM   16  O           1     -25.614  -7.403 -15.333  0.00  0.00    -0.646 OA
HETATM   17  O           1     -27.768  -7.629 -15.322  0.00  0.00    -0.646 OA
ENDBRANCH  14  15
BRANCH  14  18
HETATM   18  C           1     -28.188  -5.128 -16.379  0.00  0.00     0.040 C 
BRANCH  18  19
HETATM   19  C           1     -29.125  -5.322 -17.563  0.00  0.00    -0.020 C 
HETATM   20  C           1     -30.309  -6.180 -17.136  0.00  0.00     0.009 C 
HETATM   21  C           1     -29.627  -3.965 -18.040  0.00  0.00     0.009 C 
ENDBRANCH  18  19
ENDBRANCH  14  18
ENDBRANCH   1  14
TORSDOF 8
ENDMDL
MODEL 7
REMARK VINA RESULT:      -5.8     12.145     15.329
REMARK  8 active torsions:
REMARK  status: ('A' for Active; 'I' for Inactive)
REMARK    1  A    between atoms: C_3  and  C_18 
REMARK    2  A    between atoms: N_4  and  C_16 
REMARK       I    between atoms: N_4  and  C_19 
REMARK    3  A    between atoms: C_5  and  C_19 
REMARK    4  A    between atoms: C_5  and  C_6 
REMARK    5  A    between atoms: C_5  and  N_20 
REMARK    6  A    between atoms: C_6  and  C_9 
REMARK    7  A    between atoms: C_13  and  C_16 
REMARK    8  A    between atoms: C_16  and  C_18 
ROOT
HETATM    1  N           1     -35.184  -0.822 -12.366  0.00  0.00    -0.345 N 
HETATM    2  H           1     -35.172   0.171 -12.174  0.00  0.00     0.163 HD
HETATM    3  C           1     -34.978  -1.276 -13.641  0.00  0.00     0.249 C 
HETATM    4  O           1     -34.994  -2.462 -13.870  0.00  0.00    -0.271 OA
ENDROOT
BRANCH   3   5
HETATM    5  C           1     -34.732  -0.295 -14.761  0.00  0.00     0.275 C 
BRANCH   5   6
HETATM    6  C           1     -35.648   0.911 -14.591  0.00  0.00     0.046 C 
BRANCH   6   7
HETATM    7  C           1     -36.443   1.130 -15.871  0.00  0.00    -0.020 C 
HETATM    8  C           1     -37.913   0.823 -15.615  0.00  0.00     0.009 C 
HETATM    9  C           1     -36.298   2.579 -16.316  0.00  0.00     0.009 C 
ENDBRANCH   6   7
ENDBRANCH   5   6
BRANCH   5  10
HETATM   10  N           1     -35.018  -0.958 -16.076  0.00  0.00    -0.066 N 
HETATM   11  H           1     -35.013  -0.241 -16.835  0.00  0.00     0.275 HD
HETATM   12  H           1     -34.286  -1.678 -16.270  0.00  0.00     0.275 HD
HETATM   13  H           1     -35.956  -1.417 -16.037  0.00  0.00     0.275 HD
ENDBRANCH   5  10
ENDBRANCH   3   5
BRANCH   1  14
HETATM   14  C           1     -35.422  -1.764 -11.290  0.00  0.00     0.185 C 
BRANCH  14  15
HETATM   15  C           1     -36.434  -1.188 -10.331  0.00  0.00     0.196 C 
HETATM   16  O           1     -36.051  -0.621  -9.284  0.00  0.00    -0.646 OA
HETATM   17  O           1     -37.655  -1.276 -10.583  0.00  0.00    -0.646 OA
ENDBRANCH  14  15
BRANCH  14  18
HETATM   18  C           1     -34.117  -2.033 -10.553  0.00  0.00     0.040 C 
BRANCH  18  19
HETATM   19  C           1     -33.805  -3.523 -10.598  0.00  0.00    -0.020 C 
HETATM   20  C           1     -35.078  -4.297 -10.912  0.00  0.00     0.009 C 
HETATM   21  C           1     -32.767  -3.791 -11.680  0.00  0.00     0.009 C 
ENDBRANCH  18  19
ENDBRANCH  14  18
ENDBRANCH   1  14
TORSDOF 8
ENDMDL
MODEL 8
REMARK VINA RESULT:      -5.6     11.712     13.472
REMARK  8 active torsions:
REMARK  status: ('A' for Active; 'I' for Inactive)
REMARK    1  A    between atoms: C_3  and  C_18 
REMARK    2  A    between atoms: N_4  and  C_16 
REMARK       I    between atoms: N_4  and  C_19 
REMARK    3  A    between atoms: C_5  and  C_19 
REMARK    4  A    between atoms: C_5  and  C_6 
REMARK    5  A    between atoms: C_5  and  N_20 
REMARK    6  A    between atoms: C_6  and  C_9 
REMARK    7  A    between atoms: C_13  and  C_16 
REMARK    8  A    between atoms: C_16  and  C_18 
ROOT
HETATM    1  N           1     -33.352  -3.853 -14.145  0.00  0.00    -0.345 N 
HETATM    2  H           1     -32.415  -3.475 -14.193  0.00  0.00     0.163 HD
HETATM    3  C           1     -33.896  -4.476 -15.235  0.00  0.00     0.249 C 
HETATM    4  O           1     -35.015  -4.928 -15.178  0.00  0.00    -0.271 OA
ENDROOT
BRANCH   3   5
HETATM    5  C           1     -33.098  -4.599 -16.511  0.00  0.00     0.275 C 
BRANCH   5   6
HETATM    6  C           1     -31.620  -4.745 -16.173  0.00  0.00     0.046 C 
BRANCH   6   7
HETATM    7  C           1     -30.853  -5.172 -17.417  0.00  0.00    -0.020 C 
HETATM    8  C           1     -29.652  -4.257 -17.612  0.00  0.00     0.009 C 
HETATM    9  C           1     -30.376  -6.608 -17.250  0.00  0.00     0.009 C 
ENDBRANCH   6   7
ENDBRANCH   5   6
BRANCH   5  10
HETATM   10  N           1     -33.300  -3.369 -17.345  0.00  0.00    -0.066 N 
HETATM   11  H           1     -33.264  -2.523 -16.733  0.00  0.00     0.275 HD
HETATM   12  H           1     -32.548  -3.310 -18.068  0.00  0.00     0.275 HD
HETATM   13  H           1     -34.233  -3.417 -17.816  0.00  0.00     0.275 HD
ENDBRANCH   5  10
ENDBRANCH   3   5
BRANCH   1  14
HETATM   14  C           1     -34.119  -3.734 -12.920  0.00  0.00     0.185 C 
BRANCH  14  15
HETATM   15  C           1     -34.640  -2.325 -12.789  0.00  0.00     0.196 C 
HETATM   16  O           1     -35.483  -1.891 -13.605  0.00  0.00    -0.646 OA
HETATM   17  O           1     -34.230  -1.590 -11.865  0.00  0.00    -0.646 OA
ENDBRANCH  14  15
BRANCH  14  18
HETATM   18  C           1     -33.228  -4.060 -11.729  0.00  0.00     0.040 C 
BRANCH  18  19
HETATM   19  C           1     -34.027  -4.839 -10.694  0.00  0.00    -0.020 C 
HETATM   20  C           1     -35.511  -4.545 -10.874  0.00  0.00     0.009 C 
HETATM   21  C           1     -33.780  -6.331 -10.879  0.00  0.00     0.009 C 
ENDBRANCH  18  19
ENDBRANCH  14  18
ENDBRANCH   1  14
TORSDOF 8
ENDMDL
MODEL 9
REMARK VINA RESULT:      -5.5      4.710      8.500
REMARK  8 active torsions:
REMARK  status: ('A' for Active; 'I' for Inactive)
REMARK    1  A    between atoms: C_3  and  C_18 
REMARK    2  A    between atoms: N_4  and  C_16 
REMARK       I    between atoms: N_4  and  C_19 
REMARK    3  A    between atoms: C_5  and  C_19 
REMARK    4  A    between atoms: C_5  and  C_6 
REMARK    5  A    between atoms: C_5  and  N_20 
REMARK    6  A    between atoms: C_6  and  C_9 
REMARK    7  A    between atoms: C_13  and  C_16 
REMARK    8  A    between atoms: C_16  and  C_18 
ROOT
HETATM    1  N           1     -20.792  -7.704  -2.757  0.00  0.00    -0.345 N 
HETATM    2  H           1     -20.048  -7.052  -2.544  0.00  0.00     0.163 HD
HETATM    3  C           1     -20.952  -8.167  -4.035  0.00  0.00     0.249 C 
HETATM    4  O           1     -21.841  -8.944  -4.289  0.00  0.00    -0.271 OA
ENDROOT
BRANCH   3   5
HETATM    5  C           1     -20.017  -7.707  -5.127  0.00  0.00     0.275 C 
BRANCH   5   6
HETATM    6  C           1     -20.811  -6.970  -6.198  0.00  0.00     0.046 C 
BRANCH   6   7
HETATM    7  C           1     -20.034  -5.743  -6.654  0.00  0.00    -0.020 C 
HETATM    8  C           1     -20.613  -5.234  -7.967  0.00  0.00     0.009 C 
HETATM    9  C           1     -20.140  -4.653  -5.597  0.00  0.00     0.009 C 
ENDBRANCH   6   7
ENDBRANCH   5   6
BRANCH   5  10
HETATM   10  N           1     -19.340  -8.898  -5.738  0.00  0.00    -0.066 N 
HETATM   11  H           1     -19.334  -9.685  -5.051  0.00  0.00     0.275 HD
HETATM   12  H           1     -19.856  -9.189  -6.598  0.00  0.00     0.275 HD
HETATM   13  H           1     -18.357  -8.648  -5.990  0.00  0.00     0.275 HD
ENDBRANCH   5  10
ENDBRANCH   3   5
BRANCH   1  14
HETATM   14  C           1     -21.691  -8.145  -1.708  0.00  0.00     0.185 C 
BRANCH  14  15
HETATM   15  C           1     -22.430  -6.956  -1.146  0.00  0.00     0.196 C 
HETATM   16  O           1     -22.426  -5.868  -1.764  0.00  0.00    -0.646 OA
HETATM   17  O           1     -23.046  -7.057  -0.064  0.00  0.00    -0.646 OA
ENDBRANCH  14  15
BRANCH  14  18
HETATM   18  C           1     -20.888  -8.815  -0.600  0.00  0.00     0.040 C 
BRANCH  18  19
HETATM   19  C           1     -21.148 -10.315  -0.621  0.00  0.00    -0.020 C 
HETATM   20  C           1     -20.896 -10.891   0.766  0.00  0.00     0.009 C 
HETATM   21  C           1     -22.594 -10.574  -1.024  0.00  0.00     0.009 C 
ENDBRANCH  18  19
ENDBRANCH  14  18
ENDBRANCH   1  14
TORSDOF 8
ENDMDL
