MODEL 1
REMARK VINA RESULT:      -5.1      0.000      0.000
REMARK  9 active torsions:
REMARK  status: ('A' for Active; 'I' for Inactive)
REMARK    1  A    between atoms: C_1  and  C_2 
REMARK    2  A    between atoms: C_2  and  C_3 
REMARK    3  A    between atoms: C_2  and  N_12 
REMARK    4  A    between atoms: C_3  and  C_15 
REMARK    5  A    between atoms: S_4  and  C_15 
REMARK    6  A    between atoms: N_7  and  C_10 
REMARK    7  A    between atoms: S_8  and  C_9 
REMARK    8  A    between atoms: C_9  and  C_10 
REMARK    9  A    between atoms: C_10  and  C_11 
REMARK       I    between atoms: C_11  and  N_12 
ROOT
HETATM    1  C           1     -34.204  -2.778 -11.940  0.00  0.00     0.249 C 
HETATM    2  N           1     -35.156  -1.917 -12.417  0.00  0.00    -0.345 N 
HETATM    3  O           1     -33.417  -2.404 -11.103  0.00  0.00    -0.271 OA
HETATM    4  H           1     -35.815  -2.229 -13.118  0.00  0.00     0.163 HD
ENDROOT
BRANCH   1   5
HETATM    5  C           1     -34.139  -4.193 -12.458  0.00  0.00     0.283 C 
BRANCH   5   6
HETATM    6  N           1     -33.532  -4.195 -13.830  0.00  0.00    -0.066 N 
HETATM    7  H           1     -33.622  -3.244 -14.252  0.00  0.00     0.275 HD
HETATM    8  H           1     -32.521  -4.452 -13.763  0.00  0.00     0.275 HD
HETATM    9  H           1     -34.031  -4.890 -14.430  0.00  0.00     0.275 HD
ENDBRANCH   5   6
BRANCH   5  10
HETATM   10  C           1     -33.285  -5.039 -11.523  0.00  0.00     0.113 C 
BRANCH  10  11
HETATM   11  S           1     -34.343  -6.217 -10.636  0.00  0.00    -0.180 SA
HETATM   12  H           1     -33.774  -7.325 -11.144  0.00  0.00     0.101 HD
ENDBRANCH  10  11
ENDBRANCH   5  10
ENDBRANCH   1   5
BRANCH   2  13
HETATM   13  C           1     -35.218  -0.556 -11.919  0.00  0.00     0.186 C 
BRANCH  13  14
HETATM   14  C           1     -36.392  -0.418 -10.981  0.00  0.00     0.196 C 
HETATM   15  O           1     -37.259  -1.316 -10.930  0.00  0.00    -0.646 OA
HETATM   16  O           1     -36.496   0.594 -10.256  0.00  0.00    -0.646 OA
ENDBRANCH  13  14
BRANCH  13  17
HETATM   17  C           1     -35.386   0.404 -13.089  0.00  0.00     0.046 C 
BRANCH  17  18
HETATM   18  C           1     -36.430  -0.146 -14.052  0.00  0.00     0.076 C 
BRANCH  18  19
HETATM   19  S           1     -36.199   0.603 -15.689  0.00  0.00    -0.173 SA
HETATM   20  C           1     -35.950  -0.955 -16.586  0.00  0.00     0.089 C 
ENDBRANCH  18  19
ENDBRANCH  17  18
ENDBRANCH  13  17
ENDBRANCH   2  13
TORSDOF 9
ENDMDL
MODEL 2
REMARK VINA RESULT:      -4.6      2.924      4.766
REMARK  9 active torsions:
REMARK  status: ('A' for Active; 'I' for Inactive)
REMARK    1  A    between atoms: C_1  and  C_2 
REMARK    2  A    between atoms: C_2  and  C_3 
REMARK    3  A    between atoms: C_2  and  N_12 
REMARK    4  A    between atoms: C_3  and  C_15 
REMARK    5  A    between atoms: S_4  and  C_15 
REMARK    6  A    between atoms: N_7  and  C_10 
REMARK    7  A    between atoms: S_8  and  C_9 
REMARK    8  A    between atoms: C_9  and  C_10 
REMARK    9  A    between atoms: C_10  and  C_11 
REMARK       I    between atoms: C_11  and  N_12 
ROOT
HETATM    1  C           1     -37.377  -0.336 -10.737  0.00  0.00     0.249 C 
HETATM    2  N           1     -36.017  -0.291 -10.887  0.00  0.00    -0.345 N 
HETATM    3  O           1     -38.075  -0.681 -11.661  0.00  0.00    -0.271 OA
HETATM    4  H           1     -35.432  -0.002 -10.113  0.00  0.00     0.163 HD
ENDROOT
BRANCH   1   5
HETATM    5  C           1     -38.004   0.043  -9.418  0.00  0.00     0.283 C 
BRANCH   5   6
HETATM    6  N           1     -37.535  -0.902  -8.352  0.00  0.00    -0.066 N 
HETATM    7  H           1     -37.326  -0.367  -7.479  0.00  0.00     0.275 HD
HETATM    8  H           1     -38.282  -1.607  -8.158  0.00  0.00     0.275 HD
HETATM    9  H           1     -36.670  -1.390  -8.676  0.00  0.00     0.275 HD
ENDBRANCH   5   6
BRANCH   5  10
HETATM   10  C           1     -37.596   1.465  -9.052  0.00  0.00     0.113 C 
BRANCH  10  11
HETATM   11  S           1     -37.185   1.539  -7.286  0.00  0.00    -0.180 SA
HETATM   12  H           1     -38.115   2.456  -6.964  0.00  0.00     0.101 HD
ENDBRANCH  10  11
ENDBRANCH   5  10
ENDBRANCH   1   5
BRANCH   2  13
HETATM   13  C           1     -35.414  -0.655 -12.155  0.00  0.00     0.186 C 
BRANCH  13  14
HETATM   14  C           1     -34.353  -1.703 -11.923  0.00  0.00     0.196 C 
HETATM   15  O           1     -33.609  -1.628 -10.922  0.00  0.00    -0.646 OA
HETATM   16  O           1     -34.219  -2.646 -12.732  0.00  0.00    -0.646 OA
ENDBRANCH  13  14
BRANCH  13  17
HETATM   17  C           1     -34.782   0.577 -12.788  0.00  0.00     0.046 C 
BRANCH  17  18
HETATM   18  C           1     -34.950   0.513 -14.300  0.00  0.00     0.076 C 
BRANCH  18  19
HETATM   19  S           1     -36.572  -0.195 -14.701  0.00  0.00    -0.173 SA
HETATM   20  C           1     -36.168  -0.667 -16.406  0.00  0.00     0.089 C 
ENDBRANCH  18  19
ENDBRANCH  17  18
ENDBRANCH  13  17
ENDBRANCH   2  13
TORSDOF 9
ENDMDL
MODEL 3
REMARK VINA RESULT:      -4.5     15.190     17.289
REMARK  9 active torsions:
REMARK  status: ('A' for Active; 'I' for Inactive)
REMARK    1  A    between atoms: C_1  and  C_2 
REMARK    2  A    between atoms: C_2  and  C_3 
REMARK    3  A    between atoms: C_2  and  N_12 
REMARK    4  A    between atoms: C_3  and  C_15 
REMARK    5  A    between atoms: S_4  and  C_15 
REMARK    6  A    between atoms: N_7  and  C_10 
REMARK    7  A    between atoms: S_8  and  C_9 
REMARK    8  A    between atoms: C_9  and  C_10 
REMARK    9  A    between atoms: C_10  and  C_11 
REMARK       I    between atoms: C_11  and  N_12 
ROOT
HETATM    1  C           1     -20.967  -5.187  -6.706  0.00  0.00     0.249 C 
HETATM    2  N           1     -21.185  -6.473  -6.289  0.00  0.00    -0.345 N 
HETATM    3  O           1     -20.409  -4.402  -5.977  0.00  0.00    -0.271 OA
HETATM    4  H           1     -21.653  -7.131  -6.899  0.00  0.00     0.163 HD
ENDROOT
BRANCH   1   5
HETATM    5  C           1     -21.425  -4.751  -8.076  0.00  0.00     0.283 C 
BRANCH   5   6
HETATM    6  N           1     -22.337  -3.568  -7.944  0.00  0.00    -0.066 N 
HETATM    7  H           1     -23.316  -3.899  -7.785  0.00  0.00     0.275 HD
HETATM    8  H           1     -22.032  -2.981  -7.135  0.00  0.00     0.275 HD
HETATM    9  H           1     -22.301  -3.001  -8.821  0.00  0.00     0.275 HD
ENDBRANCH   5   6
BRANCH   5  10
HETATM   10  C           1     -20.214  -4.367  -8.917  0.00  0.00     0.113 C 
BRANCH  10  11
HETATM   11  S           1     -20.717  -4.183 -10.652  0.00  0.00    -0.180 SA
HETATM   12  H           1     -21.963  -4.662 -10.487  0.00  0.00     0.101 HD
ENDBRANCH  10  11
ENDBRANCH   5  10
ENDBRANCH   1   5
BRANCH   2  13
HETATM   13  C           1     -20.746  -6.892  -4.972  0.00  0.00     0.186 C 
BRANCH  13  14
HETATM   14  C           1     -20.233  -8.310  -5.041  0.00  0.00     0.196 C 
HETATM   15  O           1     -20.813  -9.149  -5.764  0.00  0.00    -0.646 OA
HETATM   16  O           1     -19.230  -8.645  -4.376  0.00  0.00    -0.646 OA
ENDBRANCH  13  14
BRANCH  13  17
HETATM   17  C           1     -21.917  -6.822  -4.001  0.00  0.00     0.046 C 
BRANCH  17  18
HETATM   18  C           1     -21.493  -6.068  -2.748  0.00  0.00     0.076 C 
BRANCH  18  19
HETATM   19  S           1     -22.185  -6.888  -1.284  0.00  0.00    -0.173 SA
HETATM   20  C           1     -20.885  -8.145  -1.127  0.00  0.00     0.089 C 
ENDBRANCH  18  19
ENDBRANCH  17  18
ENDBRANCH  13  17
ENDBRANCH   2  13
TORSDOF 9
ENDMDL
MODEL 4
REMARK VINA RESULT:      -4.4     13.355     16.151
REMARK  9 active torsions:
REMARK  status: ('A' for Active; 'I' for Inactive)
REMARK    1  A    between atoms: C_1  and  C_2 
REMARK    2  A    between atoms: C_2  and  C_3 
REMARK    3  A    between atoms: C_2  and  N_12 
REMARK    4  A    between atoms: C_3  and  C_15 
REMARK    5  A    between atoms: S_4  and  C_15 
REMARK    6  A    between atoms: N_7  and  C_10 
REMARK    7  A    between atoms: S_8  and  C_9 
REMARK    8  A    between atoms: C_9  and  C_10 
REMARK    9  A    between atoms: C_10  and  C_11 
REMARK       I    between atoms: C_11  and  N_12 
ROOT
HETATM    1  C           1     -22.366  -4.211  -7.977  0.00  0.00     0.249 C 
HETATM    2  N           1     -22.251  -5.372  -7.261  0.00  0.00    -0.345 N 
HETATM    3  O           1     -21.802  -3.210  -7.602  0.00  0.00    -0.271 OA
HETATM    4  H           1     -22.723  -6.210  -7.575  0.00  0.00     0.163 HD
ENDROOT
BRANCH   1   5
HETATM    5  C           1     -23.197  -4.180  -9.236  0.00  0.00     0.283 C 
BRANCH   5   6
HETATM    6  N           1     -24.526  -3.549  -8.942  0.00  0.00    -0.066 N 
HETATM    7  H           1     -25.258  -4.291  -8.876  0.00  0.00     0.275 HD
HETATM    8  H           1     -24.473  -3.031  -8.037  0.00  0.00     0.275 HD
HETATM    9  H           1     -24.773  -2.885  -9.711  0.00  0.00     0.275 HD
ENDBRANCH   5   6
BRANCH   5  10
HETATM   10  C           1     -22.474  -3.369 -10.304  0.00  0.00     0.113 C 
BRANCH  10  11
HETATM   11  S           1     -21.110  -4.350 -10.988  0.00  0.00    -0.180 SA
HETATM   12  H           1     -21.643  -4.494 -12.215  0.00  0.00     0.101 HD
ENDBRANCH  10  11
ENDBRANCH   5  10
ENDBRANCH   1   5
BRANCH   2  13
HETATM   13  C           1     -21.452  -5.400  -6.050  0.00  0.00     0.186 C 
BRANCH  13  14
HETATM   14  C           1     -20.009  -5.660  -6.407  0.00  0.00     0.196 C 
HETATM   15  O           1     -19.667  -6.776  -6.852  0.00  0.00    -0.646 OA
HETATM   16  O           1     -19.158  -4.758  -6.258  0.00  0.00    -0.646 OA
ENDBRANCH  13  14
BRANCH  13  17
HETATM   17  C           1     -21.957  -6.509  -5.137  0.00  0.00     0.046 C 
BRANCH  17  18
HETATM   18  C           1     -21.338  -6.350  -3.755  0.00  0.00     0.076 C 
BRANCH  18  19
HETATM   19  S           1     -21.302  -7.960  -2.918  0.00  0.00    -0.173 SA
HETATM   20  C           1     -19.887  -8.630  -3.837  0.00  0.00     0.089 C 
ENDBRANCH  18  19
ENDBRANCH  17  18
ENDBRANCH  13  17
ENDBRANCH   2  13
TORSDOF 9
ENDMDL
MODEL 5
REMARK VINA RESULT:      -4.3     13.983     15.728
REMARK  9 active torsions:
REMARK  status: ('A' for Active; 'I' for Inactive)
REMARK    1  A    between atoms: C_1  and  C_2 
REMARK    2  A    between atoms: C_2  and  C_3 
REMARK    3  A    between atoms: C_2  and  N_12 
REMARK    4  A    between atoms: C_3  and  C_15 
REMARK    5  A    between atoms: S_4  and  C_15 
REMARK    6  A    between atoms: N_7  and  C_10 
REMARK    7  A    between atoms: S_8  and  C_9 
REMARK    8  A    between atoms: C_9  and  C_10 
REMARK    9  A    between atoms: C_10  and  C_11 
REMARK       I    between atoms: C_11  and  N_12 
ROOT
HETATM    1  C           1     -21.167  -6.625  -5.653  0.00  0.00     0.249 C 
HETATM    2  N           1     -21.169  -5.341  -6.129  0.00  0.00    -0.345 N 
HETATM    3  O           1     -21.240  -7.554  -6.422  0.00  0.00    -0.271 OA
HETATM    4  H           1     -21.109  -4.562  -5.486  0.00  0.00     0.163 HD
ENDROOT
BRANCH   1   5
HETATM    5  C           1     -21.072  -6.879  -4.169  0.00  0.00     0.283 C 
BRANCH   5   6
HETATM    6  N           1     -22.154  -6.118  -3.462  0.00  0.00    -0.066 N 
HETATM    7  H           1     -22.831  -5.741  -4.164  0.00  0.00     0.275 HD
HETATM    8  H           1     -22.655  -6.755  -2.803  0.00  0.00     0.275 HD
HETATM    9  H           1     -21.731  -5.325  -2.929  0.00  0.00     0.275 HD
ENDBRANCH   5   6
BRANCH   5  10
HETATM   10  C           1     -21.238  -8.368  -3.896  0.00  0.00     0.113 C 
BRANCH  10  11
HETATM   11  S           1     -19.682  -9.041  -3.248  0.00  0.00    -0.180 SA
HETATM   12  H           1     -20.240  -9.744  -2.247  0.00  0.00     0.101 HD
ENDBRANCH  10  11
ENDBRANCH   5  10
ENDBRANCH   1   5
BRANCH   2  13
HETATM   13  C           1     -21.261  -5.097  -7.556  0.00  0.00     0.186 C 
BRANCH  13  14
HETATM   14  C           1     -19.884  -4.813  -8.106  0.00  0.00     0.196 C 
HETATM   15  O           1     -18.943  -4.549  -7.327  0.00  0.00    -0.646 OA
HETATM   16  O           1     -19.686  -4.843  -9.339  0.00  0.00    -0.646 OA
ENDBRANCH  13  14
BRANCH  13  17
HETATM   17  C           1     -22.166  -3.898  -7.808  0.00  0.00     0.046 C 
BRANCH  17  18
HETATM   18  C           1     -23.562  -4.384  -8.173  0.00  0.00     0.076 C 
BRANCH  18  19
HETATM   19  S           1     -24.171  -3.455  -9.608  0.00  0.00    -0.173 SA
HETATM   20  C           1     -22.660  -3.608 -10.601  0.00  0.00     0.089 C 
ENDBRANCH  18  19
ENDBRANCH  17  18
ENDBRANCH  13  17
ENDBRANCH   2  13
TORSDOF 9
ENDMDL
MODEL 6
REMARK VINA RESULT:      -4.2     15.064     17.775
REMARK  9 active torsions:
REMARK  status: ('A' for Active; 'I' for Inactive)
REMARK    1  A    between atoms: C_1  and  C_2 
REMARK    2  A    between atoms: C_2  and  C_3 
REMARK    3  A    between atoms: C_2  and  N_12 
REMARK    4  A    between atoms: C_3  and  C_15 
REMARK    5  A    between atoms: S_4  and  C_15 
REMARK    6  A    between atoms: N_7  and  C_10 
REMARK    7  A    between atoms: S_8  and  C_9 
REMARK    8  A    between atoms: C_9  and  C_10 
REMARK    9  A    between atoms: C_10  and  C_11 
REMARK       I    between atoms: C_11  and  N_12 
ROOT
HETATM    1  C           1     -21.556  -5.906  -5.526  0.00  0.00     0.249 C 
HETATM    2  N           1     -20.890  -6.736  -4.666  0.00  0.00    -0.345 N 
HETATM    3  O           1     -22.763  -5.854  -5.503  0.00  0.00    -0.271 OA
HETATM    4  H           1     -19.879  -6.780  -4.686  0.00  0.00     0.163 HD
ENDROOT
BRANCH   1   5
HETATM    5  C           1     -20.784  -5.053  -6.503  0.00  0.00     0.283 C 
BRANCH   5   6
HETATM    6  N           1     -20.078  -5.938  -7.488  0.00  0.00    -0.066 N 
HETATM    7  H           1     -19.358  -5.382  -8.002  0.00  0.00     0.275 HD
HETATM    8  H           1     -19.614  -6.724  -6.980  0.00  0.00     0.275 HD
HETATM    9  H           1     -20.771  -6.322  -8.169  0.00  0.00     0.275 HD
ENDBRANCH   5   6
BRANCH   5  10
HETATM   10  C           1     -21.744  -4.132  -7.245  0.00  0.00     0.113 C 
BRANCH  10  11
HETATM   11  S           1     -21.553  -4.373  -9.033  0.00  0.00    -0.180 SA
HETATM   12  H           1     -22.388  -3.384  -9.398  0.00  0.00     0.101 HD
ENDBRANCH  10  11
ENDBRANCH   5  10
ENDBRANCH   1   5
BRANCH   2  13
HETATM   13  C           1     -21.633  -7.556  -3.728  0.00  0.00     0.186 C 
BRANCH  13  14
HETATM   14  C           1     -21.611  -6.905  -2.367  0.00  0.00     0.196 C 
HETATM   15  O           1     -22.292  -5.879  -2.154  0.00  0.00    -0.646 OA
HETATM   16  O           1     -20.912  -7.392  -1.453  0.00  0.00    -0.646 OA
ENDBRANCH  13  14
BRANCH  13  17
HETATM   17  C           1     -20.992  -8.935  -3.642  0.00  0.00     0.046 C 
BRANCH  17  18
HETATM   18  C           1     -19.652  -8.918  -4.366  0.00  0.00     0.076 C 
BRANCH  18  19
HETATM   19  S           1     -18.352  -9.508  -3.245  0.00  0.00    -0.173 SA
HETATM   20  C           1     -19.438 -10.504  -2.186  0.00  0.00     0.089 C 
ENDBRANCH  18  19
ENDBRANCH  17  18
ENDBRANCH  13  17
ENDBRANCH   2  13
TORSDOF 9
ENDMDL
MODEL 7
REMARK VINA RESULT:      -4.2     25.255     26.101
REMARK  9 active torsions:
REMARK  status: ('A' for Active; 'I' for Inactive)
REMARK    1  A    between atoms: C_1  and  C_2 
REMARK    2  A    between atoms: C_2  and  C_3 
REMARK    3  A    between atoms: C_2  and  N_12 
REMARK    4  A    between atoms: C_3  and  C_15 
REMARK    5  A    between atoms: S_4  and  C_15 
REMARK    6  A    between atoms: N_7  and  C_10 
REMARK    7  A    between atoms: S_8  and  C_9 
REMARK    8  A    between atoms: C_9  and  C_10 
REMARK    9  A    between atoms: C_10  and  C_11 
REMARK       I    between atoms: C_11  and  N_12 
ROOT
HETATM    1  C           1     -12.564   6.601 -20.747  0.00  0.00     0.249 C 
HETATM    2  N           1     -12.280   7.648 -19.911  0.00  0.00    -0.345 N 
HETATM    3  O           1     -12.287   6.673 -21.920  0.00  0.00    -0.271 OA
HETATM    4  H           1     -12.512   7.589 -18.928  0.00  0.00     0.163 HD
ENDROOT
BRANCH   1   5
HETATM    5  C           1     -13.223   5.358 -20.201  0.00  0.00     0.283 C 
BRANCH   5   6
HETATM    6  N           1     -14.005   4.688 -21.292  0.00  0.00    -0.066 N 
HETATM    7  H           1     -13.949   3.652 -21.175  0.00  0.00     0.275 HD
HETATM    8  H           1     -15.004   4.991 -21.240  0.00  0.00     0.275 HD
HETATM    9  H           1     -13.606   4.955 -22.220  0.00  0.00     0.275 HD
ENDBRANCH   5   6
BRANCH   5  10
HETATM   10  C           1     -12.155   4.403 -19.682  0.00  0.00     0.113 C 
BRANCH  10  11
HETATM   11  S           1     -11.854   3.105 -20.914  0.00  0.00    -0.180 SA
HETATM   12  H           1     -12.773   3.534 -21.797  0.00  0.00     0.101 HD
ENDBRANCH  10  11
ENDBRANCH   5  10
ENDBRANCH   1   5
BRANCH   2  13
HETATM   13  C           1     -11.647   8.843 -20.436  0.00  0.00     0.186 C 
BRANCH  13  14
HETATM   14  C           1     -10.343   9.079 -19.713  0.00  0.00     0.196 C 
HETATM   15  O           1     -10.163   8.596 -18.575  0.00  0.00    -0.646 OA
HETATM   16  O           1      -9.444   9.757 -20.254  0.00  0.00    -0.646 OA
ENDBRANCH  13  14
BRANCH  13  17
HETATM   17  C           1     -12.568  10.038 -20.225  0.00  0.00     0.046 C 
BRANCH  17  18
HETATM   18  C           1     -13.226   9.937 -18.856  0.00  0.00     0.076 C 
BRANCH  18  19
HETATM   19  S           1     -14.451  11.263 -18.673  0.00  0.00    -0.173 SA
HETATM   20  C           1     -15.092  10.722 -17.063  0.00  0.00     0.089 C 
ENDBRANCH  18  19
ENDBRANCH  17  18
ENDBRANCH  13  17
ENDBRANCH   2  13
TORSDOF 9
ENDMDL
MODEL 8
REMARK VINA RESULT:      -4.0      1.832      2.117
REMARK  9 active torsions:
REMARK  status: ('A' for Active; 'I' for Inactive)
REMARK    1  A    between atoms: C_1  and  C_2 
REMARK    2  A    between atoms: C_2  and  C_3 
REMARK    3  A    between atoms: C_2  and  N_12 
REMARK    4  A    between atoms: C_3  and  C_15 
REMARK    5  A    between atoms: S_4  and  C_15 
REMARK    6  A    between atoms: N_7  and  C_10 
REMARK    7  A    between atoms: S_8  and  C_9 
REMARK    8  A    between atoms: C_9  and  C_10 
REMARK    9  A    between atoms: C_10  and  C_11 
REMARK       I    between atoms: C_11  and  N_12 
ROOT
HETATM    1  C           1     -33.933  -3.136 -12.569  0.00  0.00     0.249 C 
HETATM    2  N           1     -34.799  -2.111 -12.840  0.00  0.00    -0.345 N 
HETATM    3  O           1     -33.202  -3.071 -11.609  0.00  0.00    -0.271 OA
HETATM    4  H           1     -35.411  -2.164 -13.644  0.00  0.00     0.163 HD
ENDROOT
BRANCH   1   5
HETATM    5  C           1     -33.892  -4.347 -13.468  0.00  0.00     0.283 C 
BRANCH   5   6
HETATM    6  N           1     -34.770  -5.421 -12.897  0.00  0.00    -0.066 N 
HETATM    7  H           1     -34.885  -5.269 -11.870  0.00  0.00     0.275 HD
HETATM    8  H           1     -35.706  -5.389 -13.361  0.00  0.00     0.275 HD
HETATM    9  H           1     -34.329  -6.355 -13.062  0.00  0.00     0.275 HD
ENDBRANCH   5   6
BRANCH   5  10
HETATM   10  C           1     -34.391  -3.967 -14.856  0.00  0.00     0.113 C 
BRANCH  10  11
HETATM   11  S           1     -33.143  -4.420 -16.092  0.00  0.00    -0.180 SA
HETATM   12  H           1     -32.377  -3.327 -15.924  0.00  0.00     0.101 HD
ENDBRANCH  10  11
ENDBRANCH   5  10
ENDBRANCH   1   5
BRANCH   2  13
HETATM   13  C           1     -34.837  -0.946 -11.976  0.00  0.00     0.186 C 
BRANCH  13  14
HETATM   14  C           1     -35.970  -1.091 -10.989  0.00  0.00     0.196 C 
HETATM   15  O           1     -36.193  -0.186 -10.157  0.00  0.00    -0.646 OA
HETATM   16  O           1     -36.685  -2.116 -11.005  0.00  0.00    -0.646 OA
ENDBRANCH  13  14
BRANCH  13  17
HETATM   17  C           1     -35.054   0.303 -12.819  0.00  0.00     0.046 C 
BRANCH  17  18
HETATM   18  C           1     -36.215   0.074 -13.778  0.00  0.00     0.076 C 
BRANCH  18  19
HETATM   19  S           1     -35.803   0.765 -15.405  0.00  0.00    -0.173 SA
HETATM   20  C           1     -35.951  -0.792 -16.325  0.00  0.00     0.089 C 
ENDBRANCH  18  19
ENDBRANCH  17  18
ENDBRANCH  13  17
ENDBRANCH   2  13
TORSDOF 9
ENDMDL
MODEL 9
REMARK VINA RESULT:      -4.0     15.166     17.130
REMARK  9 active torsions:
REMARK  status: ('A' for Active; 'I' for Inactive)
REMARK    1  A    between atoms: C_1  and  C_2 
REMARK    2  A    between atoms: C_2  and  C_3 
REMARK    3  A    between atoms: C_2  and  N_12 
REMARK    4  A    between atoms: C_3  and  C_15 
REMARK    5  A    between atoms: S_4  and  C_15 
REMARK    6  A    between atoms: N_7  and  C_10 
REMARK    7  A    between atoms: S_8  and  C_9 
REMARK    8  A    between atoms: C_9  and  C_10 
REMARK    9  A    between atoms: C_10  and  C_11 
REMARK       I    between atoms: C_11  and  N_12 
ROOT
HETATM    1  C           1     -20.212  -9.187  -4.930  0.00  0.00     0.249 C 
HETATM    2  N           1     -21.028  -8.321  -5.607  0.00  0.00    -0.345 N 
HETATM    3  O           1     -19.334  -8.759  -4.219  0.00  0.00    -0.271 OA
HETATM    4  H           1     -21.763  -8.679  -6.203  0.00  0.00     0.163 HD
ENDROOT
BRANCH   1   5
HETATM    5  C           1     -20.411 -10.676  -5.071  0.00  0.00     0.283 C 
BRANCH   5   6
HETATM    6  N           1     -21.005 -10.976  -6.415  0.00  0.00    -0.066 N 
HETATM    7  H           1     -22.003 -10.667  -6.432  0.00  0.00     0.275 HD
HETATM    8  H           1     -20.471 -10.465  -7.154  0.00  0.00     0.275 HD
HETATM    9  H           1     -20.956 -12.004  -6.596  0.00  0.00     0.275 HD
ENDBRANCH   5   6
BRANCH   5  10
HETATM   10  C           1     -19.068 -11.383  -4.941  0.00  0.00     0.113 C 
BRANCH  10  11
HETATM   11  S           1     -18.319 -11.566  -6.584  0.00  0.00    -0.180 SA
HETATM   12  H           1     -19.184 -12.495  -7.029  0.00  0.00     0.101 HD
ENDBRANCH  10  11
ENDBRANCH   5  10
ENDBRANCH   1   5
BRANCH   2  13
HETATM   13  C           1     -20.837  -6.889  -5.472  0.00  0.00     0.186 C 
BRANCH  13  14
HETATM   14  C           1     -21.949  -6.312  -4.630  0.00  0.00     0.196 C 
HETATM   15  O           1     -21.741  -6.030  -3.430  0.00  0.00    -0.646 OA
HETATM   16  O           1     -23.075  -6.117  -5.132  0.00  0.00    -0.646 OA
ENDBRANCH  13  14
BRANCH  13  17
HETATM   17  C           1     -20.857  -6.243  -6.851  0.00  0.00     0.046 C 
BRANCH  17  18
HETATM   18  C           1     -19.723  -5.232  -6.954  0.00  0.00     0.076 C 
BRANCH  18  19
HETATM   19  S           1     -20.070  -4.068  -8.303  0.00  0.00    -0.173 SA
HETATM   20  C           1     -21.819  -3.808  -7.896  0.00  0.00     0.089 C 
ENDBRANCH  18  19
ENDBRANCH  17  18
ENDBRANCH  13  17
ENDBRANCH   2  13
TORSDOF 9
ENDMDL
