MODEL 1
REMARK VINA RESULT:      -6.7      0.000      0.000
REMARK  11 active torsions:
REMARK  status: ('A' for Active; 'I' for Inactive)
REMARK       I    between atoms: N_2  and  C_27 
REMARK       I    between atoms: N_6  and  C_27 
REMARK    1  A    between atoms: N_6  and  C_9 
REMARK    2  A    between atoms: C_9  and  C_23 
REMARK    3  A    between atoms: C_10  and  C_26 
REMARK       I    between atoms: C_10  and  N_11 
REMARK    4  A    between atoms: N_13  and  C_24 
REMARK    5  A    between atoms: C_16  and  C_21 
REMARK       I    between atoms: C_17  and  N_18 
REMARK    6  A    between atoms: C_17  and  C_24 
REMARK    7  A    between atoms: N_18  and  C_21 
REMARK    8  A    between atoms: C_21  and  C_22 
REMARK    9  A    between atoms: C_22  and  C_23 
REMARK   10  A    between atoms: C_24  and  C_25 
REMARK   11  A    between atoms: C_25  and  C_26 
ROOT
HETATM    1  H           1     -21.728  -7.064  -7.341  0.00  0.00     0.163 HD
HETATM    2  C           1     -21.063  -5.120  -7.100  0.00  0.00     0.249 C 
HETATM    3  N           1     -21.255  -6.421  -6.719  0.00  0.00    -0.345 N 
HETATM    4  O           1     -20.499  -4.350  -6.358  0.00  0.00    -0.271 OA
ENDROOT
BRANCH   3   5
HETATM    5  C           1     -20.782  -6.875  -5.426  0.00  0.00     0.185 C 
BRANCH   5   6
HETATM    6  C           1     -20.299  -8.299  -5.540  0.00  0.00     0.196 C 
HETATM    7  O           1     -19.075  -8.540  -5.616  0.00  0.00    -0.646 OA
HETATM    8  O           1     -21.122  -9.240  -5.559  0.00  0.00    -0.646 OA
ENDBRANCH   5   6
BRANCH   5   9
HETATM    9  C           1     -21.920  -6.803  -4.416  0.00  0.00     0.038 C 
BRANCH   9  10
HETATM   10  C           1     -21.412  -6.188  -3.119  0.00  0.00     0.023 C 
BRANCH  10  11
HETATM   11  C           1     -21.276  -7.275  -2.061  0.00  0.00     0.138 C 
BRANCH  11  12
HETATM   12  N           1     -22.350  -7.129  -1.068  0.00  0.00    -0.227 N 
HETATM   13  C           1     -22.541  -8.036  -0.204  0.00  0.00     0.665 C 
HETATM   14  N           1     -21.807  -9.068  -0.197  0.00  0.00    -0.235 N 
HETATM   15  N           1     -23.490  -7.907   0.674  0.00  0.00    -0.235 N 
HETATM   16  H           1     -21.041  -9.172  -0.906  0.00  0.00     0.174 HD
HETATM   17  H           1     -21.966  -9.819   0.519  0.00  0.00     0.174 HD
HETATM   18  H           1     -24.096  -7.055   0.668  0.00  0.00     0.174 HD
HETATM   19  H           1     -23.648  -8.655   1.387  0.00  0.00     0.174 HD
HETATM   20  H           1     -22.958  -6.274  -1.074  0.00  0.00     0.177 HD
ENDBRANCH  11  12
ENDBRANCH  10  11
ENDBRANCH   9  10
ENDBRANCH   5   9
ENDBRANCH   3   5
BRANCH   2  21
HETATM   21  C           1     -21.555  -4.646  -8.445  0.00  0.00     0.275 C 
BRANCH  21  22
HETATM   22  N           1     -22.676  -3.669  -8.251  0.00  0.00    -0.066 N 
HETATM   23  H           1     -22.479  -2.799  -8.796  0.00  0.00     0.275 HD
HETATM   24  H           1     -23.570  -4.094  -8.587  0.00  0.00     0.275 HD
HETATM   25  H           1     -22.761  -3.433  -7.237  0.00  0.00     0.275 HD
ENDBRANCH  21  22
BRANCH  21  26
HETATM   26  C           1     -20.415  -3.968  -9.194  0.00  0.00     0.052 C 
BRANCH  26  27
HETATM   27  C           1     -20.338  -4.521 -10.612  0.00  0.00     0.105 C 
BRANCH  27  28
HETATM   28  C           1     -21.440  -3.918 -11.447  0.00  0.00     0.215 C 
HETATM   29  N           1     -22.345  -4.731 -12.074  0.00  0.00    -0.370 N 
HETATM   30  H           1     -23.085  -4.328 -12.635  0.00  0.00     0.159 HD
HETATM   31  H           1     -22.277  -5.736 -11.976  0.00  0.00     0.159 HD
HETATM   32  O           1     -21.522  -2.719 -11.565  0.00  0.00    -0.274 OA
ENDBRANCH  27  28
ENDBRANCH  26  27
ENDBRANCH  21  26
ENDBRANCH   2  21
TORSDOF 11
ENDMDL
MODEL 2
REMARK VINA RESULT:      -6.6      2.002      8.309
REMARK  11 active torsions:
REMARK  status: ('A' for Active; 'I' for Inactive)
REMARK       I    between atoms: N_2  and  C_27 
REMARK       I    between atoms: N_6  and  C_27 
REMARK    1  A    between atoms: N_6  and  C_9 
REMARK    2  A    between atoms: C_9  and  C_23 
REMARK    3  A    between atoms: C_10  and  C_26 
REMARK       I    between atoms: C_10  and  N_11 
REMARK    4  A    between atoms: N_13  and  C_24 
REMARK    5  A    between atoms: C_16  and  C_21 
REMARK       I    between atoms: C_17  and  N_18 
REMARK    6  A    between atoms: C_17  and  C_24 
REMARK    7  A    between atoms: N_18  and  C_21 
REMARK    8  A    between atoms: C_21  and  C_22 
REMARK    9  A    between atoms: C_22  and  C_23 
REMARK   10  A    between atoms: C_24  and  C_25 
REMARK   11  A    between atoms: C_25  and  C_26 
ROOT
HETATM    1  H           1     -20.508  -4.724  -4.884  0.00  0.00     0.163 HD
HETATM    2  C           1     -21.602  -6.441  -4.517  0.00  0.00     0.249 C 
HETATM    3  N           1     -21.074  -5.451  -5.302  0.00  0.00    -0.345 N 
HETATM    4  O           1     -22.279  -7.310  -5.014  0.00  0.00    -0.271 OA
ENDROOT
BRANCH   3   5
HETATM    5  C           1     -21.326  -5.446  -6.729  0.00  0.00     0.185 C 
BRANCH   5   6
HETATM    6  C           1     -20.044  -5.740  -7.467  0.00  0.00     0.196 C 
HETATM    7  O           1     -19.381  -6.761  -7.186  0.00  0.00    -0.646 OA
HETATM    8  O           1     -19.643  -4.961  -8.359  0.00  0.00    -0.646 OA
ENDBRANCH   5   6
BRANCH   5   9
HETATM    9  C           1     -21.851  -4.078  -7.146  0.00  0.00     0.038 C 
BRANCH   9  10
HETATM   10  C           1     -23.190  -4.240  -7.854  0.00  0.00     0.023 C 
BRANCH  10  11
HETATM   11  C           1     -22.952  -4.559  -9.323  0.00  0.00     0.138 C 
BRANCH  11  12
HETATM   12  N           1     -21.914  -3.664  -9.857  0.00  0.00    -0.227 N 
HETATM   13  C           1     -21.571  -3.748 -11.073  0.00  0.00     0.665 C 
HETATM   14  N           1     -22.121  -4.601 -11.829  0.00  0.00    -0.235 N 
HETATM   15  N           1     -20.654  -2.957 -11.545  0.00  0.00    -0.235 N 
HETATM   16  H           1     -22.862  -5.240 -11.448  0.00  0.00     0.174 HD
HETATM   17  H           1     -21.836  -4.670 -12.837  0.00  0.00     0.174 HD
HETATM   18  H           1     -20.200  -2.252 -10.922  0.00  0.00     0.174 HD
HETATM   19  H           1     -20.370  -3.025 -12.549  0.00  0.00     0.174 HD
HETATM   20  H           1     -21.458  -2.956  -9.230  0.00  0.00     0.177 HD
ENDBRANCH  11  12
ENDBRANCH  10  11
ENDBRANCH   9  10
ENDBRANCH   5   9
ENDBRANCH   3   5
BRANCH   2  21
HETATM   21  C           1     -21.340  -6.447  -3.031  0.00  0.00     0.275 C 
BRANCH  21  22
HETATM   22  N           1     -22.484  -5.786  -2.319  0.00  0.00    -0.066 N 
HETATM   23  H           1     -22.949  -5.107  -2.963  0.00  0.00     0.275 HD
HETATM   24  H           1     -23.174  -6.512  -2.022  0.00  0.00     0.275 HD
HETATM   25  H           1     -22.125  -5.280  -1.479  0.00  0.00     0.275 HD
ENDBRANCH  21  22
BRANCH  21  26
HETATM   26  C           1     -21.203  -7.884  -2.544  0.00  0.00     0.052 C 
BRANCH  26  27
HETATM   27  C           1     -21.063  -7.896  -1.027  0.00  0.00     0.105 C 
BRANCH  27  28
HETATM   28  C           1     -22.319  -8.462  -0.411  0.00  0.00     0.215 C 
HETATM   29  N           1     -22.551  -9.810  -0.448  0.00  0.00    -0.370 N 
HETATM   30  H           1     -23.393 -10.191  -0.035  0.00  0.00     0.159 HD
HETATM   31  H           1     -21.880 -10.428  -0.887  0.00  0.00     0.159 HD
HETATM   32  O           1     -23.120  -7.725   0.113  0.00  0.00    -0.274 OA
ENDBRANCH  27  28
ENDBRANCH  26  27
ENDBRANCH  21  26
ENDBRANCH   2  21
TORSDOF 11
ENDMDL
MODEL 3
REMARK VINA RESULT:      -6.5      1.922      2.190
REMARK  11 active torsions:
REMARK  status: ('A' for Active; 'I' for Inactive)
REMARK       I    between atoms: N_2  and  C_27 
REMARK       I    between atoms: N_6  and  C_27 
REMARK    1  A    between atoms: N_6  and  C_9 
REMARK    2  A    between atoms: C_9  and  C_23 
REMARK    3  A    between atoms: C_10  and  C_26 
REMARK       I    between atoms: C_10  and  N_11 
REMARK    4  A    between atoms: N_13  and  C_24 
REMARK    5  A    between atoms: C_16  and  C_21 
REMARK       I    between atoms: C_17  and  N_18 
REMARK    6  A    between atoms: C_17  and  C_24 
REMARK    7  A    between atoms: N_18  and  C_21 
REMARK    8  A    between atoms: C_21  and  C_22 
REMARK    9  A    between atoms: C_22  and  C_23 
REMARK   10  A    between atoms: C_24  and  C_25 
REMARK   11  A    between atoms: C_25  and  C_26 
ROOT
HETATM    1  H           1     -22.425  -5.841  -6.118  0.00  0.00     0.163 HD
HETATM    2  C           1     -20.705  -4.694  -6.209  0.00  0.00     0.249 C 
HETATM    3  N           1     -21.525  -5.662  -5.692  0.00  0.00    -0.345 N 
HETATM    4  O           1     -19.630  -4.479  -5.701  0.00  0.00    -0.271 OA
ENDROOT
BRANCH   3   5
HETATM    5  C           1     -21.102  -6.429  -4.537  0.00  0.00     0.185 C 
BRANCH   5   6
HETATM    6  C           1     -20.588  -7.773  -4.987  0.00  0.00     0.196 C 
HETATM    7  O           1     -19.688  -8.348  -4.337  0.00  0.00    -0.646 OA
HETATM    8  O           1     -21.061  -8.313  -6.011  0.00  0.00    -0.646 OA
ENDBRANCH   5   6
BRANCH   5   9
HETATM    9  C           1     -22.286  -6.625  -3.599  0.00  0.00     0.038 C 
BRANCH   9  10
HETATM   10  C           1     -21.937  -6.083  -2.219  0.00  0.00     0.023 C 
BRANCH  10  11
HETATM   11  C           1     -21.999  -7.212  -1.199  0.00  0.00     0.138 C 
BRANCH  11  12
HETATM   12  N           1     -20.831  -8.089  -1.367  0.00  0.00    -0.227 N 
HETATM   13  C           1     -20.987  -9.343  -1.438  0.00  0.00     0.665 C 
HETATM   14  N           1     -22.148  -9.842  -1.364  0.00  0.00    -0.235 N 
HETATM   15  N           1     -19.954 -10.119  -1.586  0.00  0.00    -0.235 N 
HETATM   16  H           1     -22.982  -9.216  -1.244  0.00  0.00     0.174 HD
HETATM   17  H           1     -22.276 -10.882  -1.423  0.00  0.00     0.174 HD
HETATM   18  H           1     -18.995  -9.707  -1.647  0.00  0.00     0.174 HD
HETATM   19  H           1     -20.082 -11.155  -1.645  0.00  0.00     0.174 HD
HETATM   20  H           1     -19.868  -7.675  -1.428  0.00  0.00     0.177 HD
ENDBRANCH  11  12
ENDBRANCH  10  11
ENDBRANCH   9  10
ENDBRANCH   5   9
ENDBRANCH   3   5
BRANCH   2  21
HETATM   21  C           1     -21.145  -3.896  -7.412  0.00  0.00     0.275 C 
BRANCH  21  22
HETATM   22  N           1     -20.204  -4.152  -8.552  0.00  0.00    -0.066 N 
HETATM   23  H           1     -19.330  -3.595  -8.415  0.00  0.00     0.275 HD
HETATM   24  H           1     -19.966  -5.170  -8.584  0.00  0.00     0.275 HD
HETATM   25  H           1     -20.659  -3.871  -9.449  0.00  0.00     0.275 HD
ENDBRANCH  21  22
BRANCH  21  26
HETATM   26  C           1     -22.553  -4.314  -7.813  0.00  0.00     0.052 C 
BRANCH  26  27
HETATM   27  C           1     -22.607  -4.539  -9.319  0.00  0.00     0.105 C 
BRANCH  27  28
HETATM   28  C           1     -23.837  -3.874  -9.884  0.00  0.00     0.215 C 
HETATM   29  N           1     -24.686  -3.191  -9.055  0.00  0.00    -0.370 N 
HETATM   30  H           1     -25.512  -2.744  -9.432  0.00  0.00     0.159 HD
HETATM   31  H           1     -24.489  -3.132  -8.064  0.00  0.00     0.159 HD
HETATM   32  O           1     -24.074  -3.944 -11.066  0.00  0.00    -0.274 OA
ENDBRANCH  27  28
ENDBRANCH  26  27
ENDBRANCH  21  26
ENDBRANCH   2  21
TORSDOF 11
ENDMDL
MODEL 4
REMARK VINA RESULT:      -6.2      2.214      2.818
REMARK  11 active torsions:
REMARK  status: ('A' for Active; 'I' for Inactive)
REMARK       I    between atoms: N_2  and  C_27 
REMARK       I    between atoms: N_6  and  C_27 
REMARK    1  A    between atoms: N_6  and  C_9 
REMARK    2  A    between atoms: C_9  and  C_23 
REMARK    3  A    between atoms: C_10  and  C_26 
REMARK       I    between atoms: C_10  and  N_11 
REMARK    4  A    between atoms: N_13  and  C_24 
REMARK    5  A    between atoms: C_16  and  C_21 
REMARK       I    between atoms: C_17  and  N_18 
REMARK    6  A    between atoms: C_17  and  C_24 
REMARK    7  A    between atoms: N_18  and  C_21 
REMARK    8  A    between atoms: C_21  and  C_22 
REMARK    9  A    between atoms: C_22  and  C_23 
REMARK   10  A    between atoms: C_24  and  C_25 
REMARK   11  A    between atoms: C_25  and  C_26 
ROOT
HETATM    1  H           1     -19.820  -6.757  -5.181  0.00  0.00     0.163 HD
HETATM    2  C           1     -21.509  -5.758  -5.840  0.00  0.00     0.249 C 
HETATM    3  N           1     -20.825  -6.677  -5.089  0.00  0.00    -0.345 N 
HETATM    4  O           1     -22.708  -5.661  -5.730  0.00  0.00    -0.271 OA
ENDROOT
BRANCH   3   5
HETATM    5  C           1     -21.540  -7.531  -4.161  0.00  0.00     0.185 C 
BRANCH   5   6
HETATM    6  C           1     -21.521  -6.908  -2.787  0.00  0.00     0.196 C 
HETATM    7  O           1     -20.662  -7.264  -1.952  0.00  0.00    -0.646 OA
HETATM    8  O           1     -22.365  -6.038  -2.483  0.00  0.00    -0.646 OA
ENDBRANCH   5   6
BRANCH   5   9
HETATM    9  C           1     -20.868  -8.897  -4.110  0.00  0.00     0.038 C 
BRANCH   9  10
HETATM   10  C           1     -21.927  -9.980  -3.950  0.00  0.00     0.023 C 
BRANCH  10  11
HETATM   11  C           1     -21.729 -10.690  -2.618  0.00  0.00     0.138 C 
BRANCH  11  12
HETATM   12  N           1     -22.834 -10.347  -1.710  0.00  0.00    -0.227 N 
HETATM   13  C           1     -22.588  -9.821  -0.585  0.00  0.00     0.665 C 
HETATM   14  N           1     -21.391  -9.591  -0.241  0.00  0.00    -0.235 N 
HETATM   15  N           1     -23.564  -9.517   0.218  0.00  0.00    -0.235 N 
HETATM   16  H           1     -20.602  -9.837  -0.889  0.00  0.00     0.174 HD
HETATM   17  H           1     -21.188  -9.155   0.692  0.00  0.00     0.174 HD
HETATM   18  H           1     -24.552  -9.706  -0.066  0.00  0.00     0.174 HD
HETATM   19  H           1     -23.362  -9.083   1.147  0.00  0.00     0.174 HD
HETATM   20  H           1     -23.826 -10.537  -1.995  0.00  0.00     0.177 HD
ENDBRANCH  11  12
ENDBRANCH  10  11
ENDBRANCH   9  10
ENDBRANCH   5   9
ENDBRANCH   3   5
BRANCH   2  21
HETATM   21  C           1     -20.765  -4.869  -6.805  0.00  0.00     0.275 C 
BRANCH  21  22
HETATM   22  N           1     -20.127  -5.711  -7.870  0.00  0.00    -0.066 N 
HETATM   23  H           1     -19.691  -5.092  -8.590  0.00  0.00     0.275 HD
HETATM   24  H           1     -19.390  -6.315  -7.440  0.00  0.00     0.275 HD
HETATM   25  H           1     -20.853  -6.312  -8.321  0.00  0.00     0.275 HD
ENDBRANCH  21  22
BRANCH  21  26
HETATM   26  C           1     -21.739  -3.890  -7.449  0.00  0.00     0.052 C 
BRANCH  26  27
HETATM   27  C           1     -21.809  -4.155  -8.948  0.00  0.00     0.105 C 
BRANCH  27  28
HETATM   28  C           1     -23.147  -3.701  -9.477  0.00  0.00     0.215 C 
HETATM   29  N           1     -24.241  -3.695  -8.654  0.00  0.00    -0.370 N 
HETATM   30  H           1     -25.139  -3.390  -9.008  0.00  0.00     0.159 HD
HETATM   31  H           1     -24.153  -3.993  -7.692  0.00  0.00     0.159 HD
HETATM   32  O           1     -23.252  -3.344 -10.626  0.00  0.00    -0.274 OA
ENDBRANCH  27  28
ENDBRANCH  26  27
ENDBRANCH  21  26
ENDBRANCH   2  21
TORSDOF 11
ENDMDL
MODEL 5
REMARK VINA RESULT:      -6.2      2.068      7.552
REMARK  11 active torsions:
REMARK  status: ('A' for Active; 'I' for Inactive)
REMARK       I    between atoms: N_2  and  C_27 
REMARK       I    between atoms: N_6  and  C_27 
REMARK    1  A    between atoms: N_6  and  C_9 
REMARK    2  A    between atoms: C_9  and  C_23 
REMARK    3  A    between atoms: C_10  and  C_26 
REMARK       I    between atoms: C_10  and  N_11 
REMARK    4  A    between atoms: N_13  and  C_24 
REMARK    5  A    between atoms: C_16  and  C_21 
REMARK       I    between atoms: C_17  and  N_18 
REMARK    6  A    between atoms: C_17  and  C_24 
REMARK    7  A    between atoms: N_18  and  C_21 
REMARK    8  A    between atoms: C_21  and  C_22 
REMARK    9  A    between atoms: C_22  and  C_23 
REMARK   10  A    between atoms: C_24  and  C_25 
REMARK   11  A    between atoms: C_25  and  C_26 
ROOT
HETATM    1  H           1     -20.158  -5.010  -5.048  0.00  0.00     0.163 HD
HETATM    2  C           1     -21.701  -6.311  -4.592  0.00  0.00     0.249 C 
HETATM    3  N           1     -20.943  -5.529  -5.421  0.00  0.00    -0.345 N 
HETATM    4  O           1     -22.639  -6.931  -5.037  0.00  0.00    -0.271 OA
ENDROOT
BRANCH   3   5
HETATM    5  C           1     -21.263  -5.445  -6.832  0.00  0.00     0.185 C 
BRANCH   5   6
HETATM    6  C           1     -20.019  -5.700  -7.647  0.00  0.00     0.196 C 
HETATM    7  O           1     -19.306  -6.696  -7.402  0.00  0.00    -0.646 OA
HETATM    8  O           1     -19.701  -4.914  -8.565  0.00  0.00    -0.646 OA
ENDBRANCH   5   6
BRANCH   5   9
HETATM    9  C           1     -21.802  -4.055  -7.148  0.00  0.00     0.038 C 
BRANCH   9  10
HETATM   10  C           1     -23.174  -4.176  -7.797  0.00  0.00     0.023 C 
BRANCH  10  11
HETATM   11  C           1     -23.010  -4.510  -9.273  0.00  0.00     0.138 C 
BRANCH  11  12
HETATM   12  N           1     -22.029  -3.595  -9.876  0.00  0.00    -0.227 N 
HETATM   13  C           1     -21.722  -3.714 -11.099  0.00  0.00     0.665 C 
HETATM   14  N           1     -22.259  -4.619 -11.802  0.00  0.00    -0.235 N 
HETATM   15  N           1     -20.855  -2.905 -11.633  0.00  0.00    -0.235 N 
HETATM   16  H           1     -22.959  -5.272 -11.371  0.00  0.00     0.174 HD
HETATM   17  H           1     -22.004  -4.717 -12.816  0.00  0.00     0.174 HD
HETATM   18  H           1     -20.411  -2.157 -11.053  0.00  0.00     0.174 HD
HETATM   19  H           1     -20.601  -3.002 -12.642  0.00  0.00     0.174 HD
HETATM   20  H           1     -21.584  -2.845  -9.294  0.00  0.00     0.177 HD
ENDBRANCH  11  12
ENDBRANCH  10  11
ENDBRANCH   9  10
ENDBRANCH   5   9
ENDBRANCH   3   5
BRANCH   2  21
HETATM   21  C           1     -21.367  -6.399  -3.123  0.00  0.00     0.275 C 
BRANCH  21  22
HETATM   22  N           1     -22.507  -5.847  -2.318  0.00  0.00    -0.066 N 
HETATM   23  H           1     -22.795  -6.545  -1.596  0.00  0.00     0.275 HD
HETATM   24  H           1     -22.204  -4.964  -1.847  0.00  0.00     0.275 HD
HETATM   25  H           1     -23.314  -5.647  -2.950  0.00  0.00     0.275 HD
ENDBRANCH  21  22
BRANCH  21  26
HETATM   26  C           1     -21.136  -7.855  -2.741  0.00  0.00     0.052 C 
BRANCH  26  27
HETATM   27  C           1     -19.934  -8.397  -3.505  0.00  0.00     0.105 C 
BRANCH  27  28
HETATM   28  C           1     -20.401  -9.393  -4.537  0.00  0.00     0.215 C 
HETATM   29  N           1     -21.626  -9.990  -4.405  0.00  0.00    -0.370 N 
HETATM   30  H           1     -21.940 -10.659  -5.097  0.00  0.00     0.159 HD
HETATM   31  H           1     -22.218  -9.763  -3.617  0.00  0.00     0.159 HD
HETATM   32  O           1     -19.694  -9.666  -5.477  0.00  0.00    -0.274 OA
ENDBRANCH  27  28
ENDBRANCH  26  27
ENDBRANCH  21  26
ENDBRANCH   2  21
TORSDOF 11
ENDMDL
MODEL 6
REMARK VINA RESULT:      -6.0      3.315      4.378
REMARK  11 active torsions:
REMARK  status: ('A' for Active; 'I' for Inactive)
REMARK       I    between atoms: N_2  and  C_27 
REMARK       I    between atoms: N_6  and  C_27 
REMARK    1  A    between atoms: N_6  and  C_9 
REMARK    2  A    between atoms: C_9  and  C_23 
REMARK    3  A    between atoms: C_10  and  C_26 
REMARK       I    between atoms: C_10  and  N_11 
REMARK    4  A    between atoms: N_13  and  C_24 
REMARK    5  A    between atoms: C_16  and  C_21 
REMARK       I    between atoms: C_17  and  N_18 
REMARK    6  A    between atoms: C_17  and  C_24 
REMARK    7  A    between atoms: N_18  and  C_21 
REMARK    8  A    between atoms: C_21  and  C_22 
REMARK    9  A    between atoms: C_22  and  C_23 
REMARK   10  A    between atoms: C_24  and  C_25 
REMARK   11  A    between atoms: C_25  and  C_26 
ROOT
HETATM    1  H           1     -19.826  -6.627  -4.994  0.00  0.00     0.163 HD
HETATM    2  C           1     -21.496  -5.707  -5.799  0.00  0.00     0.249 C 
HETATM    3  N           1     -20.836  -6.571  -4.966  0.00  0.00    -0.345 N 
HETATM    4  O           1     -22.702  -5.641  -5.767  0.00  0.00    -0.271 OA
ENDROOT
BRANCH   3   5
HETATM    5  C           1     -21.584  -7.404  -4.046  0.00  0.00     0.185 C 
BRANCH   5   6
HETATM    6  C           1     -21.561  -6.782  -2.672  0.00  0.00     0.196 C 
HETATM    7  O           1     -20.767  -7.209  -1.806  0.00  0.00    -0.646 OA
HETATM    8  O           1     -22.336  -5.840  -2.398  0.00  0.00    -0.646 OA
ENDBRANCH   5   6
BRANCH   5   9
HETATM    9  C           1     -20.952  -8.789  -3.988  0.00  0.00     0.038 C 
BRANCH   9  10
HETATM   10  C           1     -19.548  -8.733  -4.575  0.00  0.00     0.023 C 
BRANCH  10  11
HETATM   11  C           1     -18.609  -9.578  -3.726  0.00  0.00     0.138 C 
BRANCH  11  12
HETATM   12  N           1     -17.527 -10.108  -4.569  0.00  0.00    -0.227 N 
HETATM   13  C           1     -16.323 -10.009  -4.190  0.00  0.00     0.665 C 
HETATM   14  N           1     -16.050  -9.455  -3.086  0.00  0.00    -0.235 N 
HETATM   15  N           1     -15.367 -10.477  -4.937  0.00  0.00    -0.235 N 
HETATM   16  H           1     -16.822  -9.076  -2.483  0.00  0.00     0.174 HD
HETATM   17  H           1     -15.052  -9.373  -2.772  0.00  0.00     0.174 HD
HETATM   18  H           1     -15.592 -10.935  -5.849  0.00  0.00     0.174 HD
HETATM   19  H           1     -14.372 -10.396  -4.625  0.00  0.00     0.174 HD
HETATM   20  H           1     -17.754 -10.567  -5.485  0.00  0.00     0.177 HD
ENDBRANCH  11  12
ENDBRANCH  10  11
ENDBRANCH   9  10
ENDBRANCH   5   9
ENDBRANCH   3   5
BRANCH   2  21
HETATM   21  C           1     -20.717  -4.840  -6.757  0.00  0.00     0.275 C 
BRANCH  21  22
HETATM   22  N           1     -20.116  -5.698  -7.832  0.00  0.00    -0.066 N 
HETATM   23  H           1     -20.879  -6.156  -8.380  0.00  0.00     0.275 HD
HETATM   24  H           1     -19.539  -5.103  -8.469  0.00  0.00     0.275 HD
HETATM   25  H           1     -19.512  -6.430  -7.395  0.00  0.00     0.275 HD
ENDBRANCH  21  22
BRANCH  21  26
HETATM   26  C           1     -21.651  -3.816  -7.390  0.00  0.00     0.052 C 
BRANCH  26  27
HETATM   27  C           1     -21.706  -4.040  -8.896  0.00  0.00     0.105 C 
BRANCH  27  28
HETATM   28  C           1     -23.086  -3.705  -9.405  0.00  0.00     0.215 C 
HETATM   29  N           1     -24.162  -3.782  -8.562  0.00  0.00    -0.370 N 
HETATM   30  H           1     -25.089  -3.557  -8.902  0.00  0.00     0.159 HD
HETATM   31  H           1     -24.033  -4.063  -7.599  0.00  0.00     0.159 HD
HETATM   32  O           1     -23.242  -3.370 -10.555  0.00  0.00    -0.274 OA
ENDBRANCH  27  28
ENDBRANCH  26  27
ENDBRANCH  21  26
ENDBRANCH   2  21
TORSDOF 11
ENDMDL
MODEL 7
REMARK VINA RESULT:      -6.0      3.082      4.453
REMARK  11 active torsions:
REMARK  status: ('A' for Active; 'I' for Inactive)
REMARK       I    between atoms: N_2  and  C_27 
REMARK       I    between atoms: N_6  and  C_27 
REMARK    1  A    between atoms: N_6  and  C_9 
REMARK    2  A    between atoms: C_9  and  C_23 
REMARK    3  A    between atoms: C_10  and  C_26 
REMARK       I    between atoms: C_10  and  N_11 
REMARK    4  A    between atoms: N_13  and  C_24 
REMARK    5  A    between atoms: C_16  and  C_21 
REMARK       I    between atoms: C_17  and  N_18 
REMARK    6  A    between atoms: C_17  and  C_24 
REMARK    7  A    between atoms: N_18  and  C_21 
REMARK    8  A    between atoms: C_21  and  C_22 
REMARK    9  A    between atoms: C_22  and  C_23 
REMARK   10  A    between atoms: C_24  and  C_25 
REMARK   11  A    between atoms: C_25  and  C_26 
ROOT
HETATM    1  H           1     -19.730  -6.948  -4.639  0.00  0.00     0.163 HD
HETATM    2  C           1     -21.295  -5.928  -5.530  0.00  0.00     0.249 C 
HETATM    3  N           1     -20.735  -6.830  -4.665  0.00  0.00    -0.345 N 
HETATM    4  O           1     -22.494  -5.787  -5.561  0.00  0.00    -0.271 OA
ENDROOT
BRANCH   3   5
HETATM    5  C           1     -21.581  -7.615  -3.788  0.00  0.00     0.185 C 
BRANCH   5   6
HETATM    6  C           1     -21.627  -6.970  -2.425  0.00  0.00     0.196 C 
HETATM    7  O           1     -20.993  -7.474  -1.473  0.00  0.00    -0.646 OA
HETATM    8  O           1     -22.300  -5.932  -2.247  0.00  0.00    -0.646 OA
ENDBRANCH   5   6
BRANCH   5   9
HETATM    9  C           1     -21.015  -9.024  -3.664  0.00  0.00     0.038 C 
BRANCH   9  10
HETATM   10  C           1     -22.144 -10.038  -3.781  0.00  0.00     0.023 C 
BRANCH  10  11
HETATM   11  C           1     -21.571 -11.393  -4.175  0.00  0.00     0.138 C 
BRANCH  11  12
HETATM   12  N           1     -20.396 -11.197  -5.037  0.00  0.00    -0.227 N 
HETATM   13  C           1     -20.411 -11.614  -6.233  0.00  0.00     0.665 C 
HETATM   14  N           1     -21.438 -12.200  -6.685  0.00  0.00    -0.235 N 
HETATM   15  N           1     -19.373 -11.440  -6.995  0.00  0.00    -0.235 N 
HETATM   16  H           1     -22.277 -12.340  -6.070  0.00  0.00     0.174 HD
HETATM   17  H           1     -21.450 -12.546  -7.676  0.00  0.00     0.174 HD
HETATM   18  H           1     -18.525 -10.956  -6.621  0.00  0.00     0.174 HD
HETATM   19  H           1     -19.384 -11.785  -7.981  0.00  0.00     0.174 HD
HETATM   20  H           1     -19.545 -10.711  -4.661  0.00  0.00     0.177 HD
ENDBRANCH  11  12
ENDBRANCH  10  11
ENDBRANCH   9  10
ENDBRANCH   5   9
ENDBRANCH   3   5
BRANCH   2  21
HETATM   21  C           1     -20.414  -5.111  -6.443  0.00  0.00     0.275 C 
BRANCH  21  22
HETATM   22  N           1     -19.981  -5.955  -7.605  0.00  0.00    -0.066 N 
HETATM   23  H           1     -20.340  -6.929  -7.482  0.00  0.00     0.275 HD
HETATM   24  H           1     -20.367  -5.553  -8.490  0.00  0.00     0.275 HD
HETATM   25  H           1     -18.938  -5.972  -7.654  0.00  0.00     0.275 HD
ENDBRANCH  21  22
BRANCH  21  26
HETATM   26  C           1     -21.192  -3.905  -6.954  0.00  0.00     0.052 C 
BRANCH  26  27
HETATM   27  C           1     -21.368  -4.017  -8.464  0.00  0.00     0.105 C 
BRANCH  27  28
HETATM   28  C           1     -22.836  -3.950  -8.806  0.00  0.00     0.215 C 
HETATM   29  N           1     -23.774  -4.129  -7.826  0.00  0.00    -0.370 N 
HETATM   30  H           1     -24.760  -4.085  -8.054  0.00  0.00     0.159 HD
HETATM   31  H           1     -23.485  -4.304  -6.872  0.00  0.00     0.159 HD
HETATM   32  O           1     -23.182  -3.742  -9.944  0.00  0.00    -0.274 OA
ENDBRANCH  27  28
ENDBRANCH  26  27
ENDBRANCH  21  26
ENDBRANCH   2  21
TORSDOF 11
ENDMDL
MODEL 8
REMARK VINA RESULT:      -5.7      3.473      7.432
REMARK  11 active torsions:
REMARK  status: ('A' for Active; 'I' for Inactive)
REMARK       I    between atoms: N_2  and  C_27 
REMARK       I    between atoms: N_6  and  C_27 
REMARK    1  A    between atoms: N_6  and  C_9 
REMARK    2  A    between atoms: C_9  and  C_23 
REMARK    3  A    between atoms: C_10  and  C_26 
REMARK       I    between atoms: C_10  and  N_11 
REMARK    4  A    between atoms: N_13  and  C_24 
REMARK    5  A    between atoms: C_16  and  C_21 
REMARK       I    between atoms: C_17  and  N_18 
REMARK    6  A    between atoms: C_17  and  C_24 
REMARK    7  A    between atoms: N_18  and  C_21 
REMARK    8  A    between atoms: C_21  and  C_22 
REMARK    9  A    between atoms: C_22  and  C_23 
REMARK   10  A    between atoms: C_24  and  C_25 
REMARK   11  A    between atoms: C_25  and  C_26 
ROOT
HETATM    1  H           1     -21.335  -8.628  -6.295  0.00  0.00     0.163 HD
HETATM    2  C           1     -19.762  -9.032  -5.013  0.00  0.00     0.249 C 
HETATM    3  N           1     -20.685  -8.230  -5.628  0.00  0.00    -0.345 N 
HETATM    4  O           1     -18.985  -8.558  -4.218  0.00  0.00    -0.271 OA
ENDROOT
BRANCH   3   5
HETATM    5  C           1     -20.733  -6.813  -5.325  0.00  0.00     0.185 C 
BRANCH   5   6
HETATM    6  C           1     -21.939  -6.524  -4.466  0.00  0.00     0.196 C 
HETATM    7  O           1     -23.048  -6.308  -4.999  0.00  0.00    -0.646 OA
HETATM    8  O           1     -21.828  -6.498  -3.221  0.00  0.00    -0.646 OA
ENDBRANCH   5   6
BRANCH   5   9
HETATM    9  C           1     -20.830  -6.020  -6.621  0.00  0.00     0.038 C 
BRANCH   9  10
HETATM   10  C           1     -20.328  -4.601  -6.389  0.00  0.00     0.023 C 
BRANCH  10  11
HETATM   11  C           1     -20.813  -3.700  -7.516  0.00  0.00     0.138 C 
BRANCH  11  12
HETATM   12  N           1     -22.283  -3.682  -7.532  0.00  0.00    -0.227 N 
HETATM   13  C           1     -22.904  -3.700  -8.635  0.00  0.00     0.665 C 
HETATM   14  N           1     -22.260  -3.735  -9.724  0.00  0.00    -0.235 N 
HETATM   15  N           1     -24.204  -3.684  -8.649  0.00  0.00    -0.235 N 
HETATM   16  H           1     -21.210  -3.748  -9.713  0.00  0.00     0.174 HD
HETATM   17  H           1     -22.775  -3.750 -10.639  0.00  0.00     0.174 HD
HETATM   18  H           1     -24.736  -3.656  -7.750  0.00  0.00     0.174 HD
HETATM   19  H           1     -24.717  -3.700  -9.560  0.00  0.00     0.174 HD
HETATM   20  H           1     -22.817  -3.653  -6.629  0.00  0.00     0.177 HD
ENDBRANCH  11  12
ENDBRANCH  10  11
ENDBRANCH   9  10
ENDBRANCH   5   9
ENDBRANCH   3   5
BRANCH   2  21
HETATM   21  C           1     -19.712 -10.506  -5.329  0.00  0.00     0.275 C 
BRANCH  21  22
HETATM   22  N           1     -20.869 -10.866  -6.214  0.00  0.00    -0.066 N 
HETATM   23  H           1     -21.674 -11.179  -5.625  0.00  0.00     0.275 HD
HETATM   24  H           1     -21.152 -10.030  -6.774  0.00  0.00     0.275 HD
HETATM   25  H           1     -20.588 -11.639  -6.858  0.00  0.00     0.275 HD
ENDBRANCH  21  22
BRANCH  21  26
HETATM   26  C           1     -18.407 -10.830  -6.044  0.00  0.00     0.052 C 
BRANCH  26  27
HETATM   27  C           1     -17.431 -11.465  -5.061  0.00  0.00     0.105 C 
BRANCH  27  28
HETATM   28  C           1     -16.071 -10.834  -5.224  0.00  0.00     0.215 C 
HETATM   29  N           1     -15.053 -11.544  -5.801  0.00  0.00    -0.370 N 
HETATM   30  H           1     -14.139 -11.121  -5.910  0.00  0.00     0.159 HD
HETATM   31  H           1     -15.212 -12.491  -6.119  0.00  0.00     0.159 HD
HETATM   32  O           1     -15.880  -9.703  -4.844  0.00  0.00    -0.274 OA
ENDBRANCH  27  28
ENDBRANCH  26  27
ENDBRANCH  21  26
ENDBRANCH   2  21
TORSDOF 11
ENDMDL
MODEL 9
REMARK VINA RESULT:      -5.6      2.265      7.957
REMARK  11 active torsions:
REMARK  status: ('A' for Active; 'I' for Inactive)
REMARK       I    between atoms: N_2  and  C_27 
REMARK       I    between atoms: N_6  and  C_27 
REMARK    1  A    between atoms: N_6  and  C_9 
REMARK    2  A    between atoms: C_9  and  C_23 
REMARK    3  A    between atoms: C_10  and  C_26 
REMARK       I    between atoms: C_10  and  N_11 
REMARK    4  A    between atoms: N_13  and  C_24 
REMARK    5  A    between atoms: C_16  and  C_21 
REMARK       I    between atoms: C_17  and  N_18 
REMARK    6  A    between atoms: C_17  and  C_24 
REMARK    7  A    between atoms: N_18  and  C_21 
REMARK    8  A    between atoms: C_21  and  C_22 
REMARK    9  A    between atoms: C_22  and  C_23 
REMARK   10  A    between atoms: C_24  and  C_25 
REMARK   11  A    between atoms: C_25  and  C_26 
ROOT
HETATM    1  H           1     -19.919  -6.907  -5.042  0.00  0.00     0.163 HD
HETATM    2  C           1     -21.913  -6.791  -4.498  0.00  0.00     0.249 C 
HETATM    3  N           1     -20.828  -6.541  -5.296  0.00  0.00    -0.345 N 
HETATM    4  O           1     -22.998  -6.355  -4.801  0.00  0.00    -0.271 OA
ENDROOT
BRANCH   3   5
HETATM    5  C           1     -20.982  -5.753  -6.502  0.00  0.00     0.185 C 
BRANCH   5   6
HETATM    6  C           1     -19.795  -5.978  -7.405  0.00  0.00     0.196 C 
HETATM    7  O           1     -19.583  -5.205  -8.364  0.00  0.00    -0.646 OA
HETATM    8  O           1     -19.023  -6.939  -7.195  0.00  0.00    -0.646 OA
ENDBRANCH   5   6
BRANCH   5   9
HETATM    9  C           1     -21.070  -4.277  -6.136  0.00  0.00     0.038 C 
BRANCH   9  10
HETATM   10  C           1     -21.906  -3.543  -7.176  0.00  0.00     0.023 C 
BRANCH  10  11
HETATM   11  C           1     -22.993  -4.471  -7.700  0.00  0.00     0.138 C 
BRANCH  11  12
HETATM   12  N           1     -23.970  -3.693  -8.476  0.00  0.00    -0.227 N 
HETATM   13  C           1     -24.249  -4.033  -9.664  0.00  0.00     0.665 C 
HETATM   14  N           1     -23.689  -5.042 -10.182  0.00  0.00    -0.235 N 
HETATM   15  N           1     -25.113  -3.345 -10.350  0.00  0.00    -0.235 N 
HETATM   16  H           1     -22.991  -5.598  -9.627  0.00  0.00     0.174 HD
HETATM   17  H           1     -23.921  -5.324 -11.166  0.00  0.00     0.174 HD
HETATM   18  H           1     -25.576  -2.512  -9.923  0.00  0.00     0.174 HD
HETATM   19  H           1     -25.344  -3.625 -11.330  0.00  0.00     0.174 HD
HETATM   20  H           1     -24.435  -2.856  -8.047  0.00  0.00     0.177 HD
ENDBRANCH  11  12
ENDBRANCH  10  11
ENDBRANCH   9  10
ENDBRANCH   5   9
ENDBRANCH   3   5
BRANCH   2  21
HETATM   21  C           1     -21.753  -7.612  -3.242  0.00  0.00     0.275 C 
BRANCH  21  22
HETATM   22  N           1     -20.344  -8.119  -3.153  0.00  0.00    -0.066 N 
HETATM   23  H           1     -19.733  -7.568  -3.798  0.00  0.00     0.275 HD
HETATM   24  H           1     -19.998  -8.014  -2.173  0.00  0.00     0.275 HD
HETATM   25  H           1     -20.319  -9.127  -3.426  0.00  0.00     0.275 HD
ENDBRANCH  21  22
BRANCH  21  26
HETATM   26  C           1     -22.058  -6.746  -2.027  0.00  0.00     0.052 C 
BRANCH  26  27
HETATM   27  C           1     -21.585  -7.457  -0.765  0.00  0.00     0.105 C 
BRANCH  27  28
HETATM   28  C           1     -22.682  -8.358  -0.255  0.00  0.00     0.215 C 
HETATM   29  N           1     -23.583  -7.888   0.662  0.00  0.00    -0.370 N 
HETATM   30  H           1     -24.319  -8.492   1.005  0.00  0.00     0.159 HD
HETATM   31  H           1     -23.514  -6.935   0.998  0.00  0.00     0.159 HD
HETATM   32  O           1     -22.764  -9.495  -0.654  0.00  0.00    -0.274 OA
ENDBRANCH  27  28
ENDBRANCH  26  27
ENDBRANCH  21  26
ENDBRANCH   2  21
TORSDOF 11
ENDMDL
