MODEL 1
REMARK VINA RESULT:      -5.4      0.000      0.000
REMARK  7 active torsions:
REMARK  status: ('A' for Active; 'I' for Inactive)
REMARK    1  A    between atoms: N_5  and  C_8 
REMARK    2  A    between atoms: Se_6  and  C_7 
REMARK    3  A    between atoms: C_7  and  C_8 
REMARK    4  A    between atoms: C_8  and  C_9 
REMARK       I    between atoms: C_9  and  N_10 
REMARK    5  A    between atoms: N_10  and  C_14 
REMARK    6  A    between atoms: C_13  and  C_14 
REMARK    7  A    between atoms: C_14  and  C_16 
ROOT
HETATM    1  O           1     -33.647  -2.150 -11.243  0.00  0.00    -0.271 OA
HETATM    2  C           1     -34.411  -2.604 -12.061  0.00  0.00     0.249 C 
HETATM    3  N           1     -35.391  -1.813 -12.595  0.00  0.00    -0.344 N 
HETATM    4  H           1     -36.031  -2.192 -13.282  0.00  0.00     0.163 HD
ENDROOT
BRANCH   2   5
HETATM    5  C           1     -34.283  -4.044 -12.495  0.00  0.00     0.274 C 
BRANCH   5   6
HETATM    6  N           1     -33.735  -4.097 -13.891  0.00  0.00    -0.067 N 
HETATM    7  H           1     -33.842  -3.161 -14.344  0.00  0.00     0.275 HD
HETATM    8  H           1     -32.723  -4.355 -13.858  0.00  0.00     0.275 HD
HETATM    9  H           1     -34.258  -4.813 -14.444  0.00  0.00     0.275 HD
ENDBRANCH   5   6
BRANCH   5  10
HETATM   10  C           1     -33.339  -4.777 -11.552  0.00  0.00     0.045 C 
BRANCH  10  11
HETATM   11 Se           1     -34.319  -6.169 -10.603  0.00  0.00     0.000 Se
HETATM   12  H           1     -33.910  -7.245 -11.522  0.00  0.00     0.000 HD
ENDBRANCH  10  11
ENDBRANCH   5  10
ENDBRANCH   2   5
BRANCH   3  13
HETATM   13  C           1     -35.514  -0.428 -12.178  0.00  0.00     0.189 C 
BRANCH  13  14
HETATM   14  C           1     -36.636  -0.305 -11.176  0.00  0.00     0.197 C 
HETATM   15  O           1     -37.657  -1.017 -11.291  0.00  0.00    -0.646 OA
HETATM   16  O           1     -36.545   0.509 -10.232  0.00  0.00    -0.646 OA
ENDBRANCH  13  14
BRANCH  13  17
HETATM   17  C           1     -35.818   0.441 -13.391  0.00  0.00     0.010 C 
HETATM   18  C           1     -34.553   1.175 -13.817  0.00  0.00     0.012 C 
HETATM   19  C           1     -36.306  -0.437 -14.535  0.00  0.00     0.012 C 
ENDBRANCH  13  17
ENDBRANCH   3  13
TORSDOF 7
ENDMDL
MODEL 2
REMARK VINA RESULT:      -5.3     10.302     11.951
REMARK  7 active torsions:
REMARK  status: ('A' for Active; 'I' for Inactive)
REMARK    1  A    between atoms: N_5  and  C_8 
REMARK    2  A    between atoms: Se_6  and  C_7 
REMARK    3  A    between atoms: C_7  and  C_8 
REMARK    4  A    between atoms: C_8  and  C_9 
REMARK       I    between atoms: C_9  and  N_10 
REMARK    5  A    between atoms: N_10  and  C_14 
REMARK    6  A    between atoms: C_13  and  C_14 
REMARK    7  A    between atoms: C_14  and  C_16 
ROOT
HETATM    1  O           1     -24.723  -6.382 -18.357  0.00  0.00    -0.271 OA
HETATM    2  C           1     -25.733  -6.819 -18.854  0.00  0.00     0.249 C 
HETATM    3  N           1     -26.932  -6.667 -18.213  0.00  0.00    -0.344 N 
HETATM    4  H           1     -27.779  -7.032 -18.630  0.00  0.00     0.163 HD
ENDROOT
BRANCH   2   5
HETATM    5  C           1     -25.672  -7.531 -20.183  0.00  0.00     0.274 C 
BRANCH   5   6
HETATM    6  N           1     -27.064  -7.851 -20.642  0.00  0.00    -0.067 N 
HETATM    7  H           1     -27.433  -7.059 -21.215  0.00  0.00     0.275 HD
HETATM    8  H           1     -27.048  -8.721 -21.220  0.00  0.00     0.275 HD
HETATM    9  H           1     -27.681  -7.996 -19.811  0.00  0.00     0.275 HD
ENDBRANCH   5   6
BRANCH   5  10
HETATM   10  C           1     -24.993  -6.635 -21.209  0.00  0.00     0.045 C 
BRANCH  10  11
HETATM   11 Se           1     -23.976  -7.730 -22.459  0.00  0.00     0.000 Se
HETATM   12  H           1     -23.985  -6.722 -23.532  0.00  0.00     0.000 HD
ENDBRANCH  10  11
ENDBRANCH   5  10
ENDBRANCH   2   5
BRANCH   3  13
HETATM   13  C           1     -26.991  -5.982 -16.935  0.00  0.00     0.189 C 
BRANCH  13  14
HETATM   14  C           1     -26.807  -6.983 -15.821  0.00  0.00     0.197 C 
HETATM   15  O           1     -25.656  -7.344 -15.490  0.00  0.00    -0.646 OA
HETATM   16  O           1     -27.802  -7.452 -15.230  0.00  0.00    -0.646 OA
ENDBRANCH  13  14
BRANCH  13  17
HETATM   17  C           1     -28.345  -5.300 -16.787  0.00  0.00     0.010 C 
HETATM   18  C           1     -28.160  -3.790 -16.852  0.00  0.00     0.012 C 
HETATM   19  C           1     -29.265  -5.749 -17.915  0.00  0.00     0.012 C 
ENDBRANCH  13  17
ENDBRANCH   3  13
TORSDOF 7
ENDMDL
MODEL 3
REMARK VINA RESULT:      -4.9      9.427     11.065
REMARK  7 active torsions:
REMARK  status: ('A' for Active; 'I' for Inactive)
REMARK    1  A    between atoms: N_5  and  C_8 
REMARK    2  A    between atoms: Se_6  and  C_7 
REMARK    3  A    between atoms: C_7  and  C_8 
REMARK    4  A    between atoms: C_8  and  C_9 
REMARK       I    between atoms: C_9  and  N_10 
REMARK    5  A    between atoms: N_10  and  C_14 
REMARK    6  A    between atoms: C_13  and  C_14 
REMARK    7  A    between atoms: C_14  and  C_16 
ROOT
HETATM    1  O           1     -26.360  -7.302 -15.452  0.00  0.00    -0.271 OA
HETATM    2  C           1     -26.088  -6.854 -16.540  0.00  0.00     0.249 C 
HETATM    3  N           1     -27.075  -6.333 -17.332  0.00  0.00    -0.344 N 
HETATM    4  H           1     -26.846  -5.956 -18.244  0.00  0.00     0.163 HD
ENDROOT
BRANCH   2   5
HETATM    5  C           1     -24.659  -6.867 -17.024  0.00  0.00     0.274 C 
BRANCH   5   6
HETATM    6  N           1     -23.936  -8.033 -16.416  0.00  0.00    -0.067 N 
HETATM    7  H           1     -24.122  -8.060 -15.387  0.00  0.00     0.275 HD
HETATM    8  H           1     -24.274  -8.918 -16.854  0.00  0.00     0.275 HD
HETATM    9  H           1     -22.909  -7.932 -16.581  0.00  0.00     0.275 HD
ENDBRANCH   5   6
BRANCH   5  10
HETATM   10  C           1     -24.637  -6.992 -18.541  0.00  0.00     0.045 C 
BRANCH  10  11
HETATM   11 Se           1     -22.805  -7.265 -19.146  0.00  0.00     0.000 Se
HETATM   12  H           1     -23.025  -8.660 -19.560  0.00  0.00     0.000 HD
ENDBRANCH  10  11
ENDBRANCH   5  10
ENDBRANCH   2   5
BRANCH   3  13
HETATM   13  C           1     -28.449  -6.320 -16.867  0.00  0.00     0.189 C 
BRANCH  13  14
HETATM   14  C           1     -29.191  -7.490 -17.465  0.00  0.00     0.197 C 
HETATM   15  O           1     -29.497  -7.481 -18.678  0.00  0.00    -0.646 OA
HETATM   16  O           1     -29.502  -8.466 -16.750  0.00  0.00    -0.646 OA
ENDBRANCH  13  14
BRANCH  13  17
HETATM   17  C           1     -29.117  -5.021 -17.294  0.00  0.00     0.010 C 
HETATM   18  C           1     -30.494  -4.924 -16.651  0.00  0.00     0.012 C 
HETATM   19  C           1     -28.264  -3.841 -16.848  0.00  0.00     0.012 C 
ENDBRANCH  13  17
ENDBRANCH   3  13
TORSDOF 7
ENDMDL
MODEL 4
REMARK VINA RESULT:      -4.4     15.016     17.062
REMARK  7 active torsions:
REMARK  status: ('A' for Active; 'I' for Inactive)
REMARK    1  A    between atoms: N_5  and  C_8 
REMARK    2  A    between atoms: Se_6  and  C_7 
REMARK    3  A    between atoms: C_7  and  C_8 
REMARK    4  A    between atoms: C_8  and  C_9 
REMARK       I    between atoms: C_9  and  N_10 
REMARK    5  A    between atoms: N_10  and  C_14 
REMARK    6  A    between atoms: C_13  and  C_14 
REMARK    7  A    between atoms: C_14  and  C_16 
ROOT
HETATM    1  O           1     -22.717  -5.862  -5.528  0.00  0.00    -0.271 OA
HETATM    2  C           1     -21.510  -5.900  -5.548  0.00  0.00     0.249 C 
HETATM    3  N           1     -20.836  -6.728  -4.691  0.00  0.00    -0.344 N 
HETATM    4  H           1     -19.825  -6.760  -4.708  0.00  0.00     0.163 HD
ENDROOT
BRANCH   2   5
HETATM    5  C           1     -20.744  -5.035  -6.519  0.00  0.00     0.274 C 
BRANCH   5   6
HETATM    6  N           1     -20.098  -5.903  -7.559  0.00  0.00    -0.067 N 
HETATM    7  H           1     -20.534  -6.853  -7.539  0.00  0.00     0.275 HD
HETATM    8  H           1     -20.233  -5.476  -8.502  0.00  0.00     0.275 HD
HETATM    9  H           1     -19.076  -5.985  -7.357  0.00  0.00     0.275 HD
ENDBRANCH   5   6
BRANCH   5  10
HETATM   10  C           1     -21.700  -4.061  -7.195  0.00  0.00     0.045 C 
BRANCH  10  11
HETATM   11 Se           1     -21.654  -4.337  -9.123  0.00  0.00     0.000 Se
HETATM   12  H           1     -23.042  -3.892  -9.337  0.00  0.00     0.000 HD
ENDBRANCH  10  11
ENDBRANCH   5  10
ENDBRANCH   2   5
BRANCH   3  13
HETATM   13  C           1     -21.572  -7.560  -3.757  0.00  0.00     0.189 C 
BRANCH  13  14
HETATM   14  C           1     -21.577  -6.904  -2.399  0.00  0.00     0.197 C 
HETATM   15  O           1     -20.892  -7.386  -1.470  0.00  0.00    -0.646 OA
HETATM   16  O           1     -22.266  -5.881  -2.200  0.00  0.00    -0.646 OA
ENDBRANCH  13  14
BRANCH  13  17
HETATM   17  C           1     -20.905  -8.925  -3.661  0.00  0.00     0.010 C 
HETATM   18  C           1     -21.938 -10.013  -3.923  0.00  0.00     0.012 C 
HETATM   19  C           1     -19.793  -9.021  -4.697  0.00  0.00     0.012 C 
ENDBRANCH  13  17
ENDBRANCH   3  13
TORSDOF 7
ENDMDL
MODEL 5
REMARK VINA RESULT:      -4.4     13.913     15.198
REMARK  7 active torsions:
REMARK  status: ('A' for Active; 'I' for Inactive)
REMARK    1  A    between atoms: N_5  and  C_8 
REMARK    2  A    between atoms: Se_6  and  C_7 
REMARK    3  A    between atoms: C_7  and  C_8 
REMARK    4  A    between atoms: C_8  and  C_9 
REMARK       I    between atoms: C_9  and  N_10 
REMARK    5  A    between atoms: N_10  and  C_14 
REMARK    6  A    between atoms: C_13  and  C_14 
REMARK    7  A    between atoms: C_14  and  C_16 
ROOT
HETATM    1  O           1     -20.781  -6.820  -7.148  0.00  0.00    -0.271 OA
HETATM    2  C           1     -21.378  -5.898  -6.644  0.00  0.00     0.249 C 
HETATM    3  N           1     -21.860  -4.885  -7.427  0.00  0.00    -0.344 N 
HETATM    4  H           1     -22.361  -4.113  -7.006  0.00  0.00     0.163 HD
ENDROOT
BRANCH   2   5
HETATM    5  C           1     -21.593  -5.866  -5.151  0.00  0.00     0.274 C 
BRANCH   5   6
HETATM    6  N           1     -23.040  -6.123  -4.849  0.00  0.00    -0.067 N 
HETATM    7  H           1     -23.219  -5.958  -3.833  0.00  0.00     0.275 HD
HETATM    8  H           1     -23.634  -5.478  -5.417  0.00  0.00     0.275 HD
HETATM    9  H           1     -23.275  -7.113  -5.087  0.00  0.00     0.275 HD
ENDBRANCH   5   6
BRANCH   5  10
HETATM   10  C           1     -20.739  -6.939  -4.491  0.00  0.00     0.045 C 
BRANCH  10  11
HETATM   11 Se           1     -21.360  -7.236  -2.668  0.00  0.00     0.000 Se
HETATM   12  H           1     -21.002  -5.886  -2.202  0.00  0.00     0.000 HD
ENDBRANCH  10  11
ENDBRANCH   5  10
ENDBRANCH   2   5
BRANCH   3  13
HETATM   13  C           1     -21.654  -4.916  -8.863  0.00  0.00     0.189 C 
BRANCH  13  14
HETATM   14  C           1     -20.264  -4.419  -9.181  0.00  0.00     0.197 C 
HETATM   15  O           1     -19.698  -4.779 -10.236  0.00  0.00    -0.646 OA
HETATM   16  O           1     -19.679  -3.650  -8.389  0.00  0.00    -0.646 OA
ENDBRANCH  13  14
BRANCH  13  17
HETATM   17  C           1     -22.681  -4.022  -9.543  0.00  0.00     0.010 C 
HETATM   18  C           1     -23.070  -4.627 -10.885  0.00  0.00     0.012 C 
HETATM   19  C           1     -23.917  -3.907  -8.660  0.00  0.00     0.012 C 
ENDBRANCH  13  17
ENDBRANCH   3  13
TORSDOF 7
ENDMDL
MODEL 6
REMARK VINA RESULT:      -4.3     17.309     18.711
REMARK  7 active torsions:
REMARK  status: ('A' for Active; 'I' for Inactive)
REMARK    1  A    between atoms: N_5  and  C_8 
REMARK    2  A    between atoms: Se_6  and  C_7 
REMARK    3  A    between atoms: C_7  and  C_8 
REMARK    4  A    between atoms: C_8  and  C_9 
REMARK       I    between atoms: C_9  and  N_10 
REMARK    5  A    between atoms: N_10  and  C_14 
REMARK    6  A    between atoms: C_13  and  C_14 
REMARK    7  A    between atoms: C_14  and  C_16 
ROOT
HETATM    1  O           1     -19.201  -8.971  -2.799  0.00  0.00    -0.271 OA
HETATM    2  C           1     -20.217  -8.689  -3.387  0.00  0.00     0.249 C 
HETATM    3  N           1     -21.411  -8.669  -2.720  0.00  0.00    -0.344 N 
HETATM    4  H           1     -22.263  -8.431  -3.213  0.00  0.00     0.163 HD
ENDROOT
BRANCH   2   5
HETATM    5  C           1     -20.168  -8.359  -4.859  0.00  0.00     0.274 C 
BRANCH   5   6
HETATM    6  N           1     -20.136  -9.631  -5.655  0.00  0.00    -0.067 N 
HETATM    7  H           1     -19.210  -9.719  -6.133  0.00  0.00     0.275 HD
HETATM    8  H           1     -20.278 -10.445  -5.016  0.00  0.00     0.275 HD
HETATM    9  H           1     -20.896  -9.613  -6.372  0.00  0.00     0.275 HD
ENDBRANCH   5   6
BRANCH   5  10
HETATM   10  C           1     -21.402  -7.554  -5.241  0.00  0.00     0.045 C 
BRANCH  10  11
HETATM   11 Se           1     -20.945  -5.662  -5.324  0.00  0.00     0.000 Se
HETATM   12  H           1     -21.516  -5.463  -6.666  0.00  0.00     0.000 HD
ENDBRANCH  10  11
ENDBRANCH   5  10
ENDBRANCH   2   5
BRANCH   3  13
HETATM   13  C           1     -21.458  -8.985  -1.305  0.00  0.00     0.189 C 
BRANCH  13  14
HETATM   14  C           1     -21.952 -10.400  -1.125  0.00  0.00     0.197 C 
HETATM   15  O           1     -21.183 -11.278  -0.676  0.00  0.00    -0.646 OA
HETATM   16  O           1     -23.129 -10.694  -1.424  0.00  0.00    -0.646 OA
ENDBRANCH  13  14
BRANCH  13  17
HETATM   17  C           1     -22.404  -8.023  -0.601  0.00  0.00     0.010 C 
HETATM   18  C           1     -22.064  -7.974   0.883  0.00  0.00     0.012 C 
HETATM   19  C           1     -22.252  -6.631  -1.202  0.00  0.00     0.012 C 
ENDBRANCH  13  17
ENDBRANCH   3  13
TORSDOF 7
ENDMDL
MODEL 7
REMARK VINA RESULT:      -4.3      9.637     11.323
REMARK  7 active torsions:
REMARK  status: ('A' for Active; 'I' for Inactive)
REMARK    1  A    between atoms: N_5  and  C_8 
REMARK    2  A    between atoms: Se_6  and  C_7 
REMARK    3  A    between atoms: C_7  and  C_8 
REMARK    4  A    between atoms: C_8  and  C_9 
REMARK       I    between atoms: C_9  and  N_10 
REMARK    5  A    between atoms: N_10  and  C_14 
REMARK    6  A    between atoms: C_13  and  C_14 
REMARK    7  A    between atoms: C_14  and  C_16 
ROOT
HETATM    1  O           1     -25.569  -6.043 -16.854  0.00  0.00    -0.271 OA
HETATM    2  C           1     -26.008  -6.370 -17.930  0.00  0.00     0.249 C 
HETATM    3  N           1     -27.360  -6.471 -18.117  0.00  0.00    -0.344 N 
HETATM    4  H           1     -27.727  -6.744 -19.020  0.00  0.00     0.163 HD
ENDROOT
BRANCH   2   5
HETATM    5  C           1     -25.064  -6.666 -19.071  0.00  0.00     0.274 C 
BRANCH   5   6
HETATM    6  N           1     -24.056  -7.687 -18.632  0.00  0.00    -0.067 N 
HETATM    7  H           1     -23.777  -7.499 -17.643  0.00  0.00     0.275 HD
HETATM    8  H           1     -24.475  -8.642 -18.700  0.00  0.00     0.275 HD
HETATM    9  H           1     -23.214  -7.633 -19.248  0.00  0.00     0.275 HD
ENDBRANCH   5   6
BRANCH   5  10
HETATM   10  C           1     -25.852  -7.207 -20.255  0.00  0.00     0.045 C 
BRANCH  10  11
HETATM   11 Se           1     -24.618  -7.863 -21.613  0.00  0.00     0.000 Se
HETATM   12  H           1     -25.653  -8.585 -22.371  0.00  0.00     0.000 HD
ENDBRANCH  10  11
ENDBRANCH   5  10
ENDBRANCH   2   5
BRANCH   3  13
HETATM   13  C           1     -28.267  -6.186 -17.021  0.00  0.00     0.189 C 
BRANCH  13  14
HETATM   14  C           1     -28.461  -7.434 -16.195  0.00  0.00     0.197 C 
HETATM   15  O           1     -29.107  -8.398 -16.661  0.00  0.00    -0.646 OA
HETATM   16  O           1     -27.978  -7.504 -15.045  0.00  0.00    -0.646 OA
ENDBRANCH  13  14
BRANCH  13  17
HETATM   17  C           1     -29.609  -5.732 -17.579  0.00  0.00     0.010 C 
HETATM   18  C           1     -30.295  -6.905 -18.266  0.00  0.00     0.012 C 
HETATM   19  C           1     -30.486  -5.225 -16.441  0.00  0.00     0.012 C 
ENDBRANCH  13  17
ENDBRANCH   3  13
TORSDOF 7
ENDMDL
MODEL 8
REMARK VINA RESULT:      -4.3     18.363     19.313
REMARK  7 active torsions:
REMARK  status: ('A' for Active; 'I' for Inactive)
REMARK    1  A    between atoms: N_5  and  C_8 
REMARK    2  A    between atoms: Se_6  and  C_7 
REMARK    3  A    between atoms: C_7  and  C_8 
REMARK    4  A    between atoms: C_8  and  C_9 
REMARK       I    between atoms: C_9  and  N_10 
REMARK    5  A    between atoms: N_10  and  C_14 
REMARK    6  A    between atoms: C_13  and  C_14 
REMARK    7  A    between atoms: C_14  and  C_16 
ROOT
HETATM    1  O           1     -19.393  -9.320  -2.295  0.00  0.00    -0.271 OA
HETATM    2  C           1     -20.536  -9.694  -2.412  0.00  0.00     0.249 C 
HETATM    3  N           1     -21.452  -9.416  -1.434  0.00  0.00    -0.344 N 
HETATM    4  H           1     -22.409  -9.728  -1.534  0.00  0.00     0.163 HD
ENDROOT
BRANCH   2   5
HETATM    5  C           1     -20.953 -10.467  -3.640  0.00  0.00     0.274 C 
BRANCH   5   6
HETATM    6  N           1     -22.444 -10.633  -3.642  0.00  0.00    -0.067 N 
HETATM    7  H           1     -22.876  -9.890  -4.237  0.00  0.00     0.275 HD
HETATM    8  H           1     -22.690 -11.573  -4.025  0.00  0.00     0.275 HD
HETATM    9  H           1     -22.806 -10.549  -2.665  0.00  0.00     0.275 HD
ENDBRANCH   5   6
BRANCH   5  10
HETATM   10  C           1     -20.525  -9.709  -4.888  0.00  0.00     0.045 C 
BRANCH  10  11
HETATM   11 Se           1     -21.428  -7.983  -4.943  0.00  0.00     0.000 Se
HETATM   12  H           1     -20.641  -7.476  -6.079  0.00  0.00     0.000 HD
ENDBRANCH  10  11
ENDBRANCH   5  10
ENDBRANCH   2   5
BRANCH   3  13
HETATM   13  C           1     -21.051  -8.672  -0.255  0.00  0.00     0.189 C 
BRANCH  13  14
HETATM   14  C           1     -20.940  -9.615   0.918  0.00  0.00     0.197 C 
HETATM   15  O           1     -21.242 -10.821   0.781  0.00  0.00    -0.646 OA
HETATM   16  O           1     -20.549  -9.192   2.026  0.00  0.00    -0.646 OA
ENDBRANCH  13  14
BRANCH  13  17
HETATM   17  C           1     -22.091  -7.603   0.048  0.00  0.00     0.010 C 
HETATM   18  C           1     -22.291  -6.727  -1.182  0.00  0.00     0.012 C 
HETATM   19  C           1     -23.410  -8.269   0.418  0.00  0.00     0.012 C 
ENDBRANCH  13  17
ENDBRANCH   3  13
TORSDOF 7
ENDMDL
MODEL 9
REMARK VINA RESULT:      -4.2     18.344     19.182
REMARK  7 active torsions:
REMARK  status: ('A' for Active; 'I' for Inactive)
REMARK    1  A    between atoms: N_5  and  C_8 
REMARK    2  A    between atoms: Se_6  and  C_7 
REMARK    3  A    between atoms: C_7  and  C_8 
REMARK    4  A    between atoms: C_8  and  C_9 
REMARK       I    between atoms: C_9  and  N_10 
REMARK    5  A    between atoms: N_10  and  C_14 
REMARK    6  A    between atoms: C_13  and  C_14 
REMARK    7  A    between atoms: C_14  and  C_16 
ROOT
HETATM    1  O           1     -19.749 -10.230  -1.774  0.00  0.00    -0.271 OA
HETATM    2  C           1     -20.514  -9.592  -2.457  0.00  0.00     0.249 C 
HETATM    3  N           1     -21.763  -9.291  -1.988  0.00  0.00    -0.344 N 
HETATM    4  H           1     -22.404  -8.755  -2.559  0.00  0.00     0.163 HD
ENDROOT
BRANCH   2   5
HETATM    5  C           1     -20.090  -9.124  -3.828  0.00  0.00     0.274 C 
BRANCH   5   6
HETATM    6  N           1     -20.530  -7.704  -4.029  0.00  0.00    -0.067 N 
HETATM    7  H           1     -20.965  -7.346  -3.149  0.00  0.00     0.275 HD
HETATM    8  H           1     -19.703  -7.115  -4.275  0.00  0.00     0.275 HD
HETATM    9  H           1     -21.230  -7.662  -4.804  0.00  0.00     0.275 HD
ENDBRANCH   5   6
BRANCH   5  10
HETATM   10  C           1     -18.574  -9.207  -3.947  0.00  0.00     0.045 C 
BRANCH  10  11
HETATM   11 Se           1     -18.101 -10.310  -5.482  0.00  0.00     0.000 Se
HETATM   12  H           1     -17.752  -9.168  -6.343  0.00  0.00     0.000 HD
ENDBRANCH  10  11
ENDBRANCH   5  10
ENDBRANCH   2   5
BRANCH   3  13
HETATM   13  C           1     -22.171  -9.740  -0.669  0.00  0.00     0.189 C 
BRANCH  13  14
HETATM   14  C           1     -23.432 -10.560  -0.787  0.00  0.00     0.197 C 
HETATM   15  O           1     -23.664 -11.202  -1.835  0.00  0.00    -0.646 OA
HETATM   16  O           1     -24.245 -10.597   0.161  0.00  0.00    -0.646 OA
ENDBRANCH  13  14
BRANCH  13  17
HETATM   17  C           1     -22.431  -8.532   0.220  0.00  0.00     0.010 C 
HETATM   18  C           1     -21.305  -8.401   1.237  0.00  0.00     0.012 C 
HETATM   19  C           1     -22.491  -7.274  -0.637  0.00  0.00     0.012 C 
ENDBRANCH  13  17
ENDBRANCH   3  13
TORSDOF 7
ENDMDL
