MODEL 1
REMARK VINA RESULT:      -4.9      0.000      0.000
REMARK  6 active torsions:
REMARK  status: ('A' for Active; 'I' for Inactive)
REMARK    1  A    between atoms: N_1  and  C_14 
REMARK    2  A    between atoms: C_5  and  C_12 
REMARK    3  A    between atoms: Se_10  and  C_11 
REMARK    4  A    between atoms: C_11  and  C_12 
REMARK    5  A    between atoms: C_12  and  N_16 
REMARK       I    between atoms: C_13  and  N_16 
REMARK    6  A    between atoms: C_13  and  C_14 
ROOT
HETATM    1  O           1     -23.966  -6.477 -18.541  0.00  0.00    -0.272 OA
HETATM    2  H           1     -27.042  -7.071 -18.683  0.00  0.00     0.163 HD
HETATM    3  C           1     -25.006  -6.887 -18.998  0.00  0.00     0.243 C 
HETATM    4  N           1     -26.171  -6.728 -18.299  0.00  0.00    -0.345 N 
ENDROOT
BRANCH   4   5
HETATM    5  C           1     -26.158  -6.068 -17.008  0.00  0.00     0.185 C 
BRANCH   5   6
HETATM    6  C           1     -26.111  -7.106 -15.914  0.00  0.00     0.196 C 
HETATM    7  O           1     -25.012  -7.569 -15.539  0.00  0.00    -0.646 OA
HETATM    8  O           1     -27.170  -7.501 -15.381  0.00  0.00    -0.646 OA
ENDBRANCH   5   6
BRANCH   5   9
HETATM    9  C           1     -27.419  -5.226 -16.856  0.00  0.00     0.039 C 
BRANCH   9  10
HETATM   10 Se           1     -28.661  -5.647 -18.297  0.00  0.00     0.000 Se
HETATM   11  H           1     -27.660  -6.358 -19.108  0.00  0.00     0.000 HD
ENDBRANCH   9  10
ENDBRANCH   5   9
ENDBRANCH   4   5
BRANCH   3  12
HETATM   12  C           1     -25.019  -7.574 -20.341  0.00  0.00     0.332 C 
BRANCH  12  13
HETATM   13  N           1     -26.432  -7.896 -20.727  0.00  0.00    -0.071 N 
HETATM   14  H           1     -27.015  -7.997 -19.865  0.00  0.00     0.274 HD
HETATM   15  H           1     -26.816  -7.124 -21.318  0.00  0.00     0.274 HD
HETATM   16  H           1     -26.450  -8.791 -21.268  0.00  0.00     0.274 HD
ENDBRANCH  12  13
ENDBRANCH   3  12
TORSDOF 6
ENDMDL
MODEL 2
REMARK VINA RESULT:      -4.6     12.108     12.735
REMARK  6 active torsions:
REMARK  status: ('A' for Active; 'I' for Inactive)
REMARK    1  A    between atoms: N_1  and  C_14 
REMARK    2  A    between atoms: C_5  and  C_12 
REMARK    3  A    between atoms: Se_10  and  C_11 
REMARK    4  A    between atoms: C_11  and  C_12 
REMARK    5  A    between atoms: C_12  and  N_16 
REMARK       I    between atoms: C_13  and  N_16 
REMARK    6  A    between atoms: C_13  and  C_14 
ROOT
HETATM    1  O           1     -35.979  -1.043 -13.934  0.00  0.00    -0.272 OA
HETATM    2  H           1     -34.117   0.202 -11.738  0.00  0.00     0.163 HD
HETATM    3  C           1     -35.203  -0.262 -13.437  0.00  0.00     0.243 C 
HETATM    4  N           1     -34.768  -0.452 -12.154  0.00  0.00    -0.345 N 
ENDROOT
BRANCH   4   5
HETATM    5  C           1     -35.238  -1.591 -11.389  0.00  0.00     0.185 C 
BRANCH   5   6
HETATM    6  C           1     -36.363  -1.155 -10.482  0.00  0.00     0.196 C 
HETATM    7  O           1     -37.550  -1.356 -10.818  0.00  0.00    -0.646 OA
HETATM    8  O           1     -36.108  -0.595  -9.395  0.00  0.00    -0.646 OA
ENDBRANCH   5   6
BRANCH   5   9
HETATM    9  C           1     -34.095  -2.146 -10.550  0.00  0.00     0.039 C 
BRANCH   9  10
HETATM   10 Se           1     -33.173  -3.543 -11.549  0.00  0.00     0.000 Se
HETATM   11  H           1     -33.948  -3.334 -12.782  0.00  0.00     0.000 HD
ENDBRANCH   9  10
ENDBRANCH   5   9
ENDBRANCH   4   5
BRANCH   3  12
HETATM   12  C           1     -34.713   0.922 -14.233  0.00  0.00     0.332 C 
BRANCH  12  13
HETATM   13  N           1     -35.810   1.413 -15.130  0.00  0.00    -0.071 N 
HETATM   14  H           1     -35.728   0.955 -16.065  0.00  0.00     0.274 HD
HETATM   15  H           1     -36.737   1.176 -14.708  0.00  0.00     0.274 HD
HETATM   16  H           1     -35.733   2.450 -15.240  0.00  0.00     0.274 HD
ENDBRANCH  12  13
ENDBRANCH   3  12
TORSDOF 6
ENDMDL
MODEL 3
REMARK VINA RESULT:      -4.6      2.798      4.105
REMARK  6 active torsions:
REMARK  status: ('A' for Active; 'I' for Inactive)
REMARK    1  A    between atoms: N_1  and  C_14 
REMARK    2  A    between atoms: C_5  and  C_12 
REMARK    3  A    between atoms: Se_10  and  C_11 
REMARK    4  A    between atoms: C_11  and  C_12 
REMARK    5  A    between atoms: C_12  and  N_16 
REMARK       I    between atoms: C_13  and  N_16 
REMARK    6  A    between atoms: C_13  and  C_14 
ROOT
HETATM    1  O           1     -29.301  -5.071 -18.413  0.00  0.00    -0.272 OA
HETATM    2  H           1     -27.234  -4.457 -16.134  0.00  0.00     0.163 HD
HETATM    3  C           1     -28.730  -4.429 -17.564  0.00  0.00     0.243 C 
HETATM    4  N           1     -27.713  -4.995 -16.845  0.00  0.00    -0.345 N 
ENDROOT
BRANCH   4   5
HETATM    5  C           1     -27.322  -6.368 -17.100  0.00  0.00     0.185 C 
BRANCH   5   6
HETATM    6  C           1     -27.051  -7.065 -15.789  0.00  0.00     0.196 C 
HETATM    7  O           1     -28.003  -7.402 -15.053  0.00  0.00    -0.646 OA
HETATM    8  O           1     -25.876  -7.307 -15.441  0.00  0.00    -0.646 OA
ENDBRANCH   5   6
BRANCH   5   9
HETATM    9  C           1     -26.060  -6.386 -17.955  0.00  0.00     0.039 C 
BRANCH   9  10
HETATM   10 Se           1     -26.544  -6.648 -19.824  0.00  0.00     0.000 Se
HETATM   11  H           1     -27.993  -6.579 -19.579  0.00  0.00     0.000 HD
ENDBRANCH   9  10
ENDBRANCH   5   9
ENDBRANCH   4   5
BRANCH   3  12
HETATM   12  C           1     -29.137  -3.000 -17.298  0.00  0.00     0.332 C 
BRANCH  12  13
HETATM   13  N           1     -30.597  -2.831 -17.598  0.00  0.00    -0.071 N 
HETATM   14  H           1     -30.936  -3.645 -18.159  0.00  0.00     0.274 HD
HETATM   15  H           1     -31.133  -2.779 -16.702  0.00  0.00     0.274 HD
HETATM   16  H           1     -30.741  -1.949 -18.142  0.00  0.00     0.274 HD
ENDBRANCH  12  13
ENDBRANCH   3  12
TORSDOF 6
ENDMDL
MODEL 4
REMARK VINA RESULT:      -4.5     10.807     12.353
REMARK  6 active torsions:
REMARK  status: ('A' for Active; 'I' for Inactive)
REMARK    1  A    between atoms: N_1  and  C_14 
REMARK    2  A    between atoms: C_5  and  C_12 
REMARK    3  A    between atoms: Se_10  and  C_11 
REMARK    4  A    between atoms: C_11  and  C_12 
REMARK    5  A    between atoms: C_12  and  N_16 
REMARK       I    between atoms: C_13  and  N_16 
REMARK    6  A    between atoms: C_13  and  C_14 
ROOT
HETATM    1  O           1     -33.270  -1.735 -10.510  0.00  0.00    -0.272 OA
HETATM    2  H           1     -35.521  -3.016 -12.277  0.00  0.00     0.163 HD
HETATM    3  C           1     -33.904  -2.606 -11.055  0.00  0.00     0.243 C 
HETATM    4  N           1     -34.991  -2.286 -11.821  0.00  0.00    -0.345 N 
ENDROOT
BRANCH   4   5
HETATM    5  C           1     -35.382  -0.898 -11.979  0.00  0.00     0.185 C 
BRANCH   5   6
HETATM    6  C           1     -36.529  -0.591 -11.047  0.00  0.00     0.196 C 
HETATM    7  O           1     -37.614  -1.200 -11.170  0.00  0.00    -0.646 OA
HETATM    8  O           1     -36.394   0.270 -10.153  0.00  0.00    -0.646 OA
ENDBRANCH   5   6
BRANCH   5   9
HETATM    9  C           1     -35.818  -0.655 -13.419  0.00  0.00     0.039 C 
BRANCH   9  10
HETATM   10 Se           1     -34.900   0.914 -14.120  0.00  0.00     0.000 Se
HETATM   11  H           1     -36.075   1.793 -14.014  0.00  0.00     0.000 HD
ENDBRANCH   9  10
ENDBRANCH   5   9
ENDBRANCH   4   5
BRANCH   3  12
HETATM   12  C           1     -33.496  -4.050 -10.890  0.00  0.00     0.332 C 
BRANCH  12  13
HETATM   13  N           1     -32.714  -4.491 -12.091  0.00  0.00    -0.071 N 
HETATM   14  H           1     -32.809  -5.525 -12.209  0.00  0.00     0.274 HD
HETATM   15  H           1     -33.082  -4.008 -12.942  0.00  0.00     0.274 HD
HETATM   16  H           1     -31.706  -4.246 -11.960  0.00  0.00     0.274 HD
ENDBRANCH  12  13
ENDBRANCH   3  12
TORSDOF 6
ENDMDL
MODEL 5
REMARK VINA RESULT:      -4.5      9.088     10.381
REMARK  6 active torsions:
REMARK  status: ('A' for Active; 'I' for Inactive)
REMARK    1  A    between atoms: N_1  and  C_14 
REMARK    2  A    between atoms: C_5  and  C_12 
REMARK    3  A    between atoms: Se_10  and  C_11 
REMARK    4  A    between atoms: C_11  and  C_12 
REMARK    5  A    between atoms: C_12  and  N_16 
REMARK       I    between atoms: C_13  and  N_16 
REMARK    6  A    between atoms: C_13  and  C_14 
ROOT
HETATM    1  O           1     -21.688  -3.310  -7.605  0.00  0.00    -0.272 OA
HETATM    2  H           1     -22.650  -5.871  -9.139  0.00  0.00     0.163 HD
HETATM    3  C           1     -21.889  -4.483  -7.806  0.00  0.00     0.243 C 
HETATM    4  N           1     -22.483  -4.887  -8.970  0.00  0.00    -0.345 N 
ENDROOT
BRANCH   4   5
HETATM    5  C           1     -22.872  -3.905  -9.964  0.00  0.00     0.185 C 
BRANCH   5   6
HETATM    6  C           1     -24.366  -3.964 -10.168  0.00  0.00     0.196 C 
HETATM    7  O           1     -24.938  -3.088 -10.853  0.00  0.00    -0.646 OA
HETATM    8  O           1     -25.032  -4.889  -9.655  0.00  0.00    -0.646 OA
ENDBRANCH   5   6
BRANCH   5   9
HETATM    9  C           1     -22.167  -4.207 -11.280  0.00  0.00     0.039 C 
BRANCH   9  10
HETATM   10 Se           1     -20.238  -4.083 -11.028  0.00  0.00     0.000 Se
HETATM   11  H           1     -20.309  -4.148  -9.560  0.00  0.00     0.000 HD
ENDBRANCH   9  10
ENDBRANCH   5   9
ENDBRANCH   4   5
BRANCH   3  12
HETATM   12  C           1     -21.484  -5.505  -6.772  0.00  0.00     0.332 C 
BRANCH  12  13
HETATM   13  N           1     -20.287  -6.266  -7.260  0.00  0.00    -0.071 N 
HETATM   14  H           1     -20.600  -7.146  -7.728  0.00  0.00     0.274 HD
HETATM   15  H           1     -19.756  -5.679  -7.943  0.00  0.00     0.274 HD
HETATM   16  H           1     -19.670  -6.502  -6.450  0.00  0.00     0.274 HD
ENDBRANCH  12  13
ENDBRANCH   3  12
TORSDOF 6
ENDMDL
MODEL 6
REMARK VINA RESULT:      -4.1      9.546     10.430
REMARK  6 active torsions:
REMARK  status: ('A' for Active; 'I' for Inactive)
REMARK    1  A    between atoms: N_1  and  C_14 
REMARK    2  A    between atoms: C_5  and  C_12 
REMARK    3  A    between atoms: Se_10  and  C_11 
REMARK    4  A    between atoms: C_11  and  C_12 
REMARK    5  A    between atoms: C_12  and  N_16 
REMARK       I    between atoms: C_13  and  N_16 
REMARK    6  A    between atoms: C_13  and  C_14 
ROOT
HETATM    1  O           1     -29.288 -13.300 -19.207  0.00  0.00    -0.272 OA
HETATM    2  H           1     -30.981 -15.883 -19.752  0.00  0.00     0.163 HD
HETATM    3  C           1     -29.890 -14.316 -18.956  0.00  0.00     0.243 C 
HETATM    4  N           1     -30.478 -15.031 -19.963  0.00  0.00    -0.345 N 
ENDROOT
BRANCH   4   5
HETATM    5  C           1     -30.379 -14.569 -21.334  0.00  0.00     0.185 C 
BRANCH   5   6
HETATM    6  C           1     -31.702 -14.778 -22.030  0.00  0.00     0.196 C 
HETATM    7  O           1     -32.322 -13.799 -22.499  0.00  0.00    -0.646 OA
HETATM    8  O           1     -32.176 -15.929 -22.139  0.00  0.00    -0.646 OA
ENDBRANCH   5   6
BRANCH   5   9
HETATM    9  C           1     -29.294 -15.355 -22.058  0.00  0.00     0.039 C 
BRANCH   9  10
HETATM   10 Se           1     -29.254 -17.183 -21.384  0.00  0.00     0.000 Se
HETATM   11  H           1     -28.203 -17.626 -22.314  0.00  0.00     0.000 HD
ENDBRANCH   9  10
ENDBRANCH   5   9
ENDBRANCH   4   5
BRANCH   3  12
HETATM   12  C           1     -29.992 -14.798 -17.529  0.00  0.00     0.332 C 
BRANCH  12  13
HETATM   13  N           1     -28.642 -15.245 -17.052  0.00  0.00    -0.071 N 
HETATM   14  H           1     -28.164 -15.782 -17.811  0.00  0.00     0.274 HD
HETATM   15  H           1     -28.067 -14.409 -16.802  0.00  0.00     0.274 HD
HETATM   16  H           1     -28.755 -15.855 -16.210  0.00  0.00     0.274 HD
ENDBRANCH  12  13
ENDBRANCH   3  12
TORSDOF 6
ENDMDL
MODEL 7
REMARK VINA RESULT:      -4.1      9.292     10.664
REMARK  6 active torsions:
REMARK  status: ('A' for Active; 'I' for Inactive)
REMARK    1  A    between atoms: N_1  and  C_14 
REMARK    2  A    between atoms: C_5  and  C_12 
REMARK    3  A    between atoms: Se_10  and  C_11 
REMARK    4  A    between atoms: C_11  and  C_12 
REMARK    5  A    between atoms: C_12  and  N_16 
REMARK       I    between atoms: C_13  and  N_16 
REMARK    6  A    between atoms: C_13  and  C_14 
ROOT
HETATM    1  O           1     -20.621  -5.732  -8.273  0.00  0.00    -0.272 OA
HETATM    2  H           1     -22.577  -3.306  -8.628  0.00  0.00     0.163 HD
HETATM    3  C           1     -21.264  -4.759  -7.961  0.00  0.00     0.243 C 
HETATM    4  N           1     -22.038  -4.121  -8.891  0.00  0.00    -0.345 N 
ENDROOT
BRANCH   4   5
HETATM    5  C           1     -22.088  -4.614 -10.254  0.00  0.00     0.185 C 
BRANCH   5   6
HETATM    6  C           1     -21.254  -3.722 -11.140  0.00  0.00     0.196 C 
HETATM    7  O           1     -20.048  -3.987 -11.338  0.00  0.00    -0.646 OA
HETATM    8  O           1     -21.768  -2.718 -11.679  0.00  0.00    -0.646 OA
ENDBRANCH   5   6
BRANCH   5   9
HETATM    9  C           1     -23.530  -4.612 -10.743  0.00  0.00     0.039 C 
BRANCH   9  10
HETATM   10 Se           1     -24.598  -3.433  -9.616  0.00  0.00     0.000 Se
HETATM   11  H           1     -24.295  -2.223 -10.396  0.00  0.00     0.000 HD
ENDBRANCH   9  10
ENDBRANCH   5   9
ENDBRANCH   4   5
BRANCH   3  12
HETATM   12  C           1     -21.213  -4.246  -6.542  0.00  0.00     0.332 C 
BRANCH  12  13
HETATM   13  N           1     -19.962  -4.736  -5.876  0.00  0.00    -0.071 N 
HETATM   14  H           1     -19.302  -5.102  -6.599  0.00  0.00     0.274 HD
HETATM   15  H           1     -19.510  -3.947  -5.360  0.00  0.00     0.274 HD
HETATM   16  H           1     -20.202  -5.500  -5.203  0.00  0.00     0.274 HD
ENDBRANCH  12  13
ENDBRANCH   3  12
TORSDOF 6
ENDMDL
MODEL 8
REMARK VINA RESULT:      -3.9     11.677     12.731
REMARK  6 active torsions:
REMARK  status: ('A' for Active; 'I' for Inactive)
REMARK    1  A    between atoms: N_1  and  C_14 
REMARK    2  A    between atoms: C_5  and  C_12 
REMARK    3  A    between atoms: Se_10  and  C_11 
REMARK    4  A    between atoms: C_11  and  C_12 
REMARK    5  A    between atoms: C_12  and  N_16 
REMARK       I    between atoms: C_13  and  N_16 
REMARK    6  A    between atoms: C_13  and  C_14 
ROOT
HETATM    1  O           1     -20.961  -3.505  -6.960  0.00  0.00    -0.272 OA
HETATM    2  H           1     -22.881  -5.975  -7.183  0.00  0.00     0.163 HD
HETATM    3  C           1     -21.854  -4.192  -7.396  0.00  0.00     0.243 C 
HETATM    4  N           1     -22.133  -5.400  -6.818  0.00  0.00    -0.345 N 
ENDROOT
BRANCH   4   5
HETATM    5  C           1     -21.356  -5.858  -5.682  0.00  0.00     0.185 C 
BRANCH   5   6
HETATM    6  C           1     -20.340  -6.872  -6.144  0.00  0.00     0.196 C 
HETATM    7  O           1     -20.368  -8.037  -5.691  0.00  0.00    -0.646 OA
HETATM    8  O           1     -19.470  -6.549  -6.981  0.00  0.00    -0.646 OA
ENDBRANCH   5   6
BRANCH   5   9
HETATM    9  C           1     -22.285  -6.498  -4.657  0.00  0.00     0.039 C 
BRANCH   9  10
HETATM   10 Se           1     -21.551  -6.249  -2.869  0.00  0.00     0.000 Se
HETATM   11  H           1     -22.263  -7.401  -2.292  0.00  0.00     0.000 HD
ENDBRANCH   9  10
ENDBRANCH   5   9
ENDBRANCH   4   5
BRANCH   3  12
HETATM   12  C           1     -22.661  -3.717  -8.578  0.00  0.00     0.332 C 
BRANCH  12  13
HETATM   13  N           1     -24.119  -3.959  -8.321  0.00  0.00    -0.071 N 
HETATM   14  H           1     -24.609  -3.044  -8.197  0.00  0.00     0.274 HD
HETATM   15  H           1     -24.536  -4.469  -9.132  0.00  0.00     0.274 HD
HETATM   16  H           1     -24.229  -4.534  -7.454  0.00  0.00     0.274 HD
ENDBRANCH  12  13
ENDBRANCH   3  12
TORSDOF 6
ENDMDL
MODEL 9
REMARK VINA RESULT:      -3.7     10.504     11.391
REMARK  6 active torsions:
REMARK  status: ('A' for Active; 'I' for Inactive)
REMARK    1  A    between atoms: N_1  and  C_14 
REMARK    2  A    between atoms: C_5  and  C_12 
REMARK    3  A    between atoms: Se_10  and  C_11 
REMARK    4  A    between atoms: C_11  and  C_12 
REMARK    5  A    between atoms: C_12  and  N_16 
REMARK       I    between atoms: C_13  and  N_16 
REMARK    6  A    between atoms: C_13  and  C_14 
ROOT
HETATM    1  O           1     -33.022  -4.484 -11.688  0.00  0.00    -0.272 OA
HETATM    2  H           1     -36.066  -3.818 -12.049  0.00  0.00     0.163 HD
HETATM    3  C           1     -34.210  -4.687 -11.766  0.00  0.00     0.243 C 
HETATM    4  N           1     -35.071  -3.646 -11.982  0.00  0.00    -0.345 N 
ENDROOT
BRANCH   4   5
HETATM    5  C           1     -34.557  -2.297 -12.117  0.00  0.00     0.185 C 
BRANCH   5   6
HETATM    6  C           1     -34.406  -1.679 -10.748  0.00  0.00     0.196 C 
HETATM    7  O           1     -33.270  -1.552 -10.242  0.00  0.00    -0.646 OA
HETATM    8  O           1     -35.415  -1.293 -10.121  0.00  0.00    -0.646 OA
ENDBRANCH   5   6
BRANCH   5   9
HETATM    9  C           1     -35.527  -1.465 -12.945  0.00  0.00     0.039 C 
BRANCH   9  10
HETATM   10 Se           1     -34.823   0.341 -13.153  0.00  0.00     0.000 Se
HETATM   11  H           1     -34.054   0.025 -14.368  0.00  0.00     0.000 HD
ENDBRANCH   9  10
ENDBRANCH   5   9
ENDBRANCH   4   5
BRANCH   3  12
HETATM   12  C           1     -34.744  -6.092 -11.626  0.00  0.00     0.332 C 
BRANCH  12  13
HETATM   13  N           1     -33.835  -6.889 -10.739  0.00  0.00    -0.071 N 
HETATM   14  H           1     -32.844  -6.757 -11.046  0.00  0.00     0.274 HD
HETATM   15  H           1     -33.939  -6.564  -9.751  0.00  0.00     0.274 HD
HETATM   16  H           1     -34.088  -7.902 -10.801  0.00  0.00     0.274 HD
ENDBRANCH  12  13
ENDBRANCH   3  12
TORSDOF 6
ENDMDL
