MODEL 1
REMARK VINA RESULT:      -6.3      0.000      0.000
REMARK  9 active torsions:
REMARK  status: ('A' for Active; 'I' for Inactive)
REMARK       I    between atoms: N_4  and  C_21 
REMARK    1  A    between atoms: C_5  and  C_21 
REMARK    2  A    between atoms: C_5  and  C_11 
REMARK    3  A    between atoms: N_6  and  C_12 
REMARK    4  A    between atoms: C_10  and  C_12 
REMARK    5  A    between atoms: C_10  and  C_13 
REMARK    6  A    between atoms: C_11  and  C_18 
REMARK    7  A    between atoms: C_11  and  N_23 
REMARK    8  A    between atoms: C_12  and  C_20 
REMARK    9  A    between atoms: C_13  and  S_19 
REMARK       I    between atoms: C_20  and  N_23 
ROOT
HETATM    1  O           1     -34.314  -1.821 -11.538  0.00  0.00    -0.271 OA
HETATM    2  H           1     -35.312  -2.118 -14.497  0.00  0.00     0.163 HD
HETATM    3  C           1     -34.527  -2.361 -12.597  0.00  0.00     0.249 C 
HETATM    4  N           1     -35.133  -1.666 -13.609  0.00  0.00    -0.344 N 
ENDROOT
BRANCH   4   5
HETATM    5  C           1     -35.517  -0.282 -13.411  0.00  0.00     0.194 C 
BRANCH   5   6
HETATM    6  C           1     -35.377   0.477 -14.724  0.00  0.00     0.138 C 
BRANCH   6   7
HETATM    7  C           1     -35.664  -0.454 -15.877  0.00  0.00     0.217 C 
HETATM    8  O           1     -34.792  -1.172 -16.304  0.00  0.00    -0.274 OA
HETATM    9  N           1     -36.912  -0.484 -16.438  0.00  0.00    -0.370 N 
HETATM   10  H           1     -37.642   0.118 -16.079  0.00  0.00     0.159 HD
HETATM   11  H           1     -37.105  -1.108 -17.211  0.00  0.00     0.159 HD
ENDBRANCH   6   7
ENDBRANCH   5   6
BRANCH   5  12
HETATM   12  C           1     -36.950  -0.221 -12.944  0.00  0.00     0.197 C 
HETATM   13  O           1     -37.231   0.327 -11.857  0.00  0.00    -0.646 OA
HETATM   14  O           1     -37.857  -0.719 -13.646  0.00  0.00    -0.646 OA
ENDBRANCH   5  12
ENDBRANCH   4   5
BRANCH   3  15
HETATM   15  C           1     -34.128  -3.801 -12.804  0.00  0.00     0.275 C 
BRANCH  15  16
HETATM   16  N           1     -33.850  -4.039 -14.258  0.00  0.00    -0.066 N 
HETATM   17  H           1     -32.820  -3.991 -14.429  0.00  0.00     0.275 HD
HETATM   18  H           1     -34.204  -4.983 -14.531  0.00  0.00     0.275 HD
HETATM   19  H           1     -34.333  -3.308 -14.829  0.00  0.00     0.275 HD
ENDBRANCH  15  16
BRANCH  15  20
HETATM   20  C           1     -32.874  -4.103 -11.993  0.00  0.00     0.053 C 
BRANCH  20  21
HETATM   21  C           1     -33.036  -5.443 -11.287  0.00  0.00     0.076 C 
BRANCH  21  22
HETATM   22  S           1     -34.740  -5.612 -10.690  0.00  0.00    -0.173 SA
HETATM   23  C           1     -34.619  -7.365 -10.235  0.00  0.00     0.089 C 
ENDBRANCH  21  22
ENDBRANCH  20  21
ENDBRANCH  15  20
ENDBRANCH   3  15
TORSDOF 9
ENDMDL
MODEL 2
REMARK VINA RESULT:      -5.8      1.991      3.255
REMARK  9 active torsions:
REMARK  status: ('A' for Active; 'I' for Inactive)
REMARK       I    between atoms: N_4  and  C_21 
REMARK    1  A    between atoms: C_5  and  C_21 
REMARK    2  A    between atoms: C_5  and  C_11 
REMARK    3  A    between atoms: N_6  and  C_12 
REMARK    4  A    between atoms: C_10  and  C_12 
REMARK    5  A    between atoms: C_10  and  C_13 
REMARK    6  A    between atoms: C_11  and  C_18 
REMARK    7  A    between atoms: C_11  and  N_23 
REMARK    8  A    between atoms: C_12  and  C_20 
REMARK    9  A    between atoms: C_13  and  S_19 
REMARK       I    between atoms: C_20  and  N_23 
ROOT
HETATM    1  O           1     -34.599  -3.106 -13.399  0.00  0.00    -0.271 OA
HETATM    2  H           1     -34.862  -0.621 -11.504  0.00  0.00     0.163 HD
HETATM    3  C           1     -34.405  -2.416 -12.427  0.00  0.00     0.249 C 
HETATM    4  N           1     -35.025  -1.199 -12.318  0.00  0.00    -0.344 N 
ENDROOT
BRANCH   4   5
HETATM    5  C           1     -35.914  -0.741 -13.367  0.00  0.00     0.194 C 
BRANCH   5   6
HETATM    6  C           1     -37.097  -0.010 -12.746  0.00  0.00     0.138 C 
BRANCH   6   7
HETATM    7  C           1     -37.150  -0.303 -11.267  0.00  0.00     0.217 C 
HETATM    8  O           1     -37.586  -1.359 -10.876  0.00  0.00    -0.274 OA
HETATM    9  N           1     -36.705   0.628 -10.369  0.00  0.00    -0.370 N 
HETATM   10  H           1     -36.340   1.514 -10.696  0.00  0.00     0.159 HD
HETATM   11  H           1     -36.741   0.432  -9.376  0.00  0.00     0.159 HD
ENDBRANCH   6   7
ENDBRANCH   5   6
BRANCH   5  12
HETATM   12  C           1     -35.166   0.196 -14.284  0.00  0.00     0.197 C 
HETATM   13  O           1     -34.854  -0.173 -15.436  0.00  0.00    -0.646 OA
HETATM   14  O           1     -34.860   1.342 -13.890  0.00  0.00    -0.646 OA
ENDBRANCH   5  12
ENDBRANCH   4   5
BRANCH   3  15
HETATM   15  C           1     -33.479  -2.892 -11.335  0.00  0.00     0.275 C 
BRANCH  15  16
HETATM   16  N           1     -33.192  -1.760 -10.394  0.00  0.00    -0.066 N 
HETATM   17  H           1     -33.809  -0.949 -10.626  0.00  0.00     0.275 HD
HETATM   18  H           1     -33.375  -2.068  -9.413  0.00  0.00     0.275 HD
HETATM   19  H           1     -32.191  -1.474 -10.489  0.00  0.00     0.275 HD
ENDBRANCH  15  16
BRANCH  15  20
HETATM   20  C           1     -34.141  -4.031 -10.570  0.00  0.00     0.053 C 
BRANCH  20  21
HETATM   21  C           1     -33.562  -5.360 -11.036  0.00  0.00     0.076 C 
BRANCH  21  22
HETATM   22  S           1     -34.914  -6.496 -11.453  0.00  0.00    -0.173 SA
HETATM   23  C           1     -34.782  -7.520  -9.960  0.00  0.00     0.089 C 
ENDBRANCH  21  22
ENDBRANCH  20  21
ENDBRANCH  15  20
ENDBRANCH   3  15
TORSDOF 9
ENDMDL
MODEL 3
REMARK VINA RESULT:      -5.8     12.353     14.269
REMARK  9 active torsions:
REMARK  status: ('A' for Active; 'I' for Inactive)
REMARK       I    between atoms: N_4  and  C_21 
REMARK    1  A    between atoms: C_5  and  C_21 
REMARK    2  A    between atoms: C_5  and  C_11 
REMARK    3  A    between atoms: N_6  and  C_12 
REMARK    4  A    between atoms: C_10  and  C_12 
REMARK    5  A    between atoms: C_10  and  C_13 
REMARK    6  A    between atoms: C_11  and  C_18 
REMARK    7  A    between atoms: C_11  and  N_23 
REMARK    8  A    between atoms: C_12  and  C_20 
REMARK    9  A    between atoms: C_13  and  S_19 
REMARK       I    between atoms: C_20  and  N_23 
ROOT
HETATM    1  O           1     -21.494  -3.191  -7.618  0.00  0.00    -0.271 OA
HETATM    2  H           1     -23.545  -5.351  -8.603  0.00  0.00     0.163 HD
HETATM    3  C           1     -22.183  -4.182  -7.572  0.00  0.00     0.249 C 
HETATM    4  N           1     -22.968  -4.520  -8.642  0.00  0.00    -0.344 N 
ENDROOT
BRANCH   4   5
HETATM    5  C           1     -22.973  -3.690  -9.830  0.00  0.00     0.194 C 
BRANCH   5   6
HETATM    6  C           1     -22.265  -4.421 -10.963  0.00  0.00     0.138 C 
BRANCH   6   7
HETATM    7  C           1     -20.793  -4.090 -10.936  0.00  0.00     0.217 C 
HETATM    8  O           1     -20.025  -4.804 -10.336  0.00  0.00    -0.274 OA
HETATM    9  N           1     -20.329  -2.981 -11.589  0.00  0.00    -0.370 N 
HETATM   10  H           1     -20.972  -2.383 -12.091  0.00  0.00     0.159 HD
HETATM   11  H           1     -19.341  -2.759 -11.571  0.00  0.00     0.159 HD
ENDBRANCH   6   7
ENDBRANCH   5   6
BRANCH   5  12
HETATM   12  C           1     -24.397  -3.396 -10.232  0.00  0.00     0.197 C 
HETATM   13  O           1     -25.164  -2.812  -9.436  0.00  0.00    -0.646 OA
HETATM   14  O           1     -24.811  -3.737 -11.361  0.00  0.00    -0.646 OA
ENDBRANCH   5  12
ENDBRANCH   4   5
BRANCH   3  15
HETATM   15  C           1     -22.179  -5.047  -6.336  0.00  0.00     0.275 C 
BRANCH  15  16
HETATM   16  N           1     -23.585  -5.446  -6.000  0.00  0.00    -0.066 N 
HETATM   17  H           1     -23.783  -6.393  -6.396  0.00  0.00     0.275 HD
HETATM   18  H           1     -23.702  -5.471  -4.962  0.00  0.00     0.275 HD
HETATM   19  H           1     -24.251  -4.752  -6.408  0.00  0.00     0.275 HD
ENDBRANCH  15  16
BRANCH  15  20
HETATM   20  C           1     -21.345  -6.296  -6.592  0.00  0.00     0.053 C 
BRANCH  20  21
HETATM   21  C           1     -20.455  -6.569  -5.387  0.00  0.00     0.076 C 
BRANCH  21  22
HETATM   22  S           1     -21.312  -7.682  -4.239  0.00  0.00    -0.173 SA
HETATM   23  C           1     -21.541  -6.464  -2.913  0.00  0.00     0.089 C 
ENDBRANCH  21  22
ENDBRANCH  20  21
ENDBRANCH  15  20
ENDBRANCH   3  15
TORSDOF 9
ENDMDL
MODEL 4
REMARK VINA RESULT:      -5.7     12.761     14.657
REMARK  9 active torsions:
REMARK  status: ('A' for Active; 'I' for Inactive)
REMARK       I    between atoms: N_4  and  C_21 
REMARK    1  A    between atoms: C_5  and  C_21 
REMARK    2  A    between atoms: C_5  and  C_11 
REMARK    3  A    between atoms: N_6  and  C_12 
REMARK    4  A    between atoms: C_10  and  C_12 
REMARK    5  A    between atoms: C_10  and  C_13 
REMARK    6  A    between atoms: C_11  and  C_18 
REMARK    7  A    between atoms: C_11  and  N_23 
REMARK    8  A    between atoms: C_12  and  C_20 
REMARK    9  A    between atoms: C_13  and  S_19 
REMARK       I    between atoms: C_20  and  N_23 
ROOT
HETATM    1  O           1     -21.404  -3.236  -7.374  0.00  0.00    -0.271 OA
HETATM    2  H           1     -22.382  -5.837  -8.830  0.00  0.00     0.163 HD
HETATM    3  C           1     -21.574  -4.418  -7.558  0.00  0.00     0.249 C 
HETATM    4  N           1     -22.239  -4.847  -8.676  0.00  0.00    -0.344 N 
ENDROOT
BRANCH   4   5
HETATM    5  C           1     -22.739  -3.884  -9.637  0.00  0.00     0.194 C 
BRANCH   5   6
HETATM    6  C           1     -22.219  -4.237 -11.025  0.00  0.00     0.138 C 
BRANCH   6   7
HETATM    7  C           1     -20.734  -3.974 -11.088  0.00  0.00     0.217 C 
HETATM    8  O           1     -19.955  -4.827 -10.736  0.00  0.00    -0.274 OA
HETATM    9  N           1     -20.271  -2.770 -11.544  0.00  0.00    -0.370 N 
HETATM   10  H           1     -20.924  -2.055 -11.839  0.00  0.00     0.159 HD
HETATM   11  H           1     -19.275  -2.594 -11.587  0.00  0.00     0.159 HD
ENDBRANCH   6   7
ENDBRANCH   5   6
BRANCH   5  12
HETATM   12  C           1     -24.248  -3.916  -9.641  0.00  0.00     0.197 C 
HETATM   13  O           1     -24.896  -2.860  -9.481  0.00  0.00    -0.646 OA
HETATM   14  O           1     -24.849  -5.000  -9.806  0.00  0.00    -0.646 OA
ENDBRANCH   5  12
ENDBRANCH   4   5
BRANCH   3  15
HETATM   15  C           1     -21.054  -5.420  -6.557  0.00  0.00     0.275 C 
BRANCH  15  16
HETATM   16  N           1     -19.994  -4.778  -5.712  0.00  0.00    -0.066 N 
HETATM   17  H           1     -19.089  -5.283  -5.844  0.00  0.00     0.275 HD
HETATM   18  H           1     -19.880  -3.780  -5.996  0.00  0.00     0.275 HD
HETATM   19  H           1     -20.276  -4.824  -4.707  0.00  0.00     0.275 HD
ENDBRANCH  15  16
BRANCH  15  20
HETATM   20  C           1     -22.198  -5.889  -5.667  0.00  0.00     0.053 C 
BRANCH  20  21
HETATM   21  C           1     -21.713  -7.021  -4.771  0.00  0.00     0.076 C 
BRANCH  21  22
HETATM   22  S           1     -21.716  -6.469  -3.043  0.00  0.00    -0.173 SA
HETATM   23  C           1     -21.073  -8.014  -2.339  0.00  0.00     0.089 C 
ENDBRANCH  21  22
ENDBRANCH  20  21
ENDBRANCH  15  20
ENDBRANCH   3  15
TORSDOF 9
ENDMDL
MODEL 5
REMARK VINA RESULT:      -5.6      4.140      5.907
REMARK  9 active torsions:
REMARK  status: ('A' for Active; 'I' for Inactive)
REMARK       I    between atoms: N_4  and  C_21 
REMARK    1  A    between atoms: C_5  and  C_21 
REMARK    2  A    between atoms: C_5  and  C_11 
REMARK    3  A    between atoms: N_6  and  C_12 
REMARK    4  A    between atoms: C_10  and  C_12 
REMARK    5  A    between atoms: C_10  and  C_13 
REMARK    6  A    between atoms: C_11  and  C_18 
REMARK    7  A    between atoms: C_11  and  N_23 
REMARK    8  A    between atoms: C_12  and  C_20 
REMARK    9  A    between atoms: C_13  and  S_19 
REMARK       I    between atoms: C_20  and  N_23 
ROOT
HETATM    1  O           1     -34.994  -4.869 -15.529  0.00  0.00    -0.271 OA
HETATM    2  H           1     -32.409  -3.683 -14.206  0.00  0.00     0.163 HD
HETATM    3  C           1     -33.852  -4.481 -15.456  0.00  0.00     0.249 C 
HETATM    4  N           1     -33.365  -4.008 -14.267  0.00  0.00    -0.344 N 
ENDROOT
BRANCH   4   5
HETATM    5  C           1     -34.219  -3.974 -13.095  0.00  0.00     0.194 C 
BRANCH   5   6
HETATM    6  C           1     -33.466  -4.547 -11.902  0.00  0.00     0.138 C 
BRANCH   6   7
HETATM    7  C           1     -34.231  -5.718 -11.338  0.00  0.00     0.217 C 
HETATM    8  O           1     -34.193  -5.950 -10.153  0.00  0.00    -0.274 OA
HETATM    9  N           1     -34.969  -6.517 -12.168  0.00  0.00    -0.370 N 
HETATM   10  H           1     -35.001  -6.323 -13.161  0.00  0.00     0.159 HD
HETATM   11  H           1     -35.482  -7.304 -11.789  0.00  0.00     0.159 HD
ENDBRANCH   6   7
ENDBRANCH   5   6
BRANCH   5  12
HETATM   12  C           1     -34.613  -2.546 -12.805  0.00  0.00     0.197 C 
HETATM   13  O           1     -35.052  -1.820 -13.722  0.00  0.00    -0.646 OA
HETATM   14  O           1     -34.503  -2.092 -11.646  0.00  0.00    -0.646 OA
ENDBRANCH   5  12
ENDBRANCH   4   5
BRANCH   3  15
HETATM   15  C           1     -32.963  -4.517 -16.675  0.00  0.00     0.275 C 
BRANCH  15  16
HETATM   16  N           1     -33.094  -3.225 -17.426  0.00  0.00    -0.066 N 
HETATM   17  H           1     -33.259  -2.445 -16.752  0.00  0.00     0.275 HD
HETATM   18  H           1     -32.214  -3.043 -17.960  0.00  0.00     0.275 HD
HETATM   19  H           1     -33.897  -3.288 -18.091  0.00  0.00     0.275 HD
ENDBRANCH  15  16
BRANCH  15  20
HETATM   20  C           1     -31.516  -4.708 -16.243  0.00  0.00     0.053 C 
BRANCH  20  21
HETATM   21  C           1     -30.772  -5.516 -17.299  0.00  0.00     0.076 C 
BRANCH  21  22
HETATM   22  S           1     -29.486  -4.484 -18.056  0.00  0.00    -0.173 SA
HETATM   23  C           1     -28.372  -5.847 -18.498  0.00  0.00     0.089 C 
ENDBRANCH  21  22
ENDBRANCH  20  21
ENDBRANCH  15  20
ENDBRANCH   3  15
TORSDOF 9
ENDMDL
MODEL 6
REMARK VINA RESULT:      -5.4     12.460     14.428
REMARK  9 active torsions:
REMARK  status: ('A' for Active; 'I' for Inactive)
REMARK       I    between atoms: N_4  and  C_21 
REMARK    1  A    between atoms: C_5  and  C_21 
REMARK    2  A    between atoms: C_5  and  C_11 
REMARK    3  A    between atoms: N_6  and  C_12 
REMARK    4  A    between atoms: C_10  and  C_12 
REMARK    5  A    between atoms: C_10  and  C_13 
REMARK    6  A    between atoms: C_11  and  C_18 
REMARK    7  A    between atoms: C_11  and  N_23 
REMARK    8  A    between atoms: C_12  and  C_20 
REMARK    9  A    between atoms: C_13  and  S_19 
REMARK       I    between atoms: C_20  and  N_23 
ROOT
HETATM    1  O           1     -20.084  -5.497  -8.926  0.00  0.00    -0.271 OA
HETATM    2  H           1     -22.363  -3.341  -8.897  0.00  0.00     0.163 HD
HETATM    3  C           1     -20.763  -4.594  -8.500  0.00  0.00     0.249 C 
HETATM    4  N           1     -21.794  -4.098  -9.254  0.00  0.00    -0.344 N 
ENDROOT
BRANCH   4   5
HETATM    5  C           1     -22.070  -4.657 -10.563  0.00  0.00     0.194 C 
BRANCH   5   6
HETATM    6  C           1     -23.551  -4.997 -10.667  0.00  0.00     0.138 C 
BRANCH   6   7
HETATM    7  C           1     -24.371  -3.834 -10.166  0.00  0.00     0.217 C 
HETATM    8  O           1     -24.945  -3.118 -10.952  0.00  0.00    -0.274 OA
HETATM    9  N           1     -24.465  -3.590  -8.823  0.00  0.00    -0.370 N 
HETATM   10  H           1     -23.984  -4.190  -8.165  0.00  0.00     0.159 HD
HETATM   11  H           1     -25.015  -2.809  -8.487  0.00  0.00     0.159 HD
ENDBRANCH   6   7
ENDBRANCH   5   6
BRANCH   5  12
HETATM   12  C           1     -21.707  -3.649 -11.625  0.00  0.00     0.197 C 
HETATM   13  O           1     -21.102  -2.602 -11.313  0.00  0.00    -0.646 OA
HETATM   14  O           1     -22.012  -3.863 -12.819  0.00  0.00    -0.646 OA
ENDBRANCH   5  12
ENDBRANCH   4   5
BRANCH   3  15
HETATM   15  C           1     -20.476  -4.011  -7.138  0.00  0.00     0.275 C 
BRANCH  15  16
HETATM   16  N           1     -21.588  -3.082  -6.748  0.00  0.00    -0.066 N 
HETATM   17  H           1     -22.480  -3.401  -7.189  0.00  0.00     0.275 HD
HETATM   18  H           1     -21.694  -3.084  -5.708  0.00  0.00     0.275 HD
HETATM   19  H           1     -21.363  -2.115  -7.073  0.00  0.00     0.275 HD
ENDBRANCH  15  16
BRANCH  15  20
HETATM   20  C           1     -20.373  -5.135  -6.116  0.00  0.00     0.053 C 
BRANCH  20  21
HETATM   21  C           1     -21.764  -5.679  -5.816  0.00  0.00     0.076 C 
BRANCH  21  22
HETATM   22  S           1     -21.625  -7.153  -4.768  0.00  0.00    -0.173 SA
HETATM   23  C           1     -21.495  -6.266  -3.190  0.00  0.00     0.089 C 
ENDBRANCH  21  22
ENDBRANCH  20  21
ENDBRANCH  15  20
ENDBRANCH   3  15
TORSDOF 9
ENDMDL
MODEL 7
REMARK VINA RESULT:      -5.3     13.336     15.405
REMARK  9 active torsions:
REMARK  status: ('A' for Active; 'I' for Inactive)
REMARK       I    between atoms: N_4  and  C_21 
REMARK    1  A    between atoms: C_5  and  C_21 
REMARK    2  A    between atoms: C_5  and  C_11 
REMARK    3  A    between atoms: N_6  and  C_12 
REMARK    4  A    between atoms: C_10  and  C_12 
REMARK    5  A    between atoms: C_10  and  C_13 
REMARK    6  A    between atoms: C_11  and  C_18 
REMARK    7  A    between atoms: C_11  and  N_23 
REMARK    8  A    between atoms: C_12  and  C_20 
REMARK    9  A    between atoms: C_13  and  S_19 
REMARK       I    between atoms: C_20  and  N_23 
ROOT
HETATM    1  O           1     -20.865  -6.793  -7.169  0.00  0.00    -0.271 OA
HETATM    2  H           1     -22.323  -4.061  -6.671  0.00  0.00     0.163 HD
HETATM    3  C           1     -21.377  -5.897  -6.542  0.00  0.00     0.249 C 
HETATM    4  N           1     -21.894  -4.812  -7.197  0.00  0.00    -0.344 N 
ENDROOT
BRANCH   4   5
HETATM    5  C           1     -21.830  -4.738  -8.643  0.00  0.00     0.194 C 
BRANCH   5   6
HETATM    6  C           1     -22.816  -3.691  -9.143  0.00  0.00     0.138 C 
BRANCH   6   7
HETATM    7  C           1     -23.965  -4.375  -9.843  0.00  0.00     0.217 C 
HETATM    8  O           1     -23.749  -5.272 -10.622  0.00  0.00    -0.274 OA
HETATM    9  N           1     -25.251  -3.978  -9.595  0.00  0.00    -0.370 N 
HETATM   10  H           1     -25.432  -3.226  -8.942  0.00  0.00     0.159 HD
HETATM   11  H           1     -26.022  -4.437 -10.065  0.00  0.00     0.159 HD
ENDBRANCH   6   7
ENDBRANCH   5   6
BRANCH   5  12
HETATM   12  C           1     -20.432  -4.355  -9.064  0.00  0.00     0.197 C 
HETATM   13  O           1     -20.006  -4.683 -10.192  0.00  0.00    -0.646 OA
HETATM   14  O           1     -19.700  -3.709  -8.283  0.00  0.00    -0.646 OA
ENDBRANCH   5  12
ENDBRANCH   4   5
BRANCH   3  15
HETATM   15  C           1     -21.445  -5.973  -5.036  0.00  0.00     0.275 C 
BRANCH  15  16
HETATM   16  N           1     -22.871  -6.154  -4.609  0.00  0.00    -0.066 N 
HETATM   17  H           1     -22.909  -6.789  -3.780  0.00  0.00     0.275 HD
HETATM   18  H           1     -23.278  -5.226  -4.355  0.00  0.00     0.275 HD
HETATM   19  H           1     -23.419  -6.572  -5.394  0.00  0.00     0.275 HD
ENDBRANCH  15  16
BRANCH  15  20
HETATM   20  C           1     -20.616  -7.155  -4.549  0.00  0.00     0.053 C 
BRANCH  20  21
HETATM   21  C           1     -21.446  -7.996  -3.588  0.00  0.00     0.076 C 
BRANCH  21  22
HETATM   22  S           1     -20.762  -7.856  -1.914  0.00  0.00    -0.173 SA
HETATM   23  C           1     -22.177  -6.979  -1.192  0.00  0.00     0.089 C 
ENDBRANCH  21  22
ENDBRANCH  20  21
ENDBRANCH  15  20
ENDBRANCH   3  15
TORSDOF 9
ENDMDL
MODEL 8
REMARK VINA RESULT:      -5.2     14.692     16.844
REMARK  9 active torsions:
REMARK  status: ('A' for Active; 'I' for Inactive)
REMARK       I    between atoms: N_4  and  C_21 
REMARK    1  A    between atoms: C_5  and  C_21 
REMARK    2  A    between atoms: C_5  and  C_11 
REMARK    3  A    between atoms: N_6  and  C_12 
REMARK    4  A    between atoms: C_10  and  C_12 
REMARK    5  A    between atoms: C_10  and  C_13 
REMARK    6  A    between atoms: C_11  and  C_18 
REMARK    7  A    between atoms: C_11  and  N_23 
REMARK    8  A    between atoms: C_12  and  C_20 
REMARK    9  A    between atoms: C_13  and  S_19 
REMARK       I    between atoms: C_20  and  N_23 
ROOT
HETATM    1  O           1     -21.831  -7.295  -4.938  0.00  0.00    -0.271 OA
HETATM    2  H           1     -20.558  -4.445  -4.621  0.00  0.00     0.163 HD
HETATM    3  C           1     -21.359  -6.337  -4.372  0.00  0.00     0.249 C 
HETATM    4  N           1     -20.953  -5.247  -5.095  0.00  0.00    -0.344 N 
ENDROOT
BRANCH   4   5
HETATM    5  C           1     -21.090  -5.241  -6.538  0.00  0.00     0.194 C 
BRANCH   5   6
HETATM    6  C           1     -21.562  -3.868  -6.997  0.00  0.00     0.138 C 
BRANCH   6   7
HETATM    7  C           1     -22.494  -4.022  -8.174  0.00  0.00     0.217 C 
HETATM    8  O           1     -22.045  -4.102  -9.293  0.00  0.00    -0.274 OA
HETATM    9  N           1     -23.847  -4.072  -7.975  0.00  0.00    -0.370 N 
HETATM   10  H           1     -24.223  -4.005  -7.037  0.00  0.00     0.159 HD
HETATM   11  H           1     -24.472  -4.176  -8.764  0.00  0.00     0.159 HD
ENDBRANCH   6   7
ENDBRANCH   5   6
BRANCH   5  12
HETATM   12  C           1     -19.756  -5.553  -7.170  0.00  0.00     0.197 C 
HETATM   13  O           1     -19.377  -6.739  -7.280  0.00  0.00    -0.646 OA
HETATM   14  O           1     -19.029  -4.624  -7.584  0.00  0.00    -0.646 OA
ENDBRANCH   5  12
ENDBRANCH   4   5
BRANCH   3  15
HETATM   15  C           1     -21.216  -6.343  -2.870  0.00  0.00     0.275 C 
BRANCH  15  16
HETATM   16  N           1     -22.495  -5.871  -2.245  0.00  0.00    -0.066 N 
HETATM   17  H           1     -22.370  -4.898  -1.886  0.00  0.00     0.275 HD
HETATM   18  H           1     -23.257  -5.882  -2.960  0.00  0.00     0.275 HD
HETATM   19  H           1     -22.751  -6.504  -1.454  0.00  0.00     0.275 HD
ENDBRANCH  15  16
BRANCH  15  20
HETATM   20  C           1     -20.911  -7.757  -2.394  0.00  0.00     0.053 C 
BRANCH  20  21
HETATM   21  C           1     -21.383  -7.922  -0.956  0.00  0.00     0.076 C 
BRANCH  21  22
HETATM   22  S           1     -22.142  -9.557  -0.750  0.00  0.00    -0.173 SA
HETATM   23  C           1     -21.124 -10.075   0.660  0.00  0.00     0.089 C 
ENDBRANCH  21  22
ENDBRANCH  20  21
ENDBRANCH  15  20
ENDBRANCH   3  15
TORSDOF 9
ENDMDL
MODEL 9
REMARK VINA RESULT:      -5.1     14.439     17.238
REMARK  9 active torsions:
REMARK  status: ('A' for Active; 'I' for Inactive)
REMARK       I    between atoms: N_4  and  C_21 
REMARK    1  A    between atoms: C_5  and  C_21 
REMARK    2  A    between atoms: C_5  and  C_11 
REMARK    3  A    between atoms: N_6  and  C_12 
REMARK    4  A    between atoms: C_10  and  C_12 
REMARK    5  A    between atoms: C_10  and  C_13 
REMARK    6  A    between atoms: C_11  and  C_18 
REMARK    7  A    between atoms: C_11  and  N_23 
REMARK    8  A    between atoms: C_12  and  C_20 
REMARK    9  A    between atoms: C_13  and  S_19 
REMARK       I    between atoms: C_20  and  N_23 
ROOT
HETATM    1  O           1     -22.776  -5.612  -5.686  0.00  0.00    -0.271 OA
HETATM    2  H           1     -19.980  -6.778  -4.867  0.00  0.00     0.163 HD
HETATM    3  C           1     -21.577  -5.763  -5.707  0.00  0.00     0.249 C 
HETATM    4  N           1     -20.984  -6.651  -4.850  0.00  0.00    -0.344 N 
ENDROOT
BRANCH   4   5
HETATM    5  C           1     -21.794  -7.412  -3.918  0.00  0.00     0.194 C 
BRANCH   5   6
HETATM    6  C           1     -21.372  -8.874  -3.955  0.00  0.00     0.138 C 
BRANCH   6   7
HETATM    7  C           1     -20.001  -8.987  -4.576  0.00  0.00     0.217 C 
HETATM    8  O           1     -19.887  -9.054  -5.777  0.00  0.00    -0.274 OA
HETATM    9  N           1     -18.889  -9.014  -3.781  0.00  0.00    -0.370 N 
HETATM   10  H           1     -18.984  -8.958  -2.775  0.00  0.00     0.159 HD
HETATM   11  H           1     -17.969  -9.090  -4.198  0.00  0.00     0.159 HD
ENDBRANCH   6   7
ENDBRANCH   5   6
BRANCH   5  12
HETATM   12  C           1     -21.602  -6.866  -2.524  0.00  0.00     0.197 C 
HETATM   13  O           1     -20.765  -7.389  -1.758  0.00  0.00    -0.646 OA
HETATM   14  O           1     -22.278  -5.888  -2.138  0.00  0.00    -0.646 OA
ENDBRANCH   5  12
ENDBRANCH   4   5
BRANCH   3  15
HETATM   15  C           1     -20.734  -4.972  -6.676  0.00  0.00     0.275 C 
BRANCH  15  16
HETATM   16  N           1     -20.180  -5.892  -7.723  0.00  0.00    -0.066 N 
HETATM   17  H           1     -19.986  -6.827  -7.298  0.00  0.00     0.275 HD
HETATM   18  H           1     -20.876  -5.999  -8.495  0.00  0.00     0.275 HD
HETATM   19  H           1     -19.294  -5.492  -8.106  0.00  0.00     0.275 HD
ENDBRANCH  15  16
BRANCH  15  20
HETATM   20  C           1     -21.592  -3.904  -7.342  0.00  0.00     0.053 C 
BRANCH  20  21
HETATM   21  C           1     -21.859  -4.297  -8.789  0.00  0.00     0.076 C 
BRANCH  21  22
HETATM   22  S           1     -23.592  -3.953  -9.200  0.00  0.00    -0.173 SA
HETATM   23  C           1     -23.582  -4.778 -10.817  0.00  0.00     0.089 C 
ENDBRANCH  21  22
ENDBRANCH  20  21
ENDBRANCH  15  20
ENDBRANCH   3  15
TORSDOF 9
ENDMDL
