MODEL 1
REMARK VINA RESULT:      -6.2      0.000      0.000
REMARK  6 active torsions:
REMARK  status: ('A' for Active; 'I' for Inactive)
REMARK    1  A    between atoms: C_5  and  C_12 
REMARK       I    between atoms: C_8  and  N_11 
REMARK    2  A    between atoms: C_8  and  C_13 
REMARK    3  A    between atoms: N_11  and  C_16 
REMARK    4  A    between atoms: C_12  and  C_16 
REMARK    5  A    between atoms: C_13  and  N_14 
REMARK    6  A    between atoms: C_15  and  C_16 
ROOT
HETATM    1  O           1     -35.679  -1.083 -14.043  0.00  0.00    -0.272 OA
HETATM    2  H           1     -34.067   0.199 -11.675  0.00  0.00     0.163 HD
HETATM    3  C           1     -35.061  -0.239 -13.438  0.00  0.00     0.243 C 
HETATM    4  N           1     -34.586  -0.508 -12.182  0.00  0.00    -0.345 N 
ENDROOT
BRANCH   4   5
HETATM    5  C           1     -34.824  -1.805 -11.579  0.00  0.00     0.185 C 
BRANCH   5   6
HETATM    6  C           1     -33.549  -2.291 -10.902  0.00  0.00     0.040 C 
BRANCH   6   7
HETATM    7  C           1     -33.213  -3.691 -11.397  0.00  0.00    -0.020 C 
HETATM    8  C           1     -33.902  -4.722 -10.512  0.00  0.00     0.009 C 
HETATM    9  C           1     -33.695  -3.851 -12.833  0.00  0.00     0.009 C 
ENDBRANCH   6   7
ENDBRANCH   5   6
BRANCH   5  10
HETATM   10  C           1     -35.925  -1.687 -10.554  0.00  0.00     0.196 C 
HETATM   11  O           1     -35.959  -0.703  -9.783  0.00  0.00    -0.646 OA
HETATM   12  O           1     -36.804  -2.572 -10.477  0.00  0.00    -0.646 OA
ENDBRANCH   5  10
ENDBRANCH   4   5
BRANCH   3  13
HETATM   13  C           1     -34.812   1.110 -14.065  0.00  0.00     0.332 C 
BRANCH  13  14
HETATM   14  N           1     -35.863   1.382 -15.099  0.00  0.00    -0.071 N 
HETATM   15  H           1     -36.809   1.331 -14.657  0.00  0.00     0.274 HD
HETATM   16  H           1     -35.719   2.335 -15.503  0.00  0.00     0.274 HD
HETATM   17  H           1     -35.796   0.669 -15.860  0.00  0.00     0.274 HD
ENDBRANCH  13  14
ENDBRANCH   3  13
TORSDOF 6
ENDMDL
MODEL 2
REMARK VINA RESULT:      -5.5     12.190     13.603
REMARK  6 active torsions:
REMARK  status: ('A' for Active; 'I' for Inactive)
REMARK    1  A    between atoms: C_5  and  C_12 
REMARK       I    between atoms: C_8  and  N_11 
REMARK    2  A    between atoms: C_8  and  C_13 
REMARK    3  A    between atoms: N_11  and  C_16 
REMARK    4  A    between atoms: C_12  and  C_16 
REMARK    5  A    between atoms: C_13  and  N_14 
REMARK    6  A    between atoms: C_15  and  C_16 
ROOT
HETATM    1  O           1     -21.424  -3.324  -7.797  0.00  0.00    -0.272 OA
HETATM    2  H           1     -23.524  -5.468  -8.712  0.00  0.00     0.163 HD
HETATM    3  C           1     -22.105  -4.320  -7.735  0.00  0.00     0.243 C 
HETATM    4  N           1     -22.954  -4.633  -8.764  0.00  0.00    -0.345 N 
ENDROOT
BRANCH   4   5
HETATM    5  C           1     -23.034  -3.771  -9.926  0.00  0.00     0.185 C 
BRANCH   5   6
HETATM    6  C           1     -22.582  -4.539 -11.160  0.00  0.00     0.040 C 
BRANCH   6   7
HETATM    7  C           1     -21.202  -4.055 -11.584  0.00  0.00    -0.020 C 
HETATM    8  C           1     -21.106  -2.550 -11.375  0.00  0.00     0.009 C 
HETATM    9  C           1     -20.139  -4.754 -10.745  0.00  0.00     0.009 C 
ENDBRANCH   6   7
ENDBRANCH   5   6
BRANCH   5  10
HETATM   10  C           1     -24.459  -3.311 -10.113  0.00  0.00     0.196 C 
HETATM   11  O           1     -25.085  -2.810  -9.154  0.00  0.00    -0.646 OA
HETATM   12  O           1     -25.013  -3.432 -11.227  0.00  0.00    -0.646 OA
ENDBRANCH   5  10
ENDBRANCH   4   5
BRANCH   3  13
HETATM   13  C           1     -22.022  -5.218  -6.526  0.00  0.00     0.332 C 
BRANCH  13  14
HETATM   14  N           1     -21.138  -6.389  -6.833  0.00  0.00    -0.071 N 
HETATM   15  H           1     -21.251  -7.116  -6.090  0.00  0.00     0.274 HD
HETATM   16  H           1     -21.404  -6.794  -7.759  0.00  0.00     0.274 HD
HETATM   17  H           1     -20.142  -6.076  -6.864  0.00  0.00     0.274 HD
ENDBRANCH  13  14
ENDBRANCH   3  13
TORSDOF 6
ENDMDL
MODEL 3
REMARK VINA RESULT:      -5.5      2.386      4.650
REMARK  6 active torsions:
REMARK  status: ('A' for Active; 'I' for Inactive)
REMARK    1  A    between atoms: C_5  and  C_12 
REMARK       I    between atoms: C_8  and  N_11 
REMARK    2  A    between atoms: C_8  and  C_13 
REMARK    3  A    between atoms: N_11  and  C_16 
REMARK    4  A    between atoms: C_12  and  C_16 
REMARK    5  A    between atoms: C_13  and  N_14 
REMARK    6  A    between atoms: C_15  and  C_16 
ROOT
HETATM    1  O           1     -38.075  -0.739 -11.155  0.00  0.00    -0.272 OA
HETATM    2  H           1     -35.396   0.875 -10.914  0.00  0.00     0.163 HD
HETATM    3  C           1     -37.266   0.019 -10.678  0.00  0.00     0.243 C 
HETATM    4  N           1     -36.073   0.239 -11.315  0.00  0.00    -0.345 N 
ENDROOT
BRANCH   4   5
HETATM    5  C           1     -35.782  -0.439 -12.562  0.00  0.00     0.185 C 
BRANCH   5   6
HETATM    6  C           1     -35.195   0.555 -13.555  0.00  0.00     0.040 C 
BRANCH   6   7
HETATM    7  C           1     -35.868   0.378 -14.910  0.00  0.00    -0.020 C 
HETATM    8  C           1     -37.325  -0.015 -14.705  0.00  0.00     0.009 C 
HETATM    9  C           1     -35.800   1.689 -15.684  0.00  0.00     0.009 C 
ENDBRANCH   6   7
ENDBRANCH   5   6
BRANCH   5  10
HETATM   10  C           1     -34.789  -1.547 -12.311  0.00  0.00     0.196 C 
HETATM   11  O           1     -34.648  -2.464 -13.149  0.00  0.00    -0.646 OA
HETATM   12  O           1     -34.105  -1.547 -11.264  0.00  0.00    -0.646 OA
ENDBRANCH   5  10
ENDBRANCH   4   5
BRANCH   3  13
HETATM   13  C           1     -37.568   0.726  -9.379  0.00  0.00     0.332 C 
BRANCH  13  14
HETATM   14  N           1     -36.310   1.333  -8.835  0.00  0.00    -0.071 N 
HETATM   15  H           1     -35.483   0.811  -9.205  0.00  0.00     0.274 HD
HETATM   16  H           1     -36.249   2.334  -9.128  0.00  0.00     0.274 HD
HETATM   17  H           1     -36.319   1.276  -7.791  0.00  0.00     0.274 HD
ENDBRANCH  13  14
ENDBRANCH   3  13
TORSDOF 6
ENDMDL
MODEL 4
REMARK VINA RESULT:      -5.3      2.097      3.217
REMARK  6 active torsions:
REMARK  status: ('A' for Active; 'I' for Inactive)
REMARK    1  A    between atoms: C_5  and  C_12 
REMARK       I    between atoms: C_8  and  N_11 
REMARK    2  A    between atoms: C_8  and  C_13 
REMARK    3  A    between atoms: N_11  and  C_16 
REMARK    4  A    between atoms: C_12  and  C_16 
REMARK    5  A    between atoms: C_13  and  N_14 
REMARK    6  A    between atoms: C_15  and  C_16 
ROOT
HETATM    1  O           1     -37.124  -1.701 -10.991  0.00  0.00    -0.272 OA
HETATM    2  H           1     -34.520  -0.652  -9.590  0.00  0.00     0.163 HD
HETATM    3  C           1     -36.450  -1.095 -10.192  0.00  0.00     0.243 C 
HETATM    4  N           1     -35.084  -1.161 -10.259  0.00  0.00    -0.345 N 
ENDROOT
BRANCH   4   5
HETATM    5  C           1     -34.446  -1.956 -11.289  0.00  0.00     0.185 C 
BRANCH   5   6
HETATM    6  C           1     -34.936  -3.395 -11.196  0.00  0.00     0.040 C 
BRANCH   6   7
HETATM    7  C           1     -33.787  -4.296 -10.765  0.00  0.00    -0.020 C 
HETATM    8  C           1     -34.306  -5.711 -10.546  0.00  0.00     0.009 C 
HETATM    9  C           1     -32.718  -4.310 -11.851  0.00  0.00     0.009 C 
ENDBRANCH   6   7
ENDBRANCH   5   6
BRANCH   5  10
HETATM   10  C           1     -34.794  -1.393 -12.646  0.00  0.00     0.196 C 
HETATM   11  O           1     -34.830  -0.155 -12.818  0.00  0.00    -0.646 OA
HETATM   12  O           1     -35.044  -2.165 -13.597  0.00  0.00    -0.646 OA
ENDBRANCH   5  10
ENDBRANCH   4   5
BRANCH   3  13
HETATM   13  C           1     -37.114  -0.266  -9.120  0.00  0.00     0.332 C 
BRANCH  13  14
HETATM   14  N           1     -36.534   1.117  -9.127  0.00  0.00    -0.071 N 
HETATM   15  H           1     -36.477   1.466 -10.111  0.00  0.00     0.274 HD
HETATM   16  H           1     -37.144   1.754  -8.566  0.00  0.00     0.274 HD
HETATM   17  H           1     -35.577   1.095  -8.709  0.00  0.00     0.274 HD
ENDBRANCH  13  14
ENDBRANCH   3  13
TORSDOF 6
ENDMDL
MODEL 5
REMARK VINA RESULT:      -5.0     13.487     14.985
REMARK  6 active torsions:
REMARK  status: ('A' for Active; 'I' for Inactive)
REMARK    1  A    between atoms: C_5  and  C_12 
REMARK       I    between atoms: C_8  and  N_11 
REMARK    2  A    between atoms: C_8  and  C_13 
REMARK    3  A    between atoms: N_11  and  C_16 
REMARK    4  A    between atoms: C_12  and  C_16 
REMARK    5  A    between atoms: C_13  and  N_14 
REMARK    6  A    between atoms: C_15  and  C_16 
ROOT
HETATM    1  O           1     -21.127  -6.919  -6.879  0.00  0.00    -0.272 OA
HETATM    2  H           1     -21.549  -3.833  -6.496  0.00  0.00     0.163 HD
HETATM    3  C           1     -21.236  -5.870  -6.291  0.00  0.00     0.243 C 
HETATM    4  N           1     -21.456  -4.712  -6.989  0.00  0.00    -0.345 N 
ENDROOT
BRANCH   4   5
HETATM    5  C           1     -21.558  -4.746  -8.435  0.00  0.00     0.185 C 
BRANCH   5   6
HETATM    6  C           1     -22.535  -3.675  -8.900  0.00  0.00     0.040 C 
BRANCH   6   7
HETATM    7  C           1     -23.763  -4.337  -9.511  0.00  0.00    -0.020 C 
HETATM    8  C           1     -24.889  -3.316  -9.616  0.00  0.00     0.009 C 
HETATM    9  C           1     -23.419  -4.859 -10.900  0.00  0.00     0.009 C 
ENDBRANCH   6   7
ENDBRANCH   5   6
BRANCH   5  10
HETATM   10  C           1     -20.200  -4.487  -9.039  0.00  0.00     0.196 C 
HETATM   11  O           1     -19.984  -4.770 -10.237  0.00  0.00    -0.646 OA
HETATM   12  O           1     -19.291  -3.988  -8.341  0.00  0.00    -0.646 OA
ENDBRANCH   5  10
ENDBRANCH   4   5
BRANCH   3  13
HETATM   13  C           1     -21.131  -5.834  -4.786  0.00  0.00     0.332 C 
BRANCH  13  14
HETATM   14  N           1     -22.439  -6.252  -4.183  0.00  0.00    -0.071 N 
HETATM   15  H           1     -22.308  -7.139  -3.646  0.00  0.00     0.274 HD
HETATM   16  H           1     -22.783  -5.504  -3.539  0.00  0.00     0.274 HD
HETATM   17  H           1     -23.140  -6.405  -4.943  0.00  0.00     0.274 HD
ENDBRANCH  13  14
ENDBRANCH   3  13
TORSDOF 6
ENDMDL
MODEL 6
REMARK VINA RESULT:      -4.6     15.244     16.563
REMARK  6 active torsions:
REMARK  status: ('A' for Active; 'I' for Inactive)
REMARK    1  A    between atoms: C_5  and  C_12 
REMARK       I    between atoms: C_8  and  N_11 
REMARK    2  A    between atoms: C_8  and  C_13 
REMARK    3  A    between atoms: N_11  and  C_16 
REMARK    4  A    between atoms: C_12  and  C_16 
REMARK    5  A    between atoms: C_13  and  N_14 
REMARK    6  A    between atoms: C_15  and  C_16 
ROOT
HETATM    1  O           1     -20.295  -4.444  -5.594  0.00  0.00    -0.272 OA
HETATM    2  H           1     -22.237  -6.728  -6.520  0.00  0.00     0.163 HD
HETATM    3  C           1     -21.168  -4.978  -6.236  0.00  0.00     0.243 C 
HETATM    4  N           1     -21.504  -6.281  -5.982  0.00  0.00    -0.345 N 
ENDROOT
BRANCH   4   5
HETATM    5  C           1     -20.813  -7.019  -4.943  0.00  0.00     0.185 C 
BRANCH   5   6
HETATM    6  C           1     -21.776  -7.307  -3.799  0.00  0.00     0.040 C 
BRANCH   6   7
HETATM    7  C           1     -21.163  -6.834  -2.488  0.00  0.00    -0.020 C 
HETATM    8  C           1     -22.265  -6.326  -1.567  0.00  0.00     0.009 C 
HETATM    9  C           1     -20.438  -7.996  -1.820  0.00  0.00     0.009 C 
ENDBRANCH   6   7
ENDBRANCH   5   6
BRANCH   5  10
HETATM   10  C           1     -20.301  -8.321  -5.510  0.00  0.00     0.196 C 
HETATM   11  O           1     -21.093  -9.261  -5.732  0.00  0.00    -0.646 OA
HETATM   12  O           1     -19.082  -8.457  -5.758  0.00  0.00    -0.646 OA
ENDBRANCH   5  10
ENDBRANCH   4   5
BRANCH   3  13
HETATM   13  C           1     -21.888  -4.209  -7.317  0.00  0.00     0.332 C 
BRANCH  13  14
HETATM   14  N           1     -23.368  -4.394  -7.160  0.00  0.00    -0.071 N 
HETATM   15  H           1     -23.724  -3.747  -6.420  0.00  0.00     0.274 HD
HETATM   16  H           1     -23.844  -4.182  -8.066  0.00  0.00     0.274 HD
HETATM   17  H           1     -23.568  -5.382  -6.885  0.00  0.00     0.274 HD
ENDBRANCH  13  14
ENDBRANCH   3  13
TORSDOF 6
ENDMDL
MODEL 7
REMARK VINA RESULT:      -4.6     15.385     17.008
REMARK  6 active torsions:
REMARK  status: ('A' for Active; 'I' for Inactive)
REMARK    1  A    between atoms: C_5  and  C_12 
REMARK       I    between atoms: C_8  and  N_11 
REMARK    2  A    between atoms: C_8  and  C_13 
REMARK    3  A    between atoms: N_11  and  C_16 
REMARK    4  A    between atoms: C_12  and  C_16 
REMARK    5  A    between atoms: C_13  and  N_14 
REMARK    6  A    between atoms: C_15  and  C_16 
ROOT
HETATM    1  O           1     -19.719  -8.762  -4.086  0.00  0.00    -0.272 OA
HETATM    2  H           1     -21.673  -8.520  -6.528  0.00  0.00     0.163 HD
HETATM    3  C           1     -20.439  -9.131  -4.982  0.00  0.00     0.243 C 
HETATM    4  N           1     -21.070  -8.210  -5.777  0.00  0.00    -0.345 N 
ENDROOT
BRANCH   4   5
HETATM    5  C           1     -20.872  -6.794  -5.542  0.00  0.00     0.185 C 
BRANCH   5   6
HETATM    6  C           1     -20.908  -6.050  -6.870  0.00  0.00     0.040 C 
BRANCH   6   7
HETATM    7  C           1     -20.331  -4.653  -6.686  0.00  0.00    -0.020 C 
HETATM    8  C           1     -19.031  -4.534  -7.471  0.00  0.00     0.009 C 
HETATM    9  C           1     -21.329  -3.621  -7.197  0.00  0.00     0.009 C 
ENDBRANCH   6   7
ENDBRANCH   5   6
BRANCH   5  10
HETATM   10  C           1     -21.969  -6.276  -4.645  0.00  0.00     0.196 C 
HETATM   11  O           1     -21.721  -5.994  -3.452  0.00  0.00    -0.646 OA
HETATM   12  O           1     -23.126  -6.128  -5.095  0.00  0.00    -0.646 OA
ENDBRANCH   5  10
ENDBRANCH   4   5
BRANCH   3  13
HETATM   13  C           1     -20.645 -10.606  -5.227  0.00  0.00     0.332 C 
BRANCH  13  14
HETATM   14  N           1     -19.894 -11.018  -6.457  0.00  0.00    -0.071 N 
HETATM   15  H           1     -18.872 -10.845  -6.317  0.00  0.00     0.274 HD
HETATM   16  H           1     -20.053 -12.034  -6.640  0.00  0.00     0.274 HD
HETATM   17  H           1     -20.232 -10.461  -7.275  0.00  0.00     0.274 HD
ENDBRANCH  13  14
ENDBRANCH   3  13
TORSDOF 6
ENDMDL
MODEL 8
REMARK VINA RESULT:      -4.6     17.222     18.717
REMARK  6 active torsions:
REMARK  status: ('A' for Active; 'I' for Inactive)
REMARK    1  A    between atoms: C_5  and  C_12 
REMARK       I    between atoms: C_8  and  N_11 
REMARK    2  A    between atoms: C_8  and  C_13 
REMARK    3  A    between atoms: N_11  and  C_16 
REMARK    4  A    between atoms: C_12  and  C_16 
REMARK    5  A    between atoms: C_13  and  N_14 
REMARK    6  A    between atoms: C_15  and  C_16 
ROOT
HETATM    1  O           1     -23.004  -7.278  -0.167  0.00  0.00    -0.272 OA
HETATM    2  H           1     -21.171  -8.467  -2.419  0.00  0.00     0.163 HD
HETATM    3  C           1     -22.299  -7.285  -1.148  0.00  0.00     0.243 C 
HETATM    4  N           1     -21.761  -8.462  -1.597  0.00  0.00    -0.345 N 
ENDROOT
BRANCH   4   5
HETATM    5  C           1     -22.038  -9.700  -0.896  0.00  0.00     0.185 C 
BRANCH   5   6
HETATM    6  C           1     -22.570 -10.732  -1.880  0.00  0.00     0.040 C 
BRANCH   6   7
HETATM    7  C           1     -23.861 -11.333  -1.339  0.00  0.00    -0.020 C 
HETATM    8  C           1     -23.687 -12.836  -1.167  0.00  0.00     0.009 C 
HETATM    9  C           1     -24.189 -10.702   0.007  0.00  0.00     0.009 C 
ENDBRANCH   6   7
ENDBRANCH   5   6
BRANCH   5  10
HETATM   10  C           1     -20.768 -10.213  -0.264  0.00  0.00     0.196 C 
HETATM   11  O           1     -20.644 -10.216   0.980  0.00  0.00    -0.646 OA
HETATM   12  O           1     -19.839 -10.638  -0.986  0.00  0.00    -0.646 OA
ENDBRANCH   5  10
ENDBRANCH   4   5
BRANCH   3  13
HETATM   13  C           1     -22.010  -5.996  -1.879  0.00  0.00     0.332 C 
BRANCH  13  14
HETATM   14  N           1     -22.129  -6.222  -3.356  0.00  0.00    -0.071 N 
HETATM   15  H           1     -22.897  -6.907  -3.543  0.00  0.00     0.274 HD
HETATM   16  H           1     -22.347  -5.317  -3.832  0.00  0.00     0.274 HD
HETATM   17  H           1     -21.228  -6.600  -3.725  0.00  0.00     0.274 HD
ENDBRANCH  13  14
ENDBRANCH   3  13
TORSDOF 6
ENDMDL
MODEL 9
REMARK VINA RESULT:      -4.5     16.890     18.176
REMARK  6 active torsions:
REMARK  status: ('A' for Active; 'I' for Inactive)
REMARK    1  A    between atoms: C_5  and  C_12 
REMARK       I    between atoms: C_8  and  N_11 
REMARK    2  A    between atoms: C_8  and  C_13 
REMARK    3  A    between atoms: N_11  and  C_16 
REMARK    4  A    between atoms: C_12  and  C_16 
REMARK    5  A    between atoms: C_13  and  N_14 
REMARK    6  A    between atoms: C_15  and  C_16 
ROOT
HETATM    1  O           1     -22.524 -10.427  -2.986  0.00  0.00    -0.272 OA
HETATM    2  H           1     -20.316  -8.300  -3.654  0.00  0.00     0.163 HD
HETATM    3  C           1     -21.557  -9.953  -3.533  0.00  0.00     0.243 C 
HETATM    4  N           1     -21.127  -8.696  -3.196  0.00  0.00    -0.345 N 
ENDROOT
BRANCH   4   5
HETATM    5  C           1     -21.833  -7.936  -2.184  0.00  0.00     0.185 C 
BRANCH   5   6
HETATM    6  C           1     -21.030  -7.944  -0.891  0.00  0.00     0.040 C 
BRANCH   6   7
HETATM    7  C           1     -21.771  -8.756   0.163  0.00  0.00    -0.020 C 
HETATM    8  C           1     -20.968  -8.758   1.458  0.00  0.00     0.009 C 
HETATM    9  C           1     -23.138  -8.133   0.414  0.00  0.00     0.009 C 
ENDBRANCH   6   7
ENDBRANCH   5   6
BRANCH   5  10
HETATM   10  C           1     -22.011  -6.514  -2.658  0.00  0.00     0.196 C 
HETATM   11  O           1     -22.083  -6.267  -3.881  0.00  0.00    -0.646 OA
HETATM   12  O           1     -22.086  -5.583  -1.826  0.00  0.00    -0.646 OA
ENDBRANCH   5  10
ENDBRANCH   4   5
BRANCH   3  13
HETATM   13  C           1     -20.821 -10.744  -4.586  0.00  0.00     0.332 C 
BRANCH  13  14
HETATM   14  N           1     -20.904 -10.026  -5.900  0.00  0.00    -0.071 N 
HETATM   15  H           1     -21.838  -9.565  -5.987  0.00  0.00     0.274 HD
HETATM   16  H           1     -20.152  -9.301  -5.949  0.00  0.00     0.274 HD
HETATM   17  H           1     -20.779 -10.710  -6.679  0.00  0.00     0.274 HD
ENDBRANCH  13  14
ENDBRANCH   3  13
TORSDOF 6
ENDMDL
