MODEL 1
REMARK VINA RESULT:      -6.0      0.000      0.000
REMARK  8 active torsions:
REMARK  status: ('A' for Active; 'I' for Inactive)
REMARK    1  A    between atoms: C_1  and  C_2 
REMARK    2  A    between atoms: C_1  and  C_13 
REMARK    3  A    between atoms: C_1  and  N_10 
REMARK    4  A    between atoms: C_2  and  C_15 
REMARK    5  A    between atoms: N_5  and  C_8 
REMARK    6  A    between atoms: Se_6  and  C_7 
REMARK    7  A    between atoms: C_7  and  C_8 
REMARK    8  A    between atoms: C_8  and  C_9 
REMARK       I    between atoms: C_9  and  N_10 
ROOT
HETATM    1  O           1     -36.998  -1.091 -13.200  0.00  0.00    -0.271 OA
HETATM    2  C           1     -36.020  -0.386 -13.123  0.00  0.00     0.249 C 
HETATM    3  N           1     -35.163  -0.518 -12.063  0.00  0.00    -0.345 N 
HETATM    4  H           1     -34.343   0.073 -11.999  0.00  0.00     0.163 HD
ENDROOT
BRANCH   2   5
HETATM    5  C           1     -35.741   0.638 -14.195  0.00  0.00     0.274 C 
BRANCH   5   6
HETATM    6  N           1     -34.316   0.513 -14.647  0.00  0.00    -0.067 N 
HETATM    7  H           1     -33.965  -0.448 -14.429  0.00  0.00     0.275 HD
HETATM    8  H           1     -34.262   0.678 -15.676  0.00  0.00     0.275 HD
HETATM    9  H           1     -33.729   1.218 -14.148  0.00  0.00     0.275 HD
ENDBRANCH   5   6
BRANCH   5  10
HETATM   10  C           1     -36.671   0.400 -15.378  0.00  0.00     0.045 C 
BRANCH  10  11
HETATM   11 Se           1     -35.899  -0.949 -16.553  0.00  0.00     0.000 Se
HETATM   12  H           1     -35.685  -1.930 -15.477  0.00  0.00     0.000 HD
ENDBRANCH  10  11
ENDBRANCH   5  10
ENDBRANCH   2   5
BRANCH   3  13
HETATM   13  C           1     -35.430  -1.502 -11.032  0.00  0.00     0.185 C 
BRANCH  13  14
HETATM   14  C           1     -34.114  -1.978 -10.432  0.00  0.00     0.040 C 
BRANCH  14  15
HETATM   15  C           1     -33.967  -3.478 -10.654  0.00  0.00    -0.020 C 
HETATM   16  C           1     -32.868  -3.733 -11.678  0.00  0.00     0.009 C 
HETATM   17  C           1     -35.282  -4.046 -11.169  0.00  0.00     0.009 C 
ENDBRANCH  14  15
ENDBRANCH  13  14
BRANCH  13  18
HETATM   18  C           1     -36.280  -0.880  -9.953  0.00  0.00     0.196 C 
HETATM   19  O           1     -35.739  -0.352  -8.956  0.00  0.00    -0.646 OA
HETATM   20  O           1     -37.526  -0.892 -10.053  0.00  0.00    -0.646 OA
ENDBRANCH  13  18
ENDBRANCH   3  13
TORSDOF 8
ENDMDL
MODEL 2
REMARK VINA RESULT:      -5.7     12.563     14.568
REMARK  8 active torsions:
REMARK  status: ('A' for Active; 'I' for Inactive)
REMARK    1  A    between atoms: C_1  and  C_2 
REMARK    2  A    between atoms: C_1  and  C_13 
REMARK    3  A    between atoms: C_1  and  N_10 
REMARK    4  A    between atoms: C_2  and  C_15 
REMARK    5  A    between atoms: N_5  and  C_8 
REMARK    6  A    between atoms: Se_6  and  C_7 
REMARK    7  A    between atoms: C_7  and  C_8 
REMARK    8  A    between atoms: C_8  and  C_9 
REMARK       I    between atoms: C_9  and  N_10 
ROOT
HETATM    1  O           1     -21.548  -3.212  -7.733  0.00  0.00    -0.271 OA
HETATM    2  C           1     -22.255  -4.186  -7.632  0.00  0.00     0.249 C 
HETATM    3  N           1     -23.080  -4.542  -8.665  0.00  0.00    -0.345 N 
HETATM    4  H           1     -23.673  -5.358  -8.581  0.00  0.00     0.163 HD
ENDROOT
BRANCH   2   5
HETATM    5  C           1     -22.229  -5.011  -6.369  0.00  0.00     0.274 C 
BRANCH   5   6
HETATM    6  N           1     -23.627  -5.416  -6.008  0.00  0.00    -0.067 N 
HETATM    7  H           1     -24.189  -4.563  -5.782  0.00  0.00     0.275 HD
HETATM    8  H           1     -24.064  -5.916  -6.815  0.00  0.00     0.275 HD
HETATM    9  H           1     -23.604  -6.047  -5.177  0.00  0.00     0.275 HD
ENDBRANCH   5   6
BRANCH   5  10
HETATM   10  C           1     -21.382  -6.257  -6.595  0.00  0.00     0.045 C 
BRANCH  10  11
HETATM   11 Se           1     -21.193  -7.229  -4.916  0.00  0.00     0.000 Se
HETATM   12  H           1     -22.437  -7.997  -5.086  0.00  0.00     0.000 HD
ENDBRANCH  10  11
ENDBRANCH   5  10
ENDBRANCH   2   5
BRANCH   3  13
HETATM   13  C           1     -23.106  -3.750  -9.879  0.00  0.00     0.185 C 
BRANCH  13  14
HETATM   14  C           1     -22.617  -4.595 -11.047  0.00  0.00     0.040 C 
BRANCH  14  15
HETATM   15  C           1     -21.233  -4.122 -11.473  0.00  0.00    -0.020 C 
HETATM   16  C           1     -20.180  -4.774 -10.586  0.00  0.00     0.009 C 
HETATM   17  C           1     -21.149  -2.608 -11.333  0.00  0.00     0.009 C 
ENDBRANCH  14  15
ENDBRANCH  13  14
BRANCH  13  18
HETATM   18  C           1     -24.518  -3.288 -10.147  0.00  0.00     0.196 C 
HETATM   19  O           1     -25.034  -3.475 -11.271  0.00  0.00    -0.646 OA
HETATM   20  O           1     -25.171  -2.719  -9.246  0.00  0.00    -0.646 OA
ENDBRANCH  13  18
ENDBRANCH   3  13
TORSDOF 8
ENDMDL
MODEL 3
REMARK VINA RESULT:      -5.2      2.955      4.857
REMARK  8 active torsions:
REMARK  status: ('A' for Active; 'I' for Inactive)
REMARK    1  A    between atoms: C_1  and  C_2 
REMARK    2  A    between atoms: C_1  and  C_13 
REMARK    3  A    between atoms: C_1  and  N_10 
REMARK    4  A    between atoms: C_2  and  C_15 
REMARK    5  A    between atoms: N_5  and  C_8 
REMARK    6  A    between atoms: Se_6  and  C_7 
REMARK    7  A    between atoms: C_7  and  C_8 
REMARK    8  A    between atoms: C_8  and  C_9 
REMARK       I    between atoms: C_9  and  N_10 
ROOT
HETATM    1  O           1     -33.873  -2.579 -12.315  0.00  0.00    -0.271 OA
HETATM    2  C           1     -34.908  -3.050 -11.909  0.00  0.00     0.249 C 
HETATM    3  N           1     -35.964  -2.231 -11.614  0.00  0.00    -0.345 N 
HETATM    4  H           1     -36.832  -2.627 -11.274  0.00  0.00     0.163 HD
ENDROOT
BRANCH   2   5
HETATM    5  C           1     -35.038  -4.543 -11.729  0.00  0.00     0.274 C 
BRANCH   5   6
HETATM    6  N           1     -34.639  -5.235 -12.998  0.00  0.00    -0.067 N 
HETATM    7  H           1     -35.331  -5.011 -13.749  0.00  0.00     0.275 HD
HETATM    8  H           1     -33.691  -4.909 -13.290  0.00  0.00     0.275 HD
HETATM    9  H           1     -34.620  -6.268 -12.841  0.00  0.00     0.275 HD
ENDBRANCH   5   6
BRANCH   5  10
HETATM   10  C           1     -34.127  -4.998 -10.595  0.00  0.00     0.045 C 
BRANCH  10  11
HETATM   11 Se           1     -34.498  -6.863 -10.170  0.00  0.00     0.000 Se
HETATM   12  H           1     -33.694  -7.396 -11.282  0.00  0.00     0.000 HD
ENDBRANCH  10  11
ENDBRANCH   5  10
ENDBRANCH   2   5
BRANCH   3  13
HETATM   13  C           1     -35.840  -0.797 -11.787  0.00  0.00     0.185 C 
BRANCH  13  14
HETATM   14  C           1     -36.474  -0.388 -13.110  0.00  0.00     0.040 C 
BRANCH  14  15
HETATM   15  C           1     -35.381  -0.085 -14.126  0.00  0.00    -0.020 C 
HETATM   16  C           1     -34.611   1.154 -13.687  0.00  0.00     0.009 C 
HETATM   17  C           1     -36.012   0.167 -15.489  0.00  0.00     0.009 C 
ENDBRANCH  14  15
ENDBRANCH  13  14
BRANCH  13  18
HETATM   18  C           1     -36.543  -0.092 -10.653  0.00  0.00     0.196 C 
HETATM   19  O           1     -37.604   0.534 -10.868  0.00  0.00    -0.646 OA
HETATM   20  O           1     -36.065  -0.134  -9.499  0.00  0.00    -0.646 OA
ENDBRANCH  13  18
ENDBRANCH   3  13
TORSDOF 8
ENDMDL
MODEL 4
REMARK VINA RESULT:      -5.1     13.994     15.653
REMARK  8 active torsions:
REMARK  status: ('A' for Active; 'I' for Inactive)
REMARK    1  A    between atoms: C_1  and  C_2 
REMARK    2  A    between atoms: C_1  and  C_13 
REMARK    3  A    between atoms: C_1  and  N_10 
REMARK    4  A    between atoms: C_2  and  C_15 
REMARK    5  A    between atoms: N_5  and  C_8 
REMARK    6  A    between atoms: Se_6  and  C_7 
REMARK    7  A    between atoms: C_7  and  C_8 
REMARK    8  A    between atoms: C_8  and  C_9 
REMARK       I    between atoms: C_9  and  N_10 
ROOT
HETATM    1  O           1     -21.839  -3.195  -7.544  0.00  0.00    -0.271 OA
HETATM    2  C           1     -22.391  -4.193  -7.942  0.00  0.00     0.249 C 
HETATM    3  N           1     -22.276  -5.364  -7.244  0.00  0.00    -0.345 N 
HETATM    4  H           1     -22.739  -6.201  -7.578  0.00  0.00     0.163 HD
ENDROOT
BRANCH   2   5
HETATM    5  C           1     -23.209  -4.148  -9.210  0.00  0.00     0.274 C 
BRANCH   5   6
HETATM    6  N           1     -24.488  -3.409  -8.951  0.00  0.00    -0.067 N 
HETATM    7  H           1     -25.097  -3.459  -9.800  0.00  0.00     0.275 HD
HETATM    8  H           1     -24.984  -3.844  -8.142  0.00  0.00     0.275 HD
HETATM    9  H           1     -24.276  -2.410  -8.735  0.00  0.00     0.275 HD
ENDBRANCH   5   6
BRANCH   5  10
HETATM   10  C           1     -22.420  -3.431 -10.298  0.00  0.00     0.045 C 
BRANCH  10  11
HETATM   11 Se           1     -20.733  -4.359 -10.598  0.00  0.00     0.000 Se
HETATM   12  H           1     -21.360  -5.677 -10.789  0.00  0.00     0.000 HD
ENDBRANCH  10  11
ENDBRANCH   5  10
ENDBRANCH   2   5
BRANCH   3  13
HETATM   13  C           1     -21.490  -5.409  -6.026  0.00  0.00     0.185 C 
BRANCH  13  14
HETATM   14  C           1     -21.972  -6.558  -5.152  0.00  0.00     0.040 C 
BRANCH  14  15
HETATM   15  C           1     -21.131  -6.621  -3.884  0.00  0.00    -0.020 C 
HETATM   16  C           1     -20.622  -8.042  -3.683  0.00  0.00     0.009 C 
HETATM   17  C           1     -21.983  -6.213  -2.689  0.00  0.00     0.009 C 
ENDBRANCH  14  15
ENDBRANCH  13  14
BRANCH  13  18
HETATM   18  C           1     -20.036  -5.616  -6.374  0.00  0.00     0.196 C 
HETATM   19  O           1     -19.197  -4.726  -6.110  0.00  0.00    -0.646 OA
HETATM   20  O           1     -19.670  -6.675  -6.927  0.00  0.00    -0.646 OA
ENDBRANCH  13  18
ENDBRANCH   3  13
TORSDOF 8
ENDMDL
MODEL 5
REMARK VINA RESULT:      -5.0     15.682     17.335
REMARK  8 active torsions:
REMARK  status: ('A' for Active; 'I' for Inactive)
REMARK    1  A    between atoms: C_1  and  C_2 
REMARK    2  A    between atoms: C_1  and  C_13 
REMARK    3  A    between atoms: C_1  and  N_10 
REMARK    4  A    between atoms: C_2  and  C_15 
REMARK    5  A    between atoms: N_5  and  C_8 
REMARK    6  A    between atoms: Se_6  and  C_7 
REMARK    7  A    between atoms: C_7  and  C_8 
REMARK    8  A    between atoms: C_8  and  C_9 
REMARK       I    between atoms: C_9  and  N_10 
ROOT
HETATM    1  O           1     -20.281  -4.887  -5.564  0.00  0.00    -0.271 OA
HETATM    2  C           1     -20.823  -5.619  -6.357  0.00  0.00     0.249 C 
HETATM    3  N           1     -20.917  -6.960  -6.099  0.00  0.00    -0.345 N 
HETATM    4  H           1     -21.371  -7.574  -6.764  0.00  0.00     0.163 HD
ENDROOT
BRANCH   2   5
HETATM    5  C           1     -21.398  -5.056  -7.634  0.00  0.00     0.274 C 
BRANCH   5   6
HETATM    6  N           1     -22.595  -4.212  -7.312  0.00  0.00    -0.067 N 
HETATM    7  H           1     -23.448  -4.815  -7.278  0.00  0.00     0.275 HD
HETATM    8  H           1     -22.458  -3.753  -6.384  0.00  0.00     0.275 HD
HETATM    9  H           1     -22.715  -3.482  -8.049  0.00  0.00     0.275 HD
ENDBRANCH   5   6
BRANCH   5  10
HETATM   10  C           1     -20.347  -4.200  -8.329  0.00  0.00     0.045 C 
BRANCH  10  11
HETATM   11 Se           1     -20.603  -4.293 -10.259  0.00  0.00     0.000 Se
HETATM   12  H           1     -19.669  -5.415 -10.445  0.00  0.00     0.000 HD
ENDBRANCH  10  11
ENDBRANCH   5  10
ENDBRANCH   2   5
BRANCH   3  13
HETATM   13  C           1     -20.365  -7.503  -4.872  0.00  0.00     0.185 C 
BRANCH  13  14
HETATM   14  C           1     -21.483  -7.708  -3.859  0.00  0.00     0.040 C 
BRANCH  14  15
HETATM   15  C           1     -21.080  -7.095  -2.525  0.00  0.00    -0.020 C 
HETATM   16  C           1     -20.866  -8.203  -1.502  0.00  0.00     0.009 C 
HETATM   17  C           1     -22.183  -6.163  -2.042  0.00  0.00     0.009 C 
ENDBRANCH  14  15
ENDBRANCH  13  14
BRANCH  13  18
HETATM   18  C           1     -19.699  -8.825  -5.164  0.00  0.00     0.196 C 
HETATM   19  O           1     -18.781  -8.890  -6.011  0.00  0.00    -0.646 OA
HETATM   20  O           1     -20.066  -9.857  -4.560  0.00  0.00    -0.646 OA
ENDBRANCH  13  18
ENDBRANCH   3  13
TORSDOF 8
ENDMDL
MODEL 6
REMARK VINA RESULT:      -4.9     14.642     16.662
REMARK  8 active torsions:
REMARK  status: ('A' for Active; 'I' for Inactive)
REMARK    1  A    between atoms: C_1  and  C_2 
REMARK    2  A    between atoms: C_1  and  C_13 
REMARK    3  A    between atoms: C_1  and  N_10 
REMARK    4  A    between atoms: C_2  and  C_15 
REMARK    5  A    between atoms: N_5  and  C_8 
REMARK    6  A    between atoms: Se_6  and  C_7 
REMARK    7  A    between atoms: C_7  and  C_8 
REMARK    8  A    between atoms: C_8  and  C_9 
REMARK       I    between atoms: C_9  and  N_10 
ROOT
HETATM    1  O           1     -21.052  -7.606  -6.348  0.00  0.00    -0.271 OA
HETATM    2  C           1     -21.566  -6.787  -5.624  0.00  0.00     0.249 C 
HETATM    3  N           1     -21.711  -5.494  -6.048  0.00  0.00    -0.345 N 
HETATM    4  H           1     -22.141  -4.807  -5.441  0.00  0.00     0.163 HD
ENDROOT
BRANCH   2   5
HETATM    5  C           1     -22.048  -7.190  -4.252  0.00  0.00     0.274 C 
BRANCH   5   6
HETATM    6  N           1     -21.587  -8.585  -3.951  0.00  0.00    -0.067 N 
HETATM    7  H           1     -22.284  -9.056  -3.330  0.00  0.00     0.275 HD
HETATM    8  H           1     -21.496  -9.122  -4.842  0.00  0.00     0.275 HD
HETATM    9  H           1     -20.661  -8.549  -3.468  0.00  0.00     0.275 HD
ENDBRANCH   5   6
BRANCH   5  10
HETATM   10  C           1     -21.480  -6.232  -3.213  0.00  0.00     0.045 C 
BRANCH  10  11
HETATM   11 Se           1     -22.192  -6.680  -1.455  0.00  0.00     0.000 Se
HETATM   12  H           1     -22.462  -8.086  -1.796  0.00  0.00     0.000 HD
ENDBRANCH  10  11
ENDBRANCH   5  10
ENDBRANCH   2   5
BRANCH   3  13
HETATM   13  C           1     -21.247  -5.106  -7.366  0.00  0.00     0.185 C 
BRANCH  13  14
HETATM   14  C           1     -22.171  -4.038  -7.935  0.00  0.00     0.040 C 
BRANCH  14  15
HETATM   15  C           1     -22.689  -4.486  -9.296  0.00  0.00    -0.020 C 
HETATM   16  C           1     -21.894  -3.792 -10.394  0.00  0.00     0.009 C 
HETATM   17  C           1     -24.161  -4.117  -9.424  0.00  0.00     0.009 C 
ENDBRANCH  14  15
ENDBRANCH  13  14
BRANCH  13  18
HETATM   18  C           1     -19.845  -4.557  -7.264  0.00  0.00     0.196 C 
HETATM   19  O           1     -19.264  -4.531  -6.157  0.00  0.00    -0.646 OA
HETATM   20  O           1     -19.265  -4.128  -8.284  0.00  0.00    -0.646 OA
ENDBRANCH  13  18
ENDBRANCH   3  13
TORSDOF 8
ENDMDL
MODEL 7
REMARK VINA RESULT:      -4.8      1.805      2.299
REMARK  8 active torsions:
REMARK  status: ('A' for Active; 'I' for Inactive)
REMARK    1  A    between atoms: C_1  and  C_2 
REMARK    2  A    between atoms: C_1  and  C_13 
REMARK    3  A    between atoms: C_1  and  N_10 
REMARK    4  A    between atoms: C_2  and  C_15 
REMARK    5  A    between atoms: N_5  and  C_8 
REMARK    6  A    between atoms: Se_6  and  C_7 
REMARK    7  A    between atoms: C_7  and  C_8 
REMARK    8  A    between atoms: C_8  and  C_9 
REMARK       I    between atoms: C_9  and  N_10 
ROOT
HETATM    1  O           1     -36.682  -1.088 -13.269  0.00  0.00    -0.271 OA
HETATM    2  C           1     -35.603  -1.075 -13.813  0.00  0.00     0.249 C 
HETATM    3  N           1     -34.562  -1.790 -13.286  0.00  0.00    -0.345 N 
HETATM    4  H           1     -33.658  -1.780 -13.742  0.00  0.00     0.163 HD
ENDROOT
BRANCH   2   5
HETATM    5  C           1     -35.404  -0.270 -15.074  0.00  0.00     0.274 C 
BRANCH   5   6
HETATM    6  N           1     -35.120  -1.198 -16.218  0.00  0.00    -0.067 N 
HETATM    7  H           1     -34.767  -2.110 -15.847  0.00  0.00     0.275 HD
HETATM    8  H           1     -35.998  -1.360 -16.760  0.00  0.00     0.275 HD
HETATM    9  H           1     -34.397  -0.773 -16.840  0.00  0.00     0.275 HD
ENDBRANCH   5   6
BRANCH   5  10
HETATM   10  C           1     -36.666   0.530 -15.370  0.00  0.00     0.045 C 
BRANCH  10  11
HETATM   11 Se           1     -36.177   2.277 -16.083  0.00  0.00     0.000 Se
HETATM   12  H           1     -37.092   3.020 -15.201  0.00  0.00     0.000 HD
ENDBRANCH  10  11
ENDBRANCH   5  10
ENDBRANCH   2   5
BRANCH   3  13
HETATM   13  C           1     -34.753  -2.564 -12.074  0.00  0.00     0.185 C 
BRANCH  13  14
HETATM   14  C           1     -33.859  -3.796 -12.112  0.00  0.00     0.040 C 
BRANCH  14  15
HETATM   15  C           1     -34.659  -5.018 -11.681  0.00  0.00    -0.020 C 
HETATM   16  C           1     -35.770  -4.588 -10.732  0.00  0.00     0.009 C 
HETATM   17  C           1     -33.738  -6.003 -10.972  0.00  0.00     0.009 C 
ENDBRANCH  14  15
ENDBRANCH  13  14
BRANCH  13  18
HETATM   18  C           1     -34.394  -1.718 -10.877  0.00  0.00     0.196 C 
HETATM   19  O           1     -35.286  -1.088 -10.267  0.00  0.00    -0.646 OA
HETATM   20  O           1     -33.206  -1.645 -10.496  0.00  0.00    -0.646 OA
ENDBRANCH  13  18
ENDBRANCH   3  13
TORSDOF 8
ENDMDL
MODEL 8
REMARK VINA RESULT:      -4.8     10.950     12.582
REMARK  8 active torsions:
REMARK  status: ('A' for Active; 'I' for Inactive)
REMARK    1  A    between atoms: C_1  and  C_2 
REMARK    2  A    between atoms: C_1  and  C_13 
REMARK    3  A    between atoms: C_1  and  N_10 
REMARK    4  A    between atoms: C_2  and  C_15 
REMARK    5  A    between atoms: N_5  and  C_8 
REMARK    6  A    between atoms: Se_6  and  C_7 
REMARK    7  A    between atoms: C_7  and  C_8 
REMARK    8  A    between atoms: C_8  and  C_9 
REMARK       I    between atoms: C_9  and  N_10 
ROOT
HETATM    1  O           1     -28.530  -6.766 -18.668  0.00  0.00    -0.271 OA
HETATM    2  C           1     -27.981  -5.892 -18.042  0.00  0.00     0.249 C 
HETATM    3  N           1     -26.617  -5.887 -17.925  0.00  0.00    -0.345 N 
HETATM    4  H           1     -26.156  -5.154 -17.400  0.00  0.00     0.163 HD
ENDROOT
BRANCH   2   5
HETATM    5  C           1     -28.797  -4.804 -17.388  0.00  0.00     0.274 C 
BRANCH   5   6
HETATM    6  N           1     -29.532  -4.031 -18.443  0.00  0.00    -0.067 N 
HETATM    7  H           1     -30.553  -4.253 -18.390  0.00  0.00     0.275 HD
HETATM    8  H           1     -29.391  -3.008 -18.286  0.00  0.00     0.275 HD
HETATM    9  H           1     -29.168  -4.294 -19.385  0.00  0.00     0.275 HD
ENDBRANCH   5   6
BRANCH   5  10
HETATM   10  C           1     -29.800  -5.430 -16.427  0.00  0.00     0.045 C 
BRANCH  10  11
HETATM   11 Se           1     -31.576  -4.710 -16.778  0.00  0.00     0.000 Se
HETATM   12  H           1     -31.099  -3.679 -17.714  0.00  0.00     0.000 HD
ENDBRANCH  10  11
ENDBRANCH   5  10
ENDBRANCH   2   5
BRANCH   3  13
HETATM   13  C           1     -25.831  -6.932 -18.553  0.00  0.00     0.185 C 
BRANCH  13  14
HETATM   14  C           1     -25.610  -6.590 -20.020  0.00  0.00     0.040 C 
BRANCH  14  15
HETATM   15  C           1     -25.427  -7.873 -20.819  0.00  0.00    -0.020 C 
HETATM   16  C           1     -24.516  -7.603 -22.010  0.00  0.00     0.009 C 
HETATM   17  C           1     -26.782  -8.359 -21.317  0.00  0.00     0.009 C 
ENDBRANCH  14  15
ENDBRANCH  13  14
BRANCH  13  18
HETATM   18  C           1     -24.498  -7.044 -17.855  0.00  0.00     0.196 C 
HETATM   19  O           1     -24.441  -7.461 -16.678  0.00  0.00    -0.646 OA
HETATM   20  O           1     -23.449  -6.719 -18.454  0.00  0.00    -0.646 OA
ENDBRANCH  13  18
ENDBRANCH   3  13
TORSDOF 8
ENDMDL
MODEL 9
REMARK VINA RESULT:      -4.8     17.847     19.081
REMARK  8 active torsions:
REMARK  status: ('A' for Active; 'I' for Inactive)
REMARK    1  A    between atoms: C_1  and  C_2 
REMARK    2  A    between atoms: C_1  and  C_13 
REMARK    3  A    between atoms: C_1  and  N_10 
REMARK    4  A    between atoms: C_2  and  C_15 
REMARK    5  A    between atoms: N_5  and  C_8 
REMARK    6  A    between atoms: Se_6  and  C_7 
REMARK    7  A    between atoms: C_7  and  C_8 
REMARK    8  A    between atoms: C_8  and  C_9 
REMARK       I    between atoms: C_9  and  N_10 
ROOT
HETATM    1  O           1     -22.095 -10.211  -3.666  0.00  0.00    -0.271 OA
HETATM    2  C           1     -21.032  -9.674  -3.869  0.00  0.00     0.249 C 
HETATM    3  N           1     -20.718  -8.510  -3.221  0.00  0.00    -0.345 N 
HETATM    4  H           1     -19.828  -8.059  -3.392  0.00  0.00     0.163 HD
ENDROOT
BRANCH   2   5
HETATM    5  C           1     -20.050 -10.286  -4.838  0.00  0.00     0.274 C 
BRANCH   5   6
HETATM    6  N           1     -20.744 -10.576  -6.135  0.00  0.00    -0.067 N 
HETATM    7  H           1     -21.155  -9.693  -6.516  0.00  0.00     0.275 HD
HETATM    8  H           1     -20.056 -10.963  -6.819  0.00  0.00     0.275 HD
HETATM    9  H           1     -21.506 -11.273  -5.975  0.00  0.00     0.275 HD
ENDBRANCH   5   6
BRANCH   5  10
HETATM   10  C           1     -18.904  -9.312  -5.082  0.00  0.00     0.045 C 
BRANCH  10  11
HETATM   11 Se           1     -17.325  -9.907  -4.108  0.00  0.00     0.000 Se
HETATM   12  H           1     -18.088 -10.665  -3.103  0.00  0.00     0.000 HD
ENDBRANCH  10  11
ENDBRANCH   5  10
ENDBRANCH   2   5
BRANCH   3  13
HETATM   13  C           1     -21.661  -7.921  -2.290  0.00  0.00     0.185 C 
BRANCH  13  14
HETATM   14  C           1     -21.038  -7.865  -0.902  0.00  0.00     0.040 C 
BRANCH  14  15
HETATM   15  C           1     -21.827  -8.757   0.046  0.00  0.00    -0.020 C 
HETATM   16  C           1     -23.138  -8.072   0.413  0.00  0.00     0.009 C 
HETATM   17  C           1     -21.011  -9.002   1.309  0.00  0.00     0.009 C 
ENDBRANCH  14  15
ENDBRANCH  13  14
BRANCH  13  18
HETATM   18  C           1     -22.007  -6.524  -2.744  0.00  0.00     0.196 C 
HETATM   19  O           1     -22.108  -5.601  -1.905  0.00  0.00    -0.646 OA
HETATM   20  O           1     -22.194  -6.288  -3.957  0.00  0.00    -0.646 OA
ENDBRANCH  13  18
ENDBRANCH   3  13
TORSDOF 8
ENDMDL
