MODEL 1
REMARK VINA RESULT:      -6.9      0.000      0.000
REMARK  11 active torsions:
REMARK  status: ('A' for Active; 'I' for Inactive)
REMARK    1  A    between atoms: N_1  and  C_20 
REMARK    2  A    between atoms: C_2  and  C_3 
REMARK    3  A    between atoms: C_3  and  C_5 
REMARK    4  A    between atoms: C_3  and  N_17 
REMARK    5  A    between atoms: C_5  and  C_10 
REMARK       I    between atoms: C_7  and  N_17 
REMARK    6  A    between atoms: C_7  and  C_8 
REMARK    7  A    between atoms: C_8  and  C_22 
REMARK    8  A    between atoms: C_8  and  N_11 
REMARK    9  A    between atoms: C_9  and  O_14 
REMARK   10  A    between atoms: C_20  and  C_21 
REMARK   11  A    between atoms: C_21  and  C_22 
ROOT
HETATM    1  C           1     -21.309  -6.224  -4.443  0.00  0.00     0.249 C 
HETATM    2  O           1     -21.585  -7.270  -4.978  0.00  0.00    -0.271 OA
HETATM    3  N           1     -21.021  -5.121  -5.203  0.00  0.00    -0.344 N 
HETATM    4  H           1     -20.790  -4.244  -4.755  0.00  0.00     0.163 HD
ENDROOT
BRANCH   3   5
HETATM    5  C           1     -21.049  -5.212  -6.650  0.00  0.00     0.189 C 
BRANCH   5   6
HETATM    6  C           1     -19.662  -5.514  -7.161  0.00  0.00     0.197 C 
HETATM    7  O           1     -19.330  -6.692  -7.408  0.00  0.00    -0.646 OA
HETATM    8  O           1     -18.845  -4.584  -7.337  0.00  0.00    -0.646 OA
ENDBRANCH   5   6
BRANCH   5   9
HETATM    9  C           1     -21.529  -3.888  -7.231  0.00  0.00     0.074 C 
BRANCH   9  10
HETATM   10  C           1     -22.089  -4.117  -8.601  0.00  0.00    -0.056 A 
HETATM   11  C           1     -23.450  -4.379  -8.763  0.00  0.00     0.010 A 
HETATM   12  C           1     -23.971  -4.592 -10.039  0.00  0.00     0.037 A 
HETATM   13  C           1     -23.132  -4.545 -11.152  0.00  0.00     0.065 A 
HETATM   14  C           1     -21.771  -4.284 -10.991  0.00  0.00     0.037 A 
HETATM   15  C           1     -21.250  -4.070  -9.714  0.00  0.00     0.010 A 
BRANCH  13  16
HETATM   16  O           1     -23.639  -4.752 -12.392  0.00  0.00    -0.361 OA
HETATM   17  H           1     -22.933  -5.124 -12.947  0.00  0.00     0.217 HD
ENDBRANCH  13  16
ENDBRANCH   9  10
ENDBRANCH   5   9
ENDBRANCH   3   5
BRANCH   1  18
HETATM   18  C           1     -21.280  -6.129  -2.937  0.00  0.00     0.274 C 
BRANCH  18  19
HETATM   19  C           1     -20.729  -7.426  -2.358  0.00  0.00     0.044 C 
BRANCH  19  20
HETATM   20  C           1     -21.763  -8.047  -1.429  0.00  0.00     0.030 C 
BRANCH  20  21
HETATM   21  C           1     -21.881  -9.537  -1.721  0.00  0.00     0.230 C 
BRANCH  21  22
HETATM   22  N           1     -21.847  -9.761  -3.203  0.00  0.00    -0.079 N 
HETATM   23  H           1     -22.766 -10.142  -3.520  0.00  0.00     0.274 HD
HETATM   24  H           1     -21.089 -10.442  -3.436  0.00  0.00     0.274 HD
HETATM   25  H           1     -21.661  -8.854  -3.689  0.00  0.00     0.274 HD
ENDBRANCH  21  22
ENDBRANCH  20  21
ENDBRANCH  19  20
ENDBRANCH  18  19
BRANCH  18  26
HETATM   26  N           1     -22.671  -5.905  -2.424  0.00  0.00    -0.067 N 
HETATM   27  H           1     -23.280  -5.562  -3.201  0.00  0.00     0.275 HD
HETATM   28  H           1     -23.055  -6.804  -2.054  0.00  0.00     0.275 HD
HETATM   29  H           1     -22.650  -5.193  -1.658  0.00  0.00     0.275 HD
ENDBRANCH  18  26
ENDBRANCH   1  18
TORSDOF 11
ENDMDL
MODEL 2
REMARK VINA RESULT:      -6.8      1.259      1.996
REMARK  11 active torsions:
REMARK  status: ('A' for Active; 'I' for Inactive)
REMARK    1  A    between atoms: N_1  and  C_20 
REMARK    2  A    between atoms: C_2  and  C_3 
REMARK    3  A    between atoms: C_3  and  C_5 
REMARK    4  A    between atoms: C_3  and  N_17 
REMARK    5  A    between atoms: C_5  and  C_10 
REMARK       I    between atoms: C_7  and  N_17 
REMARK    6  A    between atoms: C_7  and  C_8 
REMARK    7  A    between atoms: C_8  and  C_22 
REMARK    8  A    between atoms: C_8  and  N_11 
REMARK    9  A    between atoms: C_9  and  O_14 
REMARK   10  A    between atoms: C_20  and  C_21 
REMARK   11  A    between atoms: C_21  and  C_22 
ROOT
HETATM    1  C           1     -21.529  -6.869  -5.543  0.00  0.00     0.249 C 
HETATM    2  O           1     -21.031  -7.634  -6.333  0.00  0.00    -0.271 OA
HETATM    3  N           1     -21.564  -5.528  -5.818  0.00  0.00    -0.344 N 
HETATM    4  H           1     -21.983  -4.886  -5.157  0.00  0.00     0.163 HD
ENDROOT
BRANCH   3   5
HETATM    5  C           1     -21.002  -5.028  -7.058  0.00  0.00     0.189 C 
BRANCH   5   6
HETATM    6  C           1     -19.581  -4.580  -6.821  0.00  0.00     0.197 C 
HETATM    7  O           1     -18.831  -4.341  -7.791  0.00  0.00    -0.646 OA
HETATM    8  O           1     -19.153  -4.450  -5.654  0.00  0.00    -0.646 OA
ENDBRANCH   5   6
BRANCH   5   9
HETATM    9  C           1     -21.832  -3.849  -7.551  0.00  0.00     0.074 C 
BRANCH   9  10
HETATM   10  C           1     -22.324  -4.129  -8.937  0.00  0.00    -0.056 A 
HETATM   11  C           1     -21.425  -4.156 -10.004  0.00  0.00     0.010 A 
HETATM   12  C           1     -21.884  -4.417 -11.295  0.00  0.00     0.037 A 
HETATM   13  C           1     -23.241  -4.649 -11.519  0.00  0.00     0.065 A 
HETATM   14  C           1     -24.140  -4.622 -10.453  0.00  0.00     0.037 A 
HETATM   15  C           1     -23.680  -4.361  -9.161  0.00  0.00     0.010 A 
BRANCH  13  16
HETATM   16  O           1     -23.687  -4.902 -12.774  0.00  0.00    -0.361 OA
HETATM   17  H           1     -24.505  -5.422 -12.702  0.00  0.00     0.217 HD
ENDBRANCH  13  16
ENDBRANCH   9  10
ENDBRANCH   5   9
ENDBRANCH   3   5
BRANCH   1  18
HETATM   18  C           1     -22.114  -7.389  -4.253  0.00  0.00     0.274 C 
BRANCH  18  19
HETATM   19  C           1     -21.733  -6.457  -3.110  0.00  0.00     0.044 C 
BRANCH  19  20
HETATM   20  C           1     -21.397  -7.280  -1.874  0.00  0.00     0.030 C 
BRANCH  20  21
HETATM   21  C           1     -22.425  -7.004  -0.785  0.00  0.00     0.230 C 
BRANCH  21  22
HETATM   22  N           1     -22.064  -7.773   0.451  0.00  0.00    -0.079 N 
HETATM   23  H           1     -22.914  -7.897   1.047  0.00  0.00     0.274 HD
HETATM   24  H           1     -21.337  -7.248   0.988  0.00  0.00     0.274 HD
HETATM   25  H           1     -21.689  -8.710   0.182  0.00  0.00     0.274 HD
ENDBRANCH  21  22
ENDBRANCH  20  21
ENDBRANCH  19  20
ENDBRANCH  18  19
BRANCH  18  26
HETATM   26  N           1     -21.575  -8.762  -3.978  0.00  0.00    -0.067 N 
HETATM   27  H           1     -22.098  -9.463  -4.549  0.00  0.00     0.275 HD
HETATM   28  H           1     -20.562  -8.795  -4.230  0.00  0.00     0.275 HD
HETATM   29  H           1     -21.689  -8.984  -2.963  0.00  0.00     0.275 HD
ENDBRANCH  18  26
ENDBRANCH   1  18
TORSDOF 11
ENDMDL
MODEL 3
REMARK VINA RESULT:      -6.6     11.625     14.496
REMARK  11 active torsions:
REMARK  status: ('A' for Active; 'I' for Inactive)
REMARK    1  A    between atoms: N_1  and  C_20 
REMARK    2  A    between atoms: C_2  and  C_3 
REMARK    3  A    between atoms: C_3  and  C_5 
REMARK    4  A    between atoms: C_3  and  N_17 
REMARK    5  A    between atoms: C_5  and  C_10 
REMARK       I    between atoms: C_7  and  N_17 
REMARK    6  A    between atoms: C_7  and  C_8 
REMARK    7  A    between atoms: C_8  and  C_22 
REMARK    8  A    between atoms: C_8  and  N_11 
REMARK    9  A    between atoms: C_9  and  O_14 
REMARK   10  A    between atoms: C_20  and  C_21 
REMARK   11  A    between atoms: C_21  and  C_22 
ROOT
HETATM    1  C           1     -26.281  -6.482 -19.828  0.00  0.00     0.249 C 
HETATM    2  O           1     -27.272  -5.844 -20.090  0.00  0.00    -0.271 OA
HETATM    3  N           1     -25.941  -6.713 -18.522  0.00  0.00    -0.344 N 
HETATM    4  H           1     -25.111  -7.248 -18.301  0.00  0.00     0.163 HD
ENDROOT
BRANCH   3   5
HETATM    5  C           1     -26.772  -6.191 -17.454  0.00  0.00     0.189 C 
BRANCH   5   6
HETATM    6  C           1     -26.100  -6.440 -16.126  0.00  0.00     0.197 C 
HETATM    7  O           1     -25.147  -5.720 -15.764  0.00  0.00    -0.646 OA
HETATM    8  O           1     -26.498  -7.369 -15.389  0.00  0.00    -0.646 OA
ENDBRANCH   5   6
BRANCH   5   9
HETATM    9  C           1     -28.126  -6.889 -17.478  0.00  0.00     0.074 C 
BRANCH   9  10
HETATM   10  C           1     -29.218  -5.865 -17.437  0.00  0.00    -0.056 A 
HETATM   11  C           1     -28.925  -4.524 -17.687  0.00  0.00     0.010 A 
HETATM   12  C           1     -29.942  -3.571 -17.648  0.00  0.00     0.037 A 
HETATM   13  C           1     -31.251  -3.958 -17.359  0.00  0.00     0.065 A 
HETATM   14  C           1     -31.543  -5.299 -17.109  0.00  0.00     0.037 A 
HETATM   15  C           1     -30.526  -6.253 -17.148  0.00  0.00     0.010 A 
BRANCH  13  16
HETATM   16  O           1     -32.240  -3.032 -17.321  0.00  0.00    -0.361 OA
HETATM   17  H           1     -31.855  -2.195 -17.011  0.00  0.00     0.217 HD
ENDBRANCH  13  16
ENDBRANCH   9  10
ENDBRANCH   5   9
ENDBRANCH   3   5
BRANCH   1  18
HETATM   18  C           1     -25.416  -7.025 -20.939  0.00  0.00     0.274 C 
BRANCH  18  19
HETATM   19  C           1     -24.243  -7.792 -20.341  0.00  0.00     0.044 C 
BRANCH  19  20
HETATM   20  C           1     -23.461  -8.473 -21.456  0.00  0.00     0.030 C 
BRANCH  20  21
HETATM   21  C           1     -21.991  -8.557 -21.067  0.00  0.00     0.230 C 
BRANCH  21  22
HETATM   22  N           1     -21.228  -9.268 -22.145  0.00  0.00    -0.079 N 
HETATM   23  H           1     -21.628 -10.223 -22.284  0.00  0.00     0.274 HD
HETATM   24  H           1     -20.224  -9.349 -21.866  0.00  0.00     0.274 HD
HETATM   25  H           1     -21.299  -8.728 -23.037  0.00  0.00     0.274 HD
ENDBRANCH  21  22
ENDBRANCH  20  21
ENDBRANCH  19  20
ENDBRANCH  18  19
BRANCH  18  26
HETATM   26  N           1     -24.898  -5.889 -21.769  0.00  0.00    -0.067 N 
HETATM   27  H           1     -23.981  -5.566 -21.388  0.00  0.00     0.275 HD
HETATM   28  H           1     -24.771  -6.208 -22.756  0.00  0.00     0.275 HD
HETATM   29  H           1     -25.582  -5.098 -21.744  0.00  0.00     0.275 HD
ENDBRANCH  18  26
ENDBRANCH   1  18
TORSDOF 11
ENDMDL
MODEL 4
REMARK VINA RESULT:      -6.3      2.696      7.422
REMARK  11 active torsions:
REMARK  status: ('A' for Active; 'I' for Inactive)
REMARK    1  A    between atoms: N_1  and  C_20 
REMARK    2  A    between atoms: C_2  and  C_3 
REMARK    3  A    between atoms: C_3  and  C_5 
REMARK    4  A    between atoms: C_3  and  N_17 
REMARK    5  A    between atoms: C_5  and  C_10 
REMARK       I    between atoms: C_7  and  N_17 
REMARK    6  A    between atoms: C_7  and  C_8 
REMARK    7  A    between atoms: C_8  and  C_22 
REMARK    8  A    between atoms: C_8  and  N_11 
REMARK    9  A    between atoms: C_9  and  O_14 
REMARK   10  A    between atoms: C_20  and  C_21 
REMARK   11  A    between atoms: C_21  and  C_22 
ROOT
HETATM    1  C           1     -20.361  -5.376  -6.081  0.00  0.00     0.249 C 
HETATM    2  O           1     -20.387  -4.820  -5.010  0.00  0.00    -0.271 OA
HETATM    3  N           1     -20.224  -6.737  -6.142  0.00  0.00    -0.344 N 
HETATM    4  H           1     -20.203  -7.204  -7.040  0.00  0.00     0.163 HD
ENDROOT
BRANCH   3   5
HETATM    5  C           1     -20.109  -7.509  -4.920  0.00  0.00     0.189 C 
BRANCH   5   6
HETATM    6  C           1     -19.084  -8.600  -5.108  0.00  0.00     0.197 C 
HETATM    7  O           1     -18.655  -9.232  -4.120  0.00  0.00    -0.646 OA
HETATM    8  O           1     -18.662  -8.870  -6.254  0.00  0.00    -0.646 OA
ENDBRANCH   5   6
BRANCH   5   9
HETATM    9  C           1     -21.458  -8.132  -4.585  0.00  0.00     0.074 C 
BRANCH   9  10
HETATM   10  C           1     -21.703  -8.032  -3.111  0.00  0.00    -0.056 A 
HETATM   11  C           1     -21.945  -6.788  -2.527  0.00  0.00     0.010 A 
HETATM   12  C           1     -22.174  -6.695  -1.155  0.00  0.00     0.037 A 
HETATM   13  C           1     -22.159  -7.846  -0.366  0.00  0.00     0.065 A 
HETATM   14  C           1     -21.917  -9.089  -0.949  0.00  0.00     0.037 A 
HETATM   15  C           1     -21.689  -9.182  -2.323  0.00  0.00     0.010 A 
BRANCH  13  16
HETATM   16  O           1     -22.381  -7.756   0.968  0.00  0.00    -0.361 OA
HETATM   17  H           1     -22.345  -6.817   1.216  0.00  0.00     0.217 HD
ENDBRANCH  13  16
ENDBRANCH   9  10
ENDBRANCH   5   9
ENDBRANCH   3   5
BRANCH   1  18
HETATM   18  C           1     -20.481  -4.573  -7.353  0.00  0.00     0.274 C 
BRANCH  18  19
HETATM   19  C           1     -21.940  -4.200  -7.583  0.00  0.00     0.044 C 
BRANCH  19  20
HETATM   20  C           1     -22.163  -3.908  -9.060  0.00  0.00     0.030 C 
BRANCH  20  21
HETATM   21  C           1     -23.573  -4.325  -9.454  0.00  0.00     0.230 C 
BRANCH  21  22
HETATM   22  N           1     -24.553  -3.297  -8.971  0.00  0.00    -0.079 N 
HETATM   23  H           1     -24.331  -3.040  -7.983  0.00  0.00     0.274 HD
HETATM   24  H           1     -25.521  -3.688  -9.020  0.00  0.00     0.274 HD
HETATM   25  H           1     -24.490  -2.445  -9.574  0.00  0.00     0.274 HD
ENDBRANCH  21  22
ENDBRANCH  20  21
ENDBRANCH  19  20
ENDBRANCH  18  19
BRANCH  18  26
HETATM   26  N           1     -19.986  -5.390  -8.508  0.00  0.00    -0.067 N 
HETATM   27  H           1     -20.573  -6.249  -8.606  0.00  0.00     0.275 HD
HETATM   28  H           1     -20.048  -4.826  -9.386  0.00  0.00     0.275 HD
HETATM   29  H           1     -18.991  -5.666  -8.340  0.00  0.00     0.275 HD
ENDBRANCH  18  26
ENDBRANCH   1  18
TORSDOF 11
ENDMDL
MODEL 5
REMARK VINA RESULT:      -6.0      3.789      8.679
REMARK  11 active torsions:
REMARK  status: ('A' for Active; 'I' for Inactive)
REMARK    1  A    between atoms: N_1  and  C_20 
REMARK    2  A    between atoms: C_2  and  C_3 
REMARK    3  A    between atoms: C_3  and  C_5 
REMARK    4  A    between atoms: C_3  and  N_17 
REMARK    5  A    between atoms: C_5  and  C_10 
REMARK       I    between atoms: C_7  and  N_17 
REMARK    6  A    between atoms: C_7  and  C_8 
REMARK    7  A    between atoms: C_8  and  C_22 
REMARK    8  A    between atoms: C_8  and  N_11 
REMARK    9  A    between atoms: C_9  and  O_14 
REMARK   10  A    between atoms: C_20  and  C_21 
REMARK   11  A    between atoms: C_21  and  C_22 
ROOT
HETATM    1  C           1     -20.750  -8.436  -3.929  0.00  0.00     0.249 C 
HETATM    2  O           1     -21.778  -8.972  -4.265  0.00  0.00    -0.271 OA
HETATM    3  N           1     -20.588  -8.011  -2.637  0.00  0.00    -0.344 N 
HETATM    4  H           1     -19.726  -7.562  -2.355  0.00  0.00     0.163 HD
ENDROOT
BRANCH   3   5
HETATM    5  C           1     -21.654  -8.206  -1.673  0.00  0.00     0.189 C 
BRANCH   5   6
HETATM    6  C           1     -22.309  -6.880  -1.373  0.00  0.00     0.197 C 
HETATM    7  O           1     -22.278  -5.962  -2.220  0.00  0.00    -0.646 OA
HETATM    8  O           1     -22.882  -6.701  -0.277  0.00  0.00    -0.646 OA
ENDBRANCH   5   6
BRANCH   5   9
HETATM    9  C           1     -21.076  -8.790  -0.390  0.00  0.00     0.074 C 
BRANCH   9  10
HETATM   10  C           1     -21.757 -10.087  -0.080  0.00  0.00    -0.056 A 
HETATM   11  C           1     -23.105 -10.258  -0.391  0.00  0.00     0.010 A 
HETATM   12  C           1     -23.739 -11.466  -0.102  0.00  0.00     0.037 A 
HETATM   13  C           1     -23.025 -12.502   0.500  0.00  0.00     0.065 A 
HETATM   14  C           1     -21.676 -12.331   0.812  0.00  0.00     0.037 A 
HETATM   15  C           1     -21.042 -11.122   0.522  0.00  0.00     0.010 A 
BRANCH  13  16
HETATM   16  O           1     -23.640 -13.676   0.781  0.00  0.00    -0.361 OA
HETATM   17  H           1     -22.955 -14.358   0.883  0.00  0.00     0.217 HD
ENDBRANCH  13  16
ENDBRANCH   9  10
ENDBRANCH   5   9
ENDBRANCH   3   5
BRANCH   1  18
HETATM   18  C           1     -19.641  -8.233  -4.933  0.00  0.00     0.274 C 
BRANCH  18  19
HETATM   19  C           1     -20.115  -7.287  -6.029  0.00  0.00     0.044 C 
BRANCH  19  20
HETATM   20  C           1     -20.510  -5.953  -5.412  0.00  0.00     0.030 C 
BRANCH  20  21
HETATM   21  C           1     -21.869  -5.526  -5.950  0.00  0.00     0.230 C 
BRANCH  21  22
HETATM   22  N           1     -22.953  -6.124  -5.105  0.00  0.00    -0.079 N 
HETATM   23  H           1     -22.748  -5.949  -4.096  0.00  0.00     0.274 HD
HETATM   24  H           1     -23.000  -7.155  -5.276  0.00  0.00     0.274 HD
HETATM   25  H           1     -23.870  -5.688  -5.354  0.00  0.00     0.274 HD
ENDBRANCH  21  22
ENDBRANCH  20  21
ENDBRANCH  19  20
ENDBRANCH  18  19
BRANCH  18  26
HETATM   26  N           1     -19.269  -9.553  -5.540  0.00  0.00    -0.067 N 
HETATM   27  H           1     -18.246  -9.565  -5.752  0.00  0.00     0.275 HD
HETATM   28  H           1     -19.493 -10.321  -4.867  0.00  0.00     0.275 HD
HETATM   29  H           1     -19.810  -9.695  -6.423  0.00  0.00     0.275 HD
ENDBRANCH  18  26
ENDBRANCH   1  18
TORSDOF 11
ENDMDL
MODEL 6
REMARK VINA RESULT:      -5.9      2.604      7.583
REMARK  11 active torsions:
REMARK  status: ('A' for Active; 'I' for Inactive)
REMARK    1  A    between atoms: N_1  and  C_20 
REMARK    2  A    between atoms: C_2  and  C_3 
REMARK    3  A    between atoms: C_3  and  C_5 
REMARK    4  A    between atoms: C_3  and  N_17 
REMARK    5  A    between atoms: C_5  and  C_10 
REMARK       I    between atoms: C_7  and  N_17 
REMARK    6  A    between atoms: C_7  and  C_8 
REMARK    7  A    between atoms: C_8  and  C_22 
REMARK    8  A    between atoms: C_8  and  N_11 
REMARK    9  A    between atoms: C_9  and  O_14 
REMARK   10  A    between atoms: C_20  and  C_21 
REMARK   11  A    between atoms: C_21  and  C_22 
ROOT
HETATM    1  C           1     -20.467  -7.219  -5.593  0.00  0.00     0.249 C 
HETATM    2  O           1     -19.477  -7.471  -6.237  0.00  0.00    -0.271 OA
HETATM    3  N           1     -20.758  -7.947  -4.471  0.00  0.00    -0.344 N 
HETATM    4  H           1     -21.587  -7.736  -3.931  0.00  0.00     0.163 HD
ENDROOT
BRANCH   3   5
HETATM    5  C           1     -19.877  -9.022  -4.056  0.00  0.00     0.189 C 
BRANCH   5   6
HETATM    6  C           1     -20.626 -10.331  -4.096  0.00  0.00     0.197 C 
HETATM    7  O           1     -20.053 -11.389  -3.763  0.00  0.00    -0.646 OA
HETATM    8  O           1     -21.821 -10.356  -4.463  0.00  0.00    -0.646 OA
ENDBRANCH   5   6
BRANCH   5   9
HETATM    9  C           1     -19.388  -8.758  -2.638  0.00  0.00     0.074 C 
BRANCH   9  10
HETATM   10  C           1     -20.559  -8.456  -1.754  0.00  0.00    -0.056 A 
HETATM   11  C           1     -21.193  -7.217  -1.835  0.00  0.00     0.010 A 
HETATM   12  C           1     -22.284  -6.937  -1.012  0.00  0.00     0.037 A 
HETATM   13  C           1     -22.739  -7.896  -0.107  0.00  0.00     0.065 A 
HETATM   14  C           1     -22.105  -9.135  -0.026  0.00  0.00     0.037 A 
HETATM   15  C           1     -21.014  -9.415  -0.850  0.00  0.00     0.010 A 
BRANCH  13  16
HETATM   16  O           1     -23.798  -7.624   0.693  0.00  0.00    -0.361 OA
HETATM   17  H           1     -24.565  -7.440   0.125  0.00  0.00     0.217 HD
ENDBRANCH  13  16
ENDBRANCH   9  10
ENDBRANCH   5   9
ENDBRANCH   3   5
BRANCH   1  18
HETATM   18  C           1     -21.384  -6.101  -6.025  0.00  0.00     0.274 C 
BRANCH  18  19
HETATM   19  C           1     -20.615  -4.786  -6.028  0.00  0.00     0.044 C 
BRANCH  19  20
HETATM   20  C           1     -21.304  -3.797  -6.957  0.00  0.00     0.030 C 
BRANCH  20  21
HETATM   21  C           1     -22.026  -4.555  -8.063  0.00  0.00     0.230 C 
BRANCH  21  22
HETATM   22  N           1     -23.301  -3.845  -8.407  0.00  0.00    -0.079 N 
HETATM   23  H           1     -23.281  -2.878  -8.013  0.00  0.00     0.274 HD
HETATM   24  H           1     -24.112  -4.368  -8.003  0.00  0.00     0.274 HD
HETATM   25  H           1     -23.403  -3.795  -9.447  0.00  0.00     0.274 HD
ENDBRANCH  21  22
ENDBRANCH  20  21
ENDBRANCH  19  20
ENDBRANCH  18  19
BRANCH  18  26
HETATM   26  N           1     -22.537  -6.004  -5.071  0.00  0.00    -0.067 N 
HETATM   27  H           1     -22.177  -5.834  -4.105  0.00  0.00     0.275 HD
HETATM   28  H           1     -23.158  -5.213  -5.354  0.00  0.00     0.275 HD
HETATM   29  H           1     -23.080  -6.897  -5.088  0.00  0.00     0.275 HD
ENDBRANCH  18  26
ENDBRANCH   1  18
TORSDOF 11
ENDMDL
MODEL 7
REMARK VINA RESULT:      -5.8      2.205      3.373
REMARK  11 active torsions:
REMARK  status: ('A' for Active; 'I' for Inactive)
REMARK    1  A    between atoms: N_1  and  C_20 
REMARK    2  A    between atoms: C_2  and  C_3 
REMARK    3  A    between atoms: C_3  and  C_5 
REMARK    4  A    between atoms: C_3  and  N_17 
REMARK    5  A    between atoms: C_5  and  C_10 
REMARK       I    between atoms: C_7  and  N_17 
REMARK    6  A    between atoms: C_7  and  C_8 
REMARK    7  A    between atoms: C_8  and  C_22 
REMARK    8  A    between atoms: C_8  and  N_11 
REMARK    9  A    between atoms: C_9  and  O_14 
REMARK   10  A    between atoms: C_20  and  C_21 
REMARK   11  A    between atoms: C_21  and  C_22 
ROOT
HETATM    1  C           1     -21.986  -6.800  -1.973  0.00  0.00     0.249 C 
HETATM    2  O           1     -22.782  -5.946  -2.282  0.00  0.00    -0.271 OA
HETATM    3  N           1     -21.183  -7.366  -2.927  0.00  0.00    -0.344 N 
HETATM    4  H           1     -20.516  -8.081  -2.668  0.00  0.00     0.163 HD
ENDROOT
BRANCH   3   5
HETATM    5  C           1     -21.289  -6.938  -4.309  0.00  0.00     0.189 C 
BRANCH   5   6
HETATM    6  C           1     -20.639  -7.964  -5.203  0.00  0.00     0.197 C 
HETATM    7  O           1     -21.300  -8.512  -6.110  0.00  0.00    -0.646 OA
HETATM    8  O           1     -19.437  -8.266  -5.037  0.00  0.00    -0.646 OA
ENDBRANCH   5   6
BRANCH   5   9
HETATM    9  C           1     -20.589  -5.597  -4.479  0.00  0.00     0.074 C 
BRANCH   9  10
HETATM   10  C           1     -20.741  -5.129  -5.893  0.00  0.00    -0.056 A 
HETATM   11  C           1     -19.611  -4.813  -6.648  0.00  0.00     0.010 A 
HETATM   12  C           1     -19.753  -4.377  -7.965  0.00  0.00     0.037 A 
HETATM   13  C           1     -21.024  -4.257  -8.527  0.00  0.00     0.065 A 
HETATM   14  C           1     -22.154  -4.573  -7.773  0.00  0.00     0.037 A 
HETATM   15  C           1     -22.012  -5.009  -6.455  0.00  0.00     0.010 A 
BRANCH  13  16
HETATM   16  O           1     -21.162  -3.834  -9.807  0.00  0.00    -0.361 OA
HETATM   17  H           1     -20.753  -2.955  -9.879  0.00  0.00     0.217 HD
ENDBRANCH  13  16
ENDBRANCH   9  10
ENDBRANCH   5   9
ENDBRANCH   3   5
BRANCH   1  18
HETATM   18  C           1     -21.876  -7.245  -0.535  0.00  0.00     0.274 C 
BRANCH  18  19
HETATM   19  C           1     -20.838  -8.355  -0.424  0.00  0.00     0.044 C 
BRANCH  19  20
HETATM   20  C           1     -21.355  -9.443   0.506  0.00  0.00     0.030 C 
BRANCH  20  21
HETATM   21  C           1     -21.026 -10.810  -0.078  0.00  0.00     0.230 C 
BRANCH  21  22
HETATM   22  N           1     -21.540 -11.882   0.836  0.00  0.00    -0.079 N 
HETATM   23  H           1     -20.940 -11.931   1.690  0.00  0.00     0.274 HD
HETATM   24  H           1     -21.516 -12.803   0.342  0.00  0.00     0.274 HD
HETATM   25  H           1     -22.523 -11.662   1.115  0.00  0.00     0.274 HD
ENDBRANCH  21  22
ENDBRANCH  20  21
ENDBRANCH  19  20
ENDBRANCH  18  19
BRANCH  18  26
HETATM   26  N           1     -23.206  -7.757  -0.067  0.00  0.00    -0.067 N 
HETATM   27  H           1     -23.967  -7.145  -0.438  0.00  0.00     0.275 HD
HETATM   28  H           1     -23.345  -8.733  -0.414  0.00  0.00     0.275 HD
HETATM   29  H           1     -23.233  -7.752   0.978  0.00  0.00     0.275 HD
ENDBRANCH  18  26
ENDBRANCH   1  18
TORSDOF 11
ENDMDL
MODEL 8
REMARK VINA RESULT:      -5.7      3.579      7.671
REMARK  11 active torsions:
REMARK  status: ('A' for Active; 'I' for Inactive)
REMARK    1  A    between atoms: N_1  and  C_20 
REMARK    2  A    between atoms: C_2  and  C_3 
REMARK    3  A    between atoms: C_3  and  C_5 
REMARK    4  A    between atoms: C_3  and  N_17 
REMARK    5  A    between atoms: C_5  and  C_10 
REMARK       I    between atoms: C_7  and  N_17 
REMARK    6  A    between atoms: C_7  and  C_8 
REMARK    7  A    between atoms: C_8  and  C_22 
REMARK    8  A    between atoms: C_8  and  N_11 
REMARK    9  A    between atoms: C_9  and  O_14 
REMARK   10  A    between atoms: C_20  and  C_21 
REMARK   11  A    between atoms: C_21  and  C_22 
ROOT
HETATM    1  C           1     -20.807  -6.876  -5.233  0.00  0.00     0.249 C 
HETATM    2  O           1     -20.599  -7.600  -6.177  0.00  0.00    -0.271 OA
HETATM    3  N           1     -20.742  -7.375  -3.960  0.00  0.00    -0.344 N 
HETATM    4  H           1     -20.917  -6.769  -3.168  0.00  0.00     0.163 HD
ENDROOT
BRANCH   3   5
HETATM    5  C           1     -20.423  -8.774  -3.745  0.00  0.00     0.189 C 
BRANCH   5   6
HETATM    6  C           1     -21.628  -9.484  -3.180  0.00  0.00     0.197 C 
HETATM    7  O           1     -22.302 -10.246  -3.906  0.00  0.00    -0.646 OA
HETATM    8  O           1     -21.954  -9.308  -1.986  0.00  0.00    -0.646 OA
ENDBRANCH   5   6
BRANCH   5   9
HETATM    9  C           1     -19.262  -8.884  -2.766  0.00  0.00     0.074 C 
BRANCH   9  10
HETATM   10  C           1     -18.067  -9.452  -3.468  0.00  0.00    -0.056 A 
HETATM   11  C           1     -16.894  -9.703  -2.757  0.00  0.00     0.010 A 
HETATM   12  C           1     -15.782 -10.232  -3.411  0.00  0.00     0.037 A 
HETATM   13  C           1     -15.843 -10.510  -4.776  0.00  0.00     0.065 A 
HETATM   14  C           1     -17.016 -10.260  -5.488  0.00  0.00     0.037 A 
HETATM   15  C           1     -18.129  -9.730  -4.833  0.00  0.00     0.010 A 
BRANCH  13  16
HETATM   16  O           1     -14.762 -11.024  -5.412  0.00  0.00    -0.361 OA
HETATM   17  H           1     -14.848 -11.992  -5.415  0.00  0.00     0.217 HD
ENDBRANCH  13  16
ENDBRANCH   9  10
ENDBRANCH   5   9
ENDBRANCH   3   5
BRANCH   1  18
HETATM   18  C           1     -21.140  -5.421  -5.456  0.00  0.00     0.274 C 
BRANCH  18  19
HETATM   19  C           1     -22.043  -5.288  -6.676  0.00  0.00     0.044 C 
BRANCH  19  20
HETATM   20  C           1     -21.780  -3.953  -7.359  0.00  0.00     0.030 C 
BRANCH  20  21
HETATM   21  C           1     -22.529  -3.903  -8.683  0.00  0.00     0.230 C 
BRANCH  21  22
HETATM   22  N           1     -24.001  -3.778  -8.422  0.00  0.00    -0.079 N 
HETATM   23  H           1     -24.483  -3.445  -9.287  0.00  0.00     0.274 HD
HETATM   24  H           1     -24.162  -3.094  -7.649  0.00  0.00     0.274 HD
HETATM   25  H           1     -24.386  -4.710  -8.148  0.00  0.00     0.274 HD
ENDBRANCH  21  22
ENDBRANCH  20  21
ENDBRANCH  19  20
ENDBRANCH  18  19
BRANCH  18  26
HETATM   26  N           1     -19.875  -4.649  -5.685  0.00  0.00    -0.067 N 
HETATM   27  H           1     -19.767  -3.925  -4.940  0.00  0.00     0.275 HD
HETATM   28  H           1     -19.059  -5.301  -5.655  0.00  0.00     0.275 HD
HETATM   29  H           1     -19.915  -4.183  -6.621  0.00  0.00     0.275 HD
ENDBRANCH  18  26
ENDBRANCH   1  18
TORSDOF 11
ENDMDL
MODEL 9
REMARK VINA RESULT:      -5.6      5.715      8.619
REMARK  11 active torsions:
REMARK  status: ('A' for Active; 'I' for Inactive)
REMARK    1  A    between atoms: N_1  and  C_20 
REMARK    2  A    between atoms: C_2  and  C_3 
REMARK    3  A    between atoms: C_3  and  C_5 
REMARK    4  A    between atoms: C_3  and  N_17 
REMARK    5  A    between atoms: C_5  and  C_10 
REMARK       I    between atoms: C_7  and  N_17 
REMARK    6  A    between atoms: C_7  and  C_8 
REMARK    7  A    between atoms: C_8  and  C_22 
REMARK    8  A    between atoms: C_8  and  N_11 
REMARK    9  A    between atoms: C_9  and  O_14 
REMARK   10  A    between atoms: C_20  and  C_21 
REMARK   11  A    between atoms: C_21  and  C_22 
ROOT
HETATM    1  C           1     -19.999  -9.360  -3.273  0.00  0.00     0.249 C 
HETATM    2  O           1     -20.879 -10.153  -3.506  0.00  0.00    -0.271 OA
HETATM    3  N           1     -20.239  -8.294  -2.448  0.00  0.00    -0.344 N 
HETATM    4  H           1     -19.502  -7.629  -2.251  0.00  0.00     0.163 HD
ENDROOT
BRANCH   3   5
HETATM    5  C           1     -21.551  -8.117  -1.856  0.00  0.00     0.189 C 
BRANCH   5   6
HETATM    6  C           1     -22.020  -6.702  -2.084  0.00  0.00     0.197 C 
HETATM    7  O           1     -22.453  -6.025  -1.127  0.00  0.00    -0.646 OA
HETATM    8  O           1     -21.974  -6.205  -3.230  0.00  0.00    -0.646 OA
ENDBRANCH   5   6
BRANCH   5   9
HETATM    9  C           1     -21.473  -8.393  -0.360  0.00  0.00     0.074 C 
BRANCH   9  10
HETATM   10  C           1     -22.011  -9.761  -0.074  0.00  0.00    -0.056 A 
HETATM   11  C           1     -23.354 -10.047  -0.321  0.00  0.00     0.010 A 
HETATM   12  C           1     -23.855 -11.321  -0.055  0.00  0.00     0.037 A 
HETATM   13  C           1     -23.013 -12.308   0.459  0.00  0.00     0.065 A 
HETATM   14  C           1     -21.670 -12.022   0.706  0.00  0.00     0.037 A 
HETATM   15  C           1     -21.170 -10.747   0.439  0.00  0.00     0.010 A 
BRANCH  13  16
HETATM   16  O           1     -23.500 -13.546   0.718  0.00  0.00    -0.361 OA
HETATM   17  H           1     -23.143 -13.837   1.574  0.00  0.00     0.217 HD
ENDBRANCH  13  16
ENDBRANCH   9  10
ENDBRANCH   5   9
ENDBRANCH   3   5
BRANCH   1  18
HETATM   18  C           1     -18.634  -9.544  -3.889  0.00  0.00     0.274 C 
BRANCH  18  19
HETATM   19  C           1     -18.511 -10.959  -4.439  0.00  0.00     0.044 C 
BRANCH  19  20
HETATM   20  C           1     -18.473 -10.912  -5.960  0.00  0.00     0.030 C 
BRANCH  20  21
HETATM   21  C           1     -19.577 -11.796  -6.524  0.00  0.00     0.230 C 
BRANCH  21  22
HETATM   22  N           1     -20.890 -11.078  -6.434  0.00  0.00    -0.079 N 
HETATM   23  H           1     -20.846 -10.362  -5.675  0.00  0.00     0.274 HD
HETATM   24  H           1     -21.650 -11.764  -6.222  0.00  0.00     0.274 HD
HETATM   25  H           1     -21.092 -10.606  -7.345  0.00  0.00     0.274 HD
ENDBRANCH  21  22
ENDBRANCH  20  21
ENDBRANCH  19  20
ENDBRANCH  18  19
BRANCH  18  26
HETATM   26  N           1     -17.580  -9.320  -2.846  0.00  0.00    -0.067 N 
HETATM   27  H           1     -16.716  -9.848  -3.102  0.00  0.00     0.275 HD
HETATM   28  H           1     -17.360  -8.301  -2.786  0.00  0.00     0.275 HD
HETATM   29  H           1     -17.930  -9.656  -1.919  0.00  0.00     0.275 HD
ENDBRANCH  18  26
ENDBRANCH   1  18
TORSDOF 11
ENDMDL
