MODEL 1
REMARK VINA RESULT:      -7.7      0.000      0.000
REMARK  11 active torsions:
REMARK  status: ('A' for Active; 'I' for Inactive)
REMARK       I    between atoms: C_1  and  N_2 
REMARK    1  A    between atoms: C_1  and  C_26 
REMARK    2  A    between atoms: N_2  and  C_10 
REMARK    3  A    between atoms: O_5  and  C_8 
REMARK    4  A    between atoms: C_6  and  O_13 
REMARK    5  A    between atoms: C_8  and  C_26 
REMARK    6  A    between atoms: C_10  and  C_17 
REMARK    7  A    between atoms: C_10  and  C_18 
REMARK    8  A    between atoms: O_13  and  P_27 
REMARK    9  A    between atoms: C_18  and  C_19 
REMARK   10  A    between atoms: O_21  and  P_27 
REMARK   11  A    between atoms: N_24  and  C_26 
ROOT
HETATM    1  C           1     -36.700  -0.663 -11.195  0.00  0.00     0.189 C 
ENDROOT
BRANCH   1   2
HETATM    2  N           1     -37.032   0.160 -12.342  0.00  0.00    -0.344 N 
HETATM    3  C           1     -36.941  -0.358 -13.605  0.00  0.00     0.251 C 
HETATM    4  O           1     -37.895  -0.906 -14.104  0.00  0.00    -0.271 OA
HETATM    5  H           1     -37.331   1.117 -12.207  0.00  0.00     0.163 HD
BRANCH   3   6
HETATM    6  C           1     -35.647  -0.245 -14.375  0.00  0.00     0.302 C 
BRANCH   6   7
HETATM    7  C           1     -35.930   0.316 -15.763  0.00  0.00     0.153 C 
HETATM    8  C           1     -36.126  -0.834 -16.742  0.00  0.00     0.042 C 
BRANCH   7   9
HETATM    9  O           1     -37.092   1.099 -15.724  0.00  0.00    -0.393 OA
HETATM   10  H           1     -36.978   1.790 -16.353  0.00  0.00     0.210 HD
ENDBRANCH   7   9
ENDBRANCH   6   7
BRANCH   6  11
HETATM   11  N           1     -35.022  -1.602 -14.502  0.00  0.00    -0.064 N 
HETATM   12  H           1     -35.207  -1.982 -15.458  0.00  0.00     0.275 HD
HETATM   13  H           1     -33.990  -1.525 -14.353  0.00  0.00     0.275 HD
HETATM   14  H           1     -35.432  -2.244 -13.787  0.00  0.00     0.275 HD
ENDBRANCH   6  11
ENDBRANCH   3   6
ENDBRANCH   1   2
BRANCH   1  15
HETATM   15  C           1     -37.351  -0.090  -9.960  0.00  0.00     0.197 C 
HETATM   16  O           1     -38.014   0.967 -10.036  0.00  0.00    -0.646 OA
HETATM   17  O           1     -37.227  -0.672  -8.861  0.00  0.00    -0.646 OA
ENDBRANCH   1  15
BRANCH   1  18
HETATM   18  C           1     -35.189  -0.688 -11.009  0.00  0.00     0.074 C 
BRANCH  18  19
HETATM   19  C           1     -34.708  -2.105 -11.015  0.00  0.00    -0.056 A 
HETATM   20  C           1     -35.624  -3.152 -10.915  0.00  0.00     0.010 A 
HETATM   21  C           1     -35.176  -4.474 -10.921  0.00  0.00     0.038 A 
HETATM   22  C           1     -33.813  -4.747 -11.026  0.00  0.00     0.081 A 
HETATM   23  C           1     -32.896  -3.700 -11.125  0.00  0.00     0.038 A 
HETATM   24  C           1     -33.344  -2.378 -11.119  0.00  0.00     0.010 A 
BRANCH  22  25
HETATM   25  O           1     -33.377  -6.031 -11.031  0.00  0.00    -0.247 OA
BRANCH  25  26
HETATM   26  P           1     -34.417  -7.185 -10.591  0.00  0.00     0.411 P 
HETATM   27  O           1     -35.277  -6.684  -9.496  0.00  0.00    -0.624 OA
HETATM   28  O           1     -33.667  -8.373 -10.125  0.00  0.00    -0.624 OA
BRANCH  26  29
HETATM   29  O           1     -35.338  -7.590 -11.855  0.00  0.00    -0.300 OA
HETATM   30  H           1     -34.819  -7.380 -12.612  0.00  0.00     0.223 HD
ENDBRANCH  26  29
ENDBRANCH  25  26
ENDBRANCH  22  25
ENDBRANCH  18  19
ENDBRANCH   1  18
TORSDOF 11
ENDMDL
MODEL 2
REMARK VINA RESULT:      -7.3      1.501      2.188
REMARK  11 active torsions:
REMARK  status: ('A' for Active; 'I' for Inactive)
REMARK       I    between atoms: C_1  and  N_2 
REMARK    1  A    between atoms: C_1  and  C_26 
REMARK    2  A    between atoms: N_2  and  C_10 
REMARK    3  A    between atoms: O_5  and  C_8 
REMARK    4  A    between atoms: C_6  and  O_13 
REMARK    5  A    between atoms: C_8  and  C_26 
REMARK    6  A    between atoms: C_10  and  C_17 
REMARK    7  A    between atoms: C_10  and  C_18 
REMARK    8  A    between atoms: O_13  and  P_27 
REMARK    9  A    between atoms: C_18  and  C_19 
REMARK   10  A    between atoms: O_21  and  P_27 
REMARK   11  A    between atoms: N_24  and  C_26 
ROOT
HETATM    1  C           1     -35.691  -1.395 -12.644  0.00  0.00     0.189 C 
ENDROOT
BRANCH   1   2
HETATM    2  N           1     -35.301  -1.142 -14.018  0.00  0.00    -0.344 N 
HETATM    3  C           1     -35.243   0.143 -14.487  0.00  0.00     0.251 C 
HETATM    4  O           1     -34.216   0.772 -14.398  0.00  0.00    -0.271 OA
HETATM    5  H           1     -35.072  -1.915 -14.628  0.00  0.00     0.163 HD
BRANCH   3   6
HETATM    6  C           1     -36.463   0.771 -15.115  0.00  0.00     0.302 C 
BRANCH   6   7
HETATM    7  C           1     -37.105  -0.219 -16.078  0.00  0.00     0.153 C 
HETATM    8  C           1     -36.016  -1.022 -16.779  0.00  0.00     0.042 C 
BRANCH   7   9
HETATM    9  O           1     -37.941  -1.090 -15.366  0.00  0.00    -0.393 OA
HETATM   10  H           1     -37.467  -1.896 -15.256  0.00  0.00     0.210 HD
ENDBRANCH   7   9
ENDBRANCH   6   7
BRANCH   6  11
HETATM   11  N           1     -36.059   2.005 -15.864  0.00  0.00    -0.064 N 
HETATM   12  H           1     -35.132   1.848 -16.321  0.00  0.00     0.275 HD
HETATM   13  H           1     -36.775   2.218 -16.596  0.00  0.00     0.275 HD
HETATM   14  H           1     -35.987   2.809 -15.200  0.00  0.00     0.275 HD
ENDBRANCH   6  11
ENDBRANCH   3   6
ENDBRANCH   1   2
BRANCH   1  15
HETATM   15  C           1     -36.581  -0.277 -12.161  0.00  0.00     0.197 C 
HETATM   16  O           1     -36.099   0.657 -11.484  0.00  0.00    -0.646 OA
HETATM   17  O           1     -37.800  -0.285 -12.437  0.00  0.00    -0.646 OA
ENDBRANCH   1  15
BRANCH   1  18
HETATM   18  C           1     -34.447  -1.470 -11.768  0.00  0.00     0.074 C 
BRANCH  18  19
HETATM   19  C           1     -34.116  -2.903 -11.492  0.00  0.00    -0.056 A 
HETATM   20  C           1     -32.870  -3.414 -11.857  0.00  0.00     0.010 A 
HETATM   21  C           1     -32.561  -4.750 -11.601  0.00  0.00     0.038 A 
HETATM   22  C           1     -33.498  -5.575 -10.980  0.00  0.00     0.081 A 
HETATM   23  C           1     -34.744  -5.066 -10.616  0.00  0.00     0.038 A 
HETATM   24  C           1     -35.053  -3.729 -10.872  0.00  0.00     0.010 A 
BRANCH  22  25
HETATM   25  O           1     -33.198  -6.873 -10.731  0.00  0.00    -0.247 OA
BRANCH  25  26
HETATM   26  P           1     -34.382  -7.836 -10.200  0.00  0.00     0.411 P 
HETATM   27  O           1     -35.250  -7.083  -9.268  0.00  0.00    -0.624 OA
HETATM   28  O           1     -33.795  -8.998  -9.497  0.00  0.00    -0.624 OA
BRANCH  26  29
HETATM   29  O           1     -35.260  -8.350 -11.455  0.00  0.00    -0.300 OA
HETATM   30  H           1     -35.411  -9.264 -11.288  0.00  0.00     0.223 HD
ENDBRANCH  26  29
ENDBRANCH  25  26
ENDBRANCH  22  25
ENDBRANCH  18  19
ENDBRANCH   1  18
TORSDOF 11
ENDMDL
MODEL 3
REMARK VINA RESULT:      -7.3     13.650     16.136
REMARK  11 active torsions:
REMARK  status: ('A' for Active; 'I' for Inactive)
REMARK       I    between atoms: C_1  and  N_2 
REMARK    1  A    between atoms: C_1  and  C_26 
REMARK    2  A    between atoms: N_2  and  C_10 
REMARK    3  A    between atoms: O_5  and  C_8 
REMARK    4  A    between atoms: C_6  and  O_13 
REMARK    5  A    between atoms: C_8  and  C_26 
REMARK    6  A    between atoms: C_10  and  C_17 
REMARK    7  A    between atoms: C_10  and  C_18 
REMARK    8  A    between atoms: O_13  and  P_27 
REMARK    9  A    between atoms: C_18  and  C_19 
REMARK   10  A    between atoms: O_21  and  P_27 
REMARK   11  A    between atoms: N_24  and  C_26 
ROOT
HETATM    1  C           1     -21.104  -4.745  -6.584  0.00  0.00     0.189 C 
ENDROOT
BRANCH   1   2
HETATM    2  N           1     -21.807  -3.786  -7.415  0.00  0.00    -0.344 N 
HETATM    3  C           1     -22.803  -4.208  -8.254  0.00  0.00     0.251 C 
HETATM    4  O           1     -23.945  -4.249  -7.862  0.00  0.00    -0.271 OA
HETATM    5  H           1     -21.560  -2.806  -7.375  0.00  0.00     0.163 HD
BRANCH   3   6
HETATM    6  C           1     -22.474  -4.623  -9.667  0.00  0.00     0.302 C 
BRANCH   6   7
HETATM    7  C           1     -21.539  -3.595 -10.292  0.00  0.00     0.153 C 
HETATM    8  C           1     -20.333  -4.308 -10.892  0.00  0.00     0.042 C 
BRANCH   7   9
HETATM    9  O           1     -22.216  -2.897 -11.301  0.00  0.00    -0.393 OA
HETATM   10  H           1     -23.011  -2.566 -10.919  0.00  0.00     0.210 HD
ENDBRANCH   7   9
ENDBRANCH   6   7
BRANCH   6  11
HETATM   11  N           1     -23.737  -4.701 -10.471  0.00  0.00    -0.064 N 
HETATM   12  H           1     -23.784  -3.889 -11.127  0.00  0.00     0.275 HD
HETATM   13  H           1     -23.746  -5.592 -11.019  0.00  0.00     0.275 HD
HETATM   14  H           1     -24.562  -4.677  -9.829  0.00  0.00     0.275 HD
ENDBRANCH   6  11
ENDBRANCH   3   6
ENDBRANCH   1   2
BRANCH   1  15
HETATM   15  C           1     -19.832  -5.171  -7.275  0.00  0.00     0.197 C 
HETATM   16  O           1     -19.685  -6.359  -7.636  0.00  0.00    -0.646 OA
HETATM   17  O           1     -18.926  -4.337  -7.487  0.00  0.00    -0.646 OA
ENDBRANCH   1  15
BRANCH   1  18
HETATM   18  C           1     -21.990  -5.962  -6.354  0.00  0.00     0.074 C 
BRANCH  18  19
HETATM   19  C           1     -21.690  -6.551  -5.011  0.00  0.00    -0.056 A 
HETATM   20  C           1     -21.297  -5.723  -3.959  0.00  0.00     0.010 A 
HETATM   21  C           1     -21.016  -6.272  -2.707  0.00  0.00     0.038 A 
HETATM   22  C           1     -21.129  -7.647  -2.508  0.00  0.00     0.081 A 
HETATM   23  C           1     -21.522  -8.475  -3.559  0.00  0.00     0.038 A 
HETATM   24  C           1     -21.803  -7.927  -4.812  0.00  0.00     0.010 A 
BRANCH  22  25
HETATM   25  O           1     -20.857  -8.180  -1.292  0.00  0.00    -0.247 OA
BRANCH  25  26
HETATM   26  P           1     -22.070  -8.316  -0.235  0.00  0.00     0.411 P 
HETATM   27  O           1     -22.974  -7.152  -0.369  0.00  0.00    -0.624 OA
HETATM   28  O           1     -21.524  -8.361   1.140  0.00  0.00    -0.624 OA
BRANCH  26  29
HETATM   29  O           1     -22.894  -9.673  -0.533  0.00  0.00    -0.300 OA
HETATM   30  H           1     -22.996 -10.086   0.307  0.00  0.00     0.223 HD
ENDBRANCH  26  29
ENDBRANCH  25  26
ENDBRANCH  22  25
ENDBRANCH  18  19
ENDBRANCH   1  18
TORSDOF 11
ENDMDL
MODEL 4
REMARK VINA RESULT:      -7.3     13.754     17.215
REMARK  11 active torsions:
REMARK  status: ('A' for Active; 'I' for Inactive)
REMARK       I    between atoms: C_1  and  N_2 
REMARK    1  A    between atoms: C_1  and  C_26 
REMARK    2  A    between atoms: N_2  and  C_10 
REMARK    3  A    between atoms: O_5  and  C_8 
REMARK    4  A    between atoms: C_6  and  O_13 
REMARK    5  A    between atoms: C_8  and  C_26 
REMARK    6  A    between atoms: C_10  and  C_17 
REMARK    7  A    between atoms: C_10  and  C_18 
REMARK    8  A    between atoms: O_13  and  P_27 
REMARK    9  A    between atoms: C_18  and  C_19 
REMARK   10  A    between atoms: O_21  and  P_27 
REMARK   11  A    between atoms: N_24  and  C_26 
ROOT
HETATM    1  C           1     -21.185  -7.723  -5.443  0.00  0.00     0.189 C 
ENDROOT
BRANCH   1   2
HETATM    2  N           1     -22.188  -7.624  -4.401  0.00  0.00    -0.344 N 
HETATM    3  C           1     -21.836  -7.187  -3.152  0.00  0.00     0.251 C 
HETATM    4  O           1     -21.884  -6.009  -2.889  0.00  0.00    -0.271 OA
HETATM    5  H           1     -23.147  -7.879  -4.597  0.00  0.00     0.163 HD
BRANCH   3   6
HETATM    6  C           1     -21.389  -8.178  -2.105  0.00  0.00     0.302 C 
BRANCH   6   7
HETATM    7  C           1     -22.338  -8.120  -0.914  0.00  0.00     0.153 C 
HETATM    8  C           1     -21.895  -9.130   0.136  0.00  0.00     0.042 C 
BRANCH   7   9
HETATM    9  O           1     -22.317  -6.832  -0.360  0.00  0.00    -0.393 OA
HETATM   10  H           1     -23.168  -6.680   0.012  0.00  0.00     0.210 HD
ENDBRANCH   7   9
ENDBRANCH   6   7
BRANCH   6  11
HETATM   11  N           1     -20.001  -7.835  -1.654  0.00  0.00    -0.064 N 
HETATM   12  H           1     -19.570  -8.666  -1.189  0.00  0.00     0.275 HD
HETATM   13  H           1     -19.424  -7.561  -2.481  0.00  0.00     0.275 HD
HETATM   14  H           1     -20.041  -7.040  -0.976  0.00  0.00     0.275 HD
ENDBRANCH   6  11
ENDBRANCH   3   6
ENDBRANCH   1   2
BRANCH   1  15
HETATM   15  C           1     -20.205  -8.816  -5.095  0.00  0.00     0.197 C 
HETATM   16  O           1     -19.057  -8.522  -4.696  0.00  0.00    -0.646 OA
HETATM   17  O           1     -20.540 -10.015  -5.205  0.00  0.00    -0.646 OA
ENDBRANCH   1  15
BRANCH   1  18
HETATM   18  C           1     -20.446  -6.397  -5.564  0.00  0.00     0.074 C 
BRANCH  18  19
HETATM   19  C           1     -20.993  -5.625  -6.725  0.00  0.00    -0.056 A 
HETATM   20  C           1     -20.248  -5.512  -7.899  0.00  0.00     0.010 A 
HETATM   21  C           1     -20.757  -4.791  -8.981  0.00  0.00     0.038 A 
HETATM   22  C           1     -22.009  -4.185  -8.887  0.00  0.00     0.081 A 
HETATM   23  C           1     -22.754  -4.297  -7.713  0.00  0.00     0.038 A 
HETATM   24  C           1     -22.245  -5.018  -6.631  0.00  0.00     0.010 A 
BRANCH  22  25
HETATM   25  O           1     -22.504  -3.485  -9.937  0.00  0.00    -0.247 OA
BRANCH  25  26
HETATM   26  P           1     -23.650  -4.180 -10.838  0.00  0.00     0.411 P 
HETATM   27  O           1     -24.831  -3.291 -10.905  0.00  0.00    -0.624 OA
HETATM   28  O           1     -24.040  -5.472 -10.230  0.00  0.00    -0.624 OA
BRANCH  26  29
HETATM   29  O           1     -23.083  -4.434 -12.329  0.00  0.00    -0.300 OA
HETATM   30  H           1     -22.319  -4.972 -12.211  0.00  0.00     0.223 HD
ENDBRANCH  26  29
ENDBRANCH  25  26
ENDBRANCH  22  25
ENDBRANCH  18  19
ENDBRANCH   1  18
TORSDOF 11
ENDMDL
MODEL 5
REMARK VINA RESULT:      -6.9      9.883     12.137
REMARK  11 active torsions:
REMARK  status: ('A' for Active; 'I' for Inactive)
REMARK       I    between atoms: C_1  and  N_2 
REMARK    1  A    between atoms: C_1  and  C_26 
REMARK    2  A    between atoms: N_2  and  C_10 
REMARK    3  A    between atoms: O_5  and  C_8 
REMARK    4  A    between atoms: C_6  and  O_13 
REMARK    5  A    between atoms: C_8  and  C_26 
REMARK    6  A    between atoms: C_10  and  C_17 
REMARK    7  A    between atoms: C_10  and  C_18 
REMARK    8  A    between atoms: O_13  and  P_27 
REMARK    9  A    between atoms: C_18  and  C_19 
REMARK   10  A    between atoms: O_21  and  P_27 
REMARK   11  A    between atoms: N_24  and  C_26 
ROOT
HETATM    1  C           1     -26.052  -6.567 -17.525  0.00  0.00     0.189 C 
ENDROOT
BRANCH   1   2
HETATM    2  N           1     -25.044  -7.294 -18.272  0.00  0.00    -0.344 N 
HETATM    3  C           1     -24.513  -6.751 -19.411  0.00  0.00     0.251 C 
HETATM    4  O           1     -23.528  -6.055 -19.346  0.00  0.00    -0.271 OA
HETATM    5  H           1     -24.735  -8.202 -17.952  0.00  0.00     0.163 HD
BRANCH   3   6
HETATM    6  C           1     -25.159  -7.022 -20.748  0.00  0.00     0.302 C 
BRANCH   6   7
HETATM    7  C           1     -24.449  -8.186 -21.428  0.00  0.00     0.153 C 
HETATM    8  C           1     -23.852  -7.714 -22.747  0.00  0.00     0.042 C 
BRANCH   7   9
HETATM    9  O           1     -23.425  -8.660 -20.596  0.00  0.00    -0.393 OA
HETATM   10  H           1     -22.794  -9.084 -21.152  0.00  0.00     0.210 HD
ENDBRANCH   7   9
ENDBRANCH   6   7
BRANCH   6  11
HETATM   11  N           1     -25.052  -5.800 -21.611  0.00  0.00    -0.064 N 
HETATM   12  H           1     -24.815  -4.974 -21.017  0.00  0.00     0.275 HD
HETATM   13  H           1     -24.301  -5.943 -22.324  0.00  0.00     0.275 HD
HETATM   14  H           1     -25.964  -5.633 -22.092  0.00  0.00     0.275 HD
ENDBRANCH   6  11
ENDBRANCH   3   6
ENDBRANCH   1   2
BRANCH   1  15
HETATM   15  C           1     -25.686  -6.563 -16.061  0.00  0.00     0.197 C 
HETATM   16  O           1     -24.992  -5.635 -15.592  0.00  0.00    -0.646 OA
HETATM   17  O           1     -26.077  -7.488 -15.317  0.00  0.00    -0.646 OA
ENDBRANCH   1  15
BRANCH   1  18
HETATM   18  C           1     -27.405  -7.241 -17.709  0.00  0.00     0.074 C 
BRANCH  18  19
HETATM   19  C           1     -28.496  -6.244 -17.469  0.00  0.00    -0.056 A 
HETATM   20  C           1     -29.231  -6.287 -16.284  0.00  0.00     0.010 A 
HETATM   21  C           1     -30.249  -5.358 -16.060  0.00  0.00     0.038 A 
HETATM   22  C           1     -30.531  -4.389 -17.022  0.00  0.00     0.081 A 
HETATM   23  C           1     -29.797  -4.346 -18.207  0.00  0.00     0.038 A 
HETATM   24  C           1     -28.779  -5.275 -18.431  0.00  0.00     0.010 A 
BRANCH  22  25
HETATM   25  O           1     -31.519  -3.487 -16.805  0.00  0.00    -0.247 OA
BRANCH  25  26
HETATM   26  P           1     -33.011  -4.047 -16.544  0.00  0.00     0.411 P 
HETATM   27  O           1     -33.991  -3.176 -17.231  0.00  0.00    -0.624 OA
HETATM   28  O           1     -33.290  -4.050 -15.091  0.00  0.00    -0.624 OA
BRANCH  26  29
HETATM   29  O           1     -33.130  -5.551 -17.121  0.00  0.00    -0.300 OA
HETATM   30  H           1     -32.553  -5.573 -17.865  0.00  0.00     0.223 HD
ENDBRANCH  26  29
ENDBRANCH  25  26
ENDBRANCH  22  25
ENDBRANCH  18  19
ENDBRANCH   1  18
TORSDOF 11
ENDMDL
MODEL 6
REMARK VINA RESULT:      -6.8      9.667     12.324
REMARK  11 active torsions:
REMARK  status: ('A' for Active; 'I' for Inactive)
REMARK       I    between atoms: C_1  and  N_2 
REMARK    1  A    between atoms: C_1  and  C_26 
REMARK    2  A    between atoms: N_2  and  C_10 
REMARK    3  A    between atoms: O_5  and  C_8 
REMARK    4  A    between atoms: C_6  and  O_13 
REMARK    5  A    between atoms: C_8  and  C_26 
REMARK    6  A    between atoms: C_10  and  C_17 
REMARK    7  A    between atoms: C_10  and  C_18 
REMARK    8  A    between atoms: O_13  and  P_27 
REMARK    9  A    between atoms: C_18  and  C_19 
REMARK   10  A    between atoms: O_21  and  P_27 
REMARK   11  A    between atoms: N_24  and  C_26 
ROOT
HETATM    1  C           1     -26.561  -7.003 -19.734  0.00  0.00     0.189 C 
ENDROOT
BRANCH   1   2
HETATM    2  N           1     -25.611  -6.318 -18.881  0.00  0.00    -0.344 N 
HETATM    3  C           1     -24.618  -7.025 -18.256  0.00  0.00     0.251 C 
HETATM    4  O           1     -23.553  -7.182 -18.804  0.00  0.00    -0.271 OA
HETATM    5  H           1     -25.682  -5.318 -18.746  0.00  0.00     0.163 HD
BRANCH   3   6
HETATM    6  C           1     -24.856  -7.607 -16.885  0.00  0.00     0.302 C 
BRANCH   6   7
HETATM    7  C           1     -25.518  -6.561 -15.997  0.00  0.00     0.153 C 
HETATM    8  C           1     -26.947  -6.990 -15.690  0.00  0.00     0.042 C 
BRANCH   7   9
HETATM    9  O           1     -24.800  -6.441 -14.799  0.00  0.00    -0.393 OA
HETATM   10  H           1     -23.915  -6.221 -15.031  0.00  0.00     0.210 HD
ENDBRANCH   7   9
ENDBRANCH   6   7
BRANCH   6  11
HETATM   11  N           1     -23.545  -8.015 -16.282  0.00  0.00    -0.064 N 
HETATM   12  H           1     -23.694  -8.823 -15.636  0.00  0.00     0.275 HD
HETATM   13  H           1     -22.884  -8.296 -17.042  0.00  0.00     0.275 HD
HETATM   14  H           1     -23.141  -7.213 -15.748  0.00  0.00     0.275 HD
ENDBRANCH   6  11
ENDBRANCH   3   6
ENDBRANCH   1   2
BRANCH   1  15
HETATM   15  C           1     -25.846  -7.550 -20.945  0.00  0.00     0.197 C 
HETATM   16  O           1     -26.143  -8.680 -21.389  0.00  0.00    -0.646 OA
HETATM   17  O           1     -24.957  -6.872 -21.505  0.00  0.00    -0.646 OA
ENDBRANCH   1  15
BRANCH   1  18
HETATM   18  C           1     -27.641  -6.026 -20.179  0.00  0.00     0.074 C 
BRANCH  18  19
HETATM   19  C           1     -28.583  -5.771 -19.044  0.00  0.00    -0.056 A 
HETATM   20  C           1     -29.329  -6.820 -18.509  0.00  0.00     0.010 A 
HETATM   21  C           1     -30.208  -6.583 -17.450  0.00  0.00     0.038 A 
HETATM   22  C           1     -30.339  -5.297 -16.929  0.00  0.00     0.081 A 
HETATM   23  C           1     -29.594  -4.246 -17.465  0.00  0.00     0.038 A 
HETATM   24  C           1     -28.715  -4.484 -18.523  0.00  0.00     0.010 A 
BRANCH  22  25
HETATM   25  O           1     -31.192  -5.066 -15.902  0.00  0.00    -0.247 OA
BRANCH  25  26
HETATM   26  P           1     -32.709  -4.641 -16.258  0.00  0.00     0.411 P 
HETATM   27  O           1     -32.697  -3.613 -17.322  0.00  0.00    -0.624 OA
HETATM   28  O           1     -33.364  -4.090 -15.049  0.00  0.00    -0.624 OA
BRANCH  26  29
HETATM   29  O           1     -33.525  -5.937 -16.771  0.00  0.00    -0.300 OA
HETATM   30  H           1     -33.841  -5.703 -17.627  0.00  0.00     0.223 HD
ENDBRANCH  26  29
ENDBRANCH  25  26
ENDBRANCH  22  25
ENDBRANCH  18  19
ENDBRANCH   1  18
TORSDOF 11
ENDMDL
MODEL 7
REMARK VINA RESULT:      -6.6     15.219     18.209
REMARK  11 active torsions:
REMARK  status: ('A' for Active; 'I' for Inactive)
REMARK       I    between atoms: C_1  and  N_2 
REMARK    1  A    between atoms: C_1  and  C_26 
REMARK    2  A    between atoms: N_2  and  C_10 
REMARK    3  A    between atoms: O_5  and  C_8 
REMARK    4  A    between atoms: C_6  and  O_13 
REMARK    5  A    between atoms: C_8  and  C_26 
REMARK    6  A    between atoms: C_10  and  C_17 
REMARK    7  A    between atoms: C_10  and  C_18 
REMARK    8  A    between atoms: O_13  and  P_27 
REMARK    9  A    between atoms: C_18  and  C_19 
REMARK   10  A    between atoms: O_21  and  P_27 
REMARK   11  A    between atoms: N_24  and  C_26 
ROOT
HETATM    1  C           1     -20.920  -7.440  -3.651  0.00  0.00     0.189 C 
ENDROOT
BRANCH   1   2
HETATM    2  N           1     -20.468  -8.805  -3.462  0.00  0.00    -0.344 N 
HETATM    3  C           1     -19.160  -9.131  -3.700  0.00  0.00     0.251 C 
HETATM    4  O           1     -18.348  -9.060  -2.809  0.00  0.00    -0.271 OA
HETATM    5  H           1     -21.120  -9.514  -3.155  0.00  0.00     0.163 HD
BRANCH   3   6
HETATM    6  C           1     -18.734  -9.581  -5.076  0.00  0.00     0.302 C 
BRANCH   6   7
HETATM    7  C           1     -19.471 -10.863  -5.442  0.00  0.00     0.153 C 
HETATM    8  C           1     -18.671 -11.625  -6.490  0.00  0.00     0.042 C 
BRANCH   7   9
HETATM    9  O           1     -19.619 -11.660  -4.299  0.00  0.00    -0.393 OA
HETATM   10  H           1     -18.843 -11.542  -3.779  0.00  0.00     0.210 HD
ENDBRANCH   7   9
ENDBRANCH   6   7
BRANCH   6  11
HETATM   11  N           1     -17.256  -9.836  -5.083  0.00  0.00    -0.064 N 
HETATM   12  H           1     -17.075 -10.841  -4.862  0.00  0.00     0.275 HD
HETATM   13  H           1     -16.869  -9.612  -6.028  0.00  0.00     0.275 HD
HETATM   14  H           1     -16.795  -9.233  -4.364  0.00  0.00     0.275 HD
ENDBRANCH   6  11
ENDBRANCH   3   6
ENDBRANCH   1   2
BRANCH   1  15
HETATM   15  C           1     -21.518  -6.925  -2.365  0.00  0.00     0.197 C 
HETATM   16  O           1     -21.276  -7.509  -1.286  0.00  0.00    -0.646 OA
HETATM   17  O           1     -22.255  -5.916  -2.378  0.00  0.00    -0.646 OA
ENDBRANCH   1  15
BRANCH   1  18
HETATM   18  C           1     -21.972  -7.401  -4.752  0.00  0.00     0.074 C 
BRANCH  18  19
HETATM   19  C           1     -21.558  -6.420  -5.804  0.00  0.00    -0.056 A 
HETATM   20  C           1     -20.277  -6.486  -6.354  0.00  0.00     0.010 A 
HETATM   21  C           1     -19.891  -5.571  -7.335  0.00  0.00     0.038 A 
HETATM   22  C           1     -20.784  -4.591  -7.764  0.00  0.00     0.081 A 
HETATM   23  C           1     -22.064  -4.524  -7.213  0.00  0.00     0.038 A 
HETATM   24  C           1     -22.451  -5.439  -6.233  0.00  0.00     0.010 A 
BRANCH  22  25
HETATM   25  O           1     -20.409  -3.702  -8.715  0.00  0.00    -0.247 OA
BRANCH  25  26
HETATM   26  P           1     -20.693  -4.081 -10.260  0.00  0.00     0.411 P 
HETATM   27  O           1     -19.751  -5.139 -10.689  0.00  0.00    -0.624 OA
HETATM   28  O           1     -20.503  -2.880 -11.105  0.00  0.00    -0.624 OA
BRANCH  26  29
HETATM   29  O           1     -22.209  -4.616 -10.413  0.00  0.00    -0.300 OA
HETATM   30  H           1     -22.198  -5.163 -11.179  0.00  0.00     0.223 HD
ENDBRANCH  26  29
ENDBRANCH  25  26
ENDBRANCH  22  25
ENDBRANCH  18  19
ENDBRANCH   1  18
TORSDOF 11
ENDMDL
MODEL 8
REMARK VINA RESULT:      -6.5     16.330     19.066
REMARK  11 active torsions:
REMARK  status: ('A' for Active; 'I' for Inactive)
REMARK       I    between atoms: C_1  and  N_2 
REMARK    1  A    between atoms: C_1  and  C_26 
REMARK    2  A    between atoms: N_2  and  C_10 
REMARK    3  A    between atoms: O_5  and  C_8 
REMARK    4  A    between atoms: C_6  and  O_13 
REMARK    5  A    between atoms: C_8  and  C_26 
REMARK    6  A    between atoms: C_10  and  C_17 
REMARK    7  A    between atoms: C_10  and  C_18 
REMARK    8  A    between atoms: O_13  and  P_27 
REMARK    9  A    between atoms: C_18  and  C_19 
REMARK   10  A    between atoms: O_21  and  P_27 
REMARK   11  A    between atoms: N_24  and  C_26 
ROOT
HETATM    1  C           1     -21.178  -9.332  -0.717  0.00  0.00     0.189 C 
ENDROOT
BRANCH   1   2
HETATM    2  N           1     -22.557  -9.602  -1.077  0.00  0.00    -0.344 N 
HETATM    3  C           1     -23.018 -10.890  -1.101  0.00  0.00     0.251 C 
HETATM    4  O           1     -23.501 -11.377  -0.106  0.00  0.00    -0.271 OA
HETATM    5  H           1     -23.176  -8.838  -1.312  0.00  0.00     0.163 HD
BRANCH   3   6
HETATM    6  C           1     -22.923 -11.703  -2.369  0.00  0.00     0.302 C 
BRANCH   6   7
HETATM    7  C           1     -21.708 -12.620  -2.295  0.00  0.00     0.153 C 
HETATM    8  C           1     -20.595 -12.058  -3.169  0.00  0.00     0.042 C 
BRANCH   7   9
HETATM    9  O           1     -21.263 -12.701  -0.968  0.00  0.00    -0.393 OA
HETATM   10  H           1     -22.015 -12.900  -0.438  0.00  0.00     0.210 HD
ENDBRANCH   7   9
ENDBRANCH   6   7
BRANCH   6  11
HETATM   11  N           1     -22.780 -10.780  -3.543  0.00  0.00    -0.064 N 
HETATM   12  H           1     -23.509 -11.008  -4.256  0.00  0.00     0.275 HD
HETATM   13  H           1     -22.902  -9.792  -3.225  0.00  0.00     0.275 HD
HETATM   14  H           1     -21.831 -10.897  -3.965  0.00  0.00     0.275 HD
ENDBRANCH   6  11
ENDBRANCH   3   6
ENDBRANCH   1   2
BRANCH   1  15
HETATM   15  C           1     -20.984  -9.592   0.757  0.00  0.00     0.197 C 
HETATM   16  O           1     -21.304  -8.720   1.593  0.00  0.00    -0.646 OA
HETATM   17  O           1     -20.505 -10.681   1.141  0.00  0.00    -0.646 OA
ENDBRANCH   1  15
BRANCH   1  18
HETATM   18  C           1     -20.849  -7.877  -1.023  0.00  0.00     0.074 C 
BRANCH  18  19
HETATM   19  C           1     -20.938  -7.645  -2.500  0.00  0.00    -0.056 A 
HETATM   20  C           1     -20.111  -8.358  -3.368  0.00  0.00     0.010 A 
HETATM   21  C           1     -20.193  -8.141  -4.745  0.00  0.00     0.038 A 
HETATM   22  C           1     -21.102  -7.213  -5.251  0.00  0.00     0.081 A 
HETATM   23  C           1     -21.928  -6.499  -4.383  0.00  0.00     0.038 A 
HETATM   24  C           1     -21.846  -6.716  -3.006  0.00  0.00     0.010 A 
BRANCH  22  25
HETATM   25  O           1     -21.182  -7.003  -6.587  0.00  0.00    -0.247 OA
BRANCH  25  26
HETATM   26  P           1     -20.733  -5.559  -7.155  0.00  0.00     0.411 P 
HETATM   27  O           1     -21.927  -4.699  -7.316  0.00  0.00    -0.624 OA
HETATM   28  O           1     -20.068  -5.730  -8.467  0.00  0.00    -0.624 OA
BRANCH  26  29
HETATM   29  O           1     -19.709  -4.867  -6.116  0.00  0.00    -0.300 OA
HETATM   30  H           1     -19.173  -4.299  -6.643  0.00  0.00     0.223 HD
ENDBRANCH  26  29
ENDBRANCH  25  26
ENDBRANCH  22  25
ENDBRANCH  18  19
ENDBRANCH   1  18
TORSDOF 11
ENDMDL
MODEL 9
REMARK VINA RESULT:      -6.4     17.792     20.493
REMARK  11 active torsions:
REMARK  status: ('A' for Active; 'I' for Inactive)
REMARK       I    between atoms: C_1  and  N_2 
REMARK    1  A    between atoms: C_1  and  C_26 
REMARK    2  A    between atoms: N_2  and  C_10 
REMARK    3  A    between atoms: O_5  and  C_8 
REMARK    4  A    between atoms: C_6  and  O_13 
REMARK    5  A    between atoms: C_8  and  C_26 
REMARK    6  A    between atoms: C_10  and  C_17 
REMARK    7  A    between atoms: C_10  and  C_18 
REMARK    8  A    between atoms: O_13  and  P_27 
REMARK    9  A    between atoms: C_18  and  C_19 
REMARK   10  A    between atoms: O_21  and  P_27 
REMARK   11  A    between atoms: N_24  and  C_26 
ROOT
HETATM    1  C           1     -21.060  -7.806  -2.455  0.00  0.00     0.189 C 
ENDROOT
BRANCH   1   2
HETATM    2  N           1     -21.992  -8.347  -1.485  0.00  0.00    -0.344 N 
HETATM    3  C           1     -21.526  -8.891  -0.318  0.00  0.00     0.251 C 
HETATM    4  O           1     -21.383  -8.194   0.659  0.00  0.00    -0.271 OA
HETATM    5  H           1     -22.986  -8.322  -1.671  0.00  0.00     0.163 HD
BRANCH   3   6
HETATM    6  C           1     -21.190 -10.361  -0.253  0.00  0.00     0.302 C 
BRANCH   6   7
HETATM    7  C           1     -22.472 -11.179  -0.347  0.00  0.00     0.153 C 
HETATM    8  C           1     -22.412 -12.331   0.647  0.00  0.00     0.042 C 
BRANCH   7   9
HETATM    9  O           1     -23.572 -10.362  -0.049  0.00  0.00    -0.393 OA
HETATM   10  H           1     -23.822  -9.935  -0.850  0.00  0.00     0.210 HD
ENDBRANCH   7   9
ENDBRANCH   6   7
BRANCH   6  11
HETATM   11  N           1     -20.503 -10.659   1.046  0.00  0.00    -0.064 N 
HETATM   12  H           1     -20.433  -9.783   1.613  0.00  0.00     0.275 HD
HETATM   13  H           1     -21.054 -11.373   1.575  0.00  0.00     0.275 HD
HETATM   14  H           1     -19.543 -11.028   0.857  0.00  0.00     0.275 HD
ENDBRANCH   6  11
ENDBRANCH   3   6
ENDBRANCH   1   2
BRANCH   1  15
HETATM   15  C           1     -21.533  -6.444  -2.900  0.00  0.00     0.197 C 
HETATM   16  O           1     -21.092  -5.944  -3.958  0.00  0.00    -0.646 OA
HETATM   17  O           1     -22.365  -5.815  -2.211  0.00  0.00    -0.646 OA
ENDBRANCH   1  15
BRANCH   1  18
HETATM   18  C           1     -20.983  -8.736  -3.659  0.00  0.00     0.074 C 
BRANCH  18  19
HETATM   19  C           1     -19.556  -9.111  -3.910  0.00  0.00    -0.056 A 
HETATM   20  C           1     -18.680  -9.275  -2.837  0.00  0.00     0.010 A 
HETATM   21  C           1     -17.349  -9.624  -3.071  0.00  0.00     0.038 A 
HETATM   22  C           1     -16.896  -9.808  -4.376  0.00  0.00     0.081 A 
HETATM   23  C           1     -17.772  -9.643  -5.449  0.00  0.00     0.038 A 
HETATM   24  C           1     -19.103  -9.294  -5.216  0.00  0.00     0.010 A 
BRANCH  22  25
HETATM   25  O           1     -15.603 -10.147  -4.604  0.00  0.00    -0.247 OA
BRANCH  25  26
HETATM   26  P           1     -15.291 -11.650  -5.105  0.00  0.00     0.411 P 
HETATM   27  O           1     -13.982 -12.087  -4.570  0.00  0.00    -0.624 OA
HETATM   28  O           1     -15.252 -11.678  -6.585  0.00  0.00    -0.624 OA
BRANCH  26  29
HETATM   29  O           1     -16.448 -12.645  -4.575  0.00  0.00    -0.300 OA
HETATM   30  H           1     -16.219 -12.830  -3.681  0.00  0.00     0.223 HD
ENDBRANCH  26  29
ENDBRANCH  25  26
ENDBRANCH  22  25
ENDBRANCH  18  19
ENDBRANCH   1  18
TORSDOF 11
ENDMDL
