MODEL 1
REMARK VINA RESULT:      -6.1      0.000      0.000
REMARK  9 active torsions:
REMARK  status: ('A' for Active; 'I' for Inactive)
REMARK    1  A    between atoms: N_1  and  C_5 
REMARK       I    between atoms: N_1  and  C_23 
REMARK    2  A    between atoms: C_2  and  C_18 
REMARK    3  A    between atoms: C_2  and  O_3 
REMARK    4  A    between atoms: C_4  and  C_10 
REMARK    5  A    between atoms: C_4  and  C_5 
REMARK    6  A    between atoms: C_5  and  C_16 
REMARK       I    between atoms: N_6  and  C_21 
REMARK    7  A    between atoms: C_10  and  C_21 
REMARK    8  A    between atoms: C_18  and  C_23 
REMARK    9  A    between atoms: C_18  and  N_22 
ROOT
HETATM    1  N           1     -27.560  -6.375 -18.905  0.00  0.00    -0.345 N 
HETATM    2  O           1     -26.013  -6.070 -17.324  0.00  0.00    -0.271 OA
HETATM    3  H           1     -27.769  -6.602 -19.870  0.00  0.00     0.163 HD
HETATM    4  C           1     -26.261  -6.340 -18.475  0.00  0.00     0.251 C 
ENDROOT
BRANCH   1   5
HETATM    5  C           1     -28.639  -6.086 -17.980  0.00  0.00     0.186 C 
BRANCH   5   6
HETATM    6  C           1     -29.432  -4.887 -18.483  0.00  0.00     0.045 C 
BRANCH   6   7
HETATM    7  C           1     -29.893  -4.049 -17.299  0.00  0.00     0.105 C 
BRANCH   7   8
HETATM    8  C           1     -31.402  -4.004 -17.271  0.00  0.00     0.215 C 
HETATM    9  N           1     -32.108  -5.050 -16.738  0.00  0.00    -0.370 N 
HETATM   10  H           1     -31.618  -5.853 -16.363  0.00  0.00     0.159 HD
HETATM   11  H           1     -33.119  -5.020 -16.719  0.00  0.00     0.159 HD
HETATM   12  O           1     -31.986  -3.046 -17.718  0.00  0.00    -0.274 OA
ENDBRANCH   7   8
ENDBRANCH   6   7
ENDBRANCH   5   6
BRANCH   5  13
HETATM   13  C           1     -29.549  -7.286 -17.881  0.00  0.00     0.196 C 
HETATM   14  O           1     -29.249  -8.237 -17.127  0.00  0.00    -0.646 OA
HETATM   15  O           1     -30.603  -7.328 -18.552  0.00  0.00    -0.646 OA
ENDBRANCH   5  13
ENDBRANCH   1   5
BRANCH   4  16
HETATM   16  C           1     -25.139  -6.641 -19.438  0.00  0.00     0.297 C 
BRANCH  16  17
HETATM   17  C           1     -25.722  -7.036 -20.788  0.00  0.00     0.206 C 
BRANCH  17  18
HETATM   18  O           1     -26.295  -8.312 -20.696  0.00  0.00    -0.398 OA
HETATM   19  H           1     -27.229  -8.192 -20.684  0.00  0.00     0.209 HD
ENDBRANCH  17  18
ENDBRANCH  16  17
BRANCH  16  20
HETATM   20  N           1     -24.310  -7.770 -18.902  0.00  0.00    -0.064 N 
HETATM   21  H           1     -24.870  -8.652 -18.920  0.00  0.00     0.275 HD
HETATM   22  H           1     -24.026  -7.557 -17.919  0.00  0.00     0.275 HD
HETATM   23  H           1     -23.456  -7.888 -19.493  0.00  0.00     0.275 HD
ENDBRANCH  16  20
ENDBRANCH   4  16
TORSDOF 9
ENDMDL
MODEL 2
REMARK VINA RESULT:      -5.8     10.287     11.944
REMARK  9 active torsions:
REMARK  status: ('A' for Active; 'I' for Inactive)
REMARK    1  A    between atoms: N_1  and  C_5 
REMARK       I    between atoms: N_1  and  C_23 
REMARK    2  A    between atoms: C_2  and  C_18 
REMARK    3  A    between atoms: C_2  and  O_3 
REMARK    4  A    between atoms: C_4  and  C_10 
REMARK    5  A    between atoms: C_4  and  C_5 
REMARK    6  A    between atoms: C_5  and  C_16 
REMARK       I    between atoms: N_6  and  C_21 
REMARK    7  A    between atoms: C_10  and  C_21 
REMARK    8  A    between atoms: C_18  and  C_23 
REMARK    9  A    between atoms: C_18  and  N_22 
ROOT
HETATM    1  N           1     -23.214  -4.535  -8.657  0.00  0.00    -0.345 N 
HETATM    2  O           1     -21.445  -3.362  -7.963  0.00  0.00    -0.271 OA
HETATM    3  H           1     -23.898  -5.255  -8.460  0.00  0.00     0.163 HD
HETATM    4  C           1     -22.260  -4.222  -7.727  0.00  0.00     0.251 C 
ENDROOT
BRANCH   1   5
HETATM    5  C           1     -23.247  -3.835  -9.927  0.00  0.00     0.186 C 
BRANCH   5   6
HETATM    6  C           1     -22.897  -4.804 -11.049  0.00  0.00     0.045 C 
BRANCH   6   7
HETATM    7  C           1     -21.851  -4.173 -11.958  0.00  0.00     0.105 C 
BRANCH   7   8
HETATM    8  C           1     -20.620  -3.838 -11.152  0.00  0.00     0.215 C 
HETATM    9  N           1     -19.983  -4.816 -10.436  0.00  0.00    -0.370 N 
HETATM   10  H           1     -20.338  -5.764 -10.448  0.00  0.00     0.159 HD
HETATM   11  H           1     -19.158  -4.592  -9.896  0.00  0.00     0.159 HD
HETATM   12  O           1     -20.196  -2.706 -11.138  0.00  0.00    -0.274 OA
ENDBRANCH   7   8
ENDBRANCH   6   7
ENDBRANCH   5   6
BRANCH   5  13
HETATM   13  C           1     -24.629  -3.276 -10.157  0.00  0.00     0.196 C 
HETATM   14  O           1     -25.233  -2.700  -9.226  0.00  0.00    -0.646 OA
HETATM   15  O           1     -25.170  -3.389 -11.278  0.00  0.00    -0.646 OA
ENDBRANCH   5  13
ENDBRANCH   1   5
BRANCH   4  16
HETATM   16  C           1     -22.227  -4.950  -6.405  0.00  0.00     0.297 C 
BRANCH  16  17
HETATM   17  C           1     -21.338  -6.180  -6.526  0.00  0.00     0.206 C 
BRANCH  17  18
HETATM   18  O           1     -20.568  -6.089  -7.694  0.00  0.00    -0.398 OA
HETATM   19  H           1     -20.659  -6.909  -8.148  0.00  0.00     0.209 HD
ENDBRANCH  17  18
ENDBRANCH  16  17
BRANCH  16  20
HETATM   20  N           1     -23.618  -5.373  -6.034  0.00  0.00    -0.064 N 
HETATM   21  H           1     -24.195  -5.467  -6.899  0.00  0.00     0.275 HD
HETATM   22  H           1     -24.044  -4.655  -5.406  0.00  0.00     0.275 HD
HETATM   23  H           1     -23.582  -6.292  -5.538  0.00  0.00     0.275 HD
ENDBRANCH  16  20
ENDBRANCH   4  16
TORSDOF 9
ENDMDL
MODEL 3
REMARK VINA RESULT:      -5.7      1.747      2.027
REMARK  9 active torsions:
REMARK  status: ('A' for Active; 'I' for Inactive)
REMARK    1  A    between atoms: N_1  and  C_5 
REMARK       I    between atoms: N_1  and  C_23 
REMARK    2  A    between atoms: C_2  and  C_18 
REMARK    3  A    between atoms: C_2  and  O_3 
REMARK    4  A    between atoms: C_4  and  C_10 
REMARK    5  A    between atoms: C_4  and  C_5 
REMARK    6  A    between atoms: C_5  and  C_16 
REMARK       I    between atoms: N_6  and  C_21 
REMARK    7  A    between atoms: C_10  and  C_21 
REMARK    8  A    between atoms: C_18  and  C_23 
REMARK    9  A    between atoms: C_18  and  N_22 
ROOT
HETATM    1  N           1     -27.397  -6.595 -18.493  0.00  0.00    -0.345 N 
HETATM    2  O           1     -25.631  -6.115 -17.214  0.00  0.00    -0.271 OA
HETATM    3  H           1     -27.749  -6.976 -19.362  0.00  0.00     0.163 HD
HETATM    4  C           1     -26.050  -6.570 -18.251  0.00  0.00     0.251 C 
ENDROOT
BRANCH   1   5
HETATM    5  C           1     -28.322  -6.072 -17.505  0.00  0.00     0.186 C 
BRANCH   5   6
HETATM    6  C           1     -29.545  -5.499 -18.207  0.00  0.00     0.045 C 
BRANCH   6   7
HETATM    7  C           1     -30.473  -4.867 -17.178  0.00  0.00     0.105 C 
BRANCH   7   8
HETATM    8  C           1     -30.727  -3.426 -17.548  0.00  0.00     0.215 C 
HETATM    9  N           1     -29.693  -2.527 -17.550  0.00  0.00    -0.370 N 
HETATM   10  H           1     -28.759  -2.830 -17.304  0.00  0.00     0.159 HD
HETATM   11  H           1     -29.863  -1.561 -17.798  0.00  0.00     0.159 HD
HETATM   12  O           1     -31.841  -3.065 -17.842  0.00  0.00    -0.274 OA
ENDBRANCH   7   8
ENDBRANCH   6   7
ENDBRANCH   5   6
BRANCH   5  13
HETATM   13  C           1     -28.747  -7.185 -16.579  0.00  0.00     0.196 C 
HETATM   14  O           1     -29.467  -8.113 -17.007  0.00  0.00    -0.646 OA
HETATM   15  O           1     -28.378  -7.180 -15.385  0.00  0.00    -0.646 OA
ENDBRANCH   5  13
ENDBRANCH   1   5
BRANCH   4  16
HETATM   16  C           1     -25.089  -7.114 -19.280  0.00  0.00     0.297 C 
BRANCH  16  17
HETATM   17  C           1     -23.659  -6.880 -18.811  0.00  0.00     0.206 C 
BRANCH  17  18
HETATM   18  O           1     -23.424  -7.615 -17.641  0.00  0.00    -0.398 OA
HETATM   19  H           1     -23.982  -8.373 -17.676  0.00  0.00     0.209 HD
ENDBRANCH  17  18
ENDBRANCH  16  17
BRANCH  16  20
HETATM   20  N           1     -25.308  -6.411 -20.587  0.00  0.00    -0.064 N 
HETATM   21  H           1     -25.248  -7.102 -21.368  0.00  0.00     0.275 HD
HETATM   22  H           1     -24.574  -5.677 -20.715  0.00  0.00     0.275 HD
HETATM   23  H           1     -26.251  -5.963 -20.589  0.00  0.00     0.275 HD
ENDBRANCH  16  20
ENDBRANCH   4  16
TORSDOF 9
ENDMDL
MODEL 4
REMARK VINA RESULT:      -5.5      1.860      2.419
REMARK  9 active torsions:
REMARK  status: ('A' for Active; 'I' for Inactive)
REMARK    1  A    between atoms: N_1  and  C_5 
REMARK       I    between atoms: N_1  and  C_23 
REMARK    2  A    between atoms: C_2  and  C_18 
REMARK    3  A    between atoms: C_2  and  O_3 
REMARK    4  A    between atoms: C_4  and  C_10 
REMARK    5  A    between atoms: C_4  and  C_5 
REMARK    6  A    between atoms: C_5  and  C_16 
REMARK       I    between atoms: N_6  and  C_21 
REMARK    7  A    between atoms: C_10  and  C_21 
REMARK    8  A    between atoms: C_18  and  C_23 
REMARK    9  A    between atoms: C_18  and  N_22 
ROOT
HETATM    1  N           1     -26.887  -6.325 -18.159  0.00  0.00    -0.345 N 
HETATM    2  O           1     -24.672  -6.567 -18.309  0.00  0.00    -0.271 OA
HETATM    3  H           1     -27.793  -6.415 -18.603  0.00  0.00     0.163 HD
HETATM    4  C           1     -25.752  -6.675 -18.839  0.00  0.00     0.251 C 
ENDROOT
BRANCH   1   5
HETATM    5  C           1     -26.794  -5.822 -16.801  0.00  0.00     0.186 C 
BRANCH   5   6
HETATM    6  C           1     -27.894  -4.796 -16.564  0.00  0.00     0.045 C 
BRANCH   6   7
HETATM    7  C           1     -28.853  -4.796 -17.747  0.00  0.00     0.105 C 
BRANCH   7   8
HETATM    8  C           1     -30.272  -4.913 -17.245  0.00  0.00     0.215 C 
HETATM    9  N           1     -30.719  -6.099 -16.726  0.00  0.00    -0.370 N 
HETATM   10  H           1     -30.098  -6.897 -16.679  0.00  0.00     0.159 HD
HETATM   11  H           1     -31.670  -6.177 -16.390  0.00  0.00     0.159 HD
HETATM   12  O           1     -31.013  -3.961 -17.302  0.00  0.00    -0.274 OA
ENDBRANCH   7   8
ENDBRANCH   6   7
ENDBRANCH   5   6
BRANCH   5  13
HETATM   13  C           1     -26.954  -6.967 -15.831  0.00  0.00     0.196 C 
HETATM   14  O           1     -28.095  -7.396 -15.554  0.00  0.00    -0.646 OA
HETATM   15  O           1     -25.945  -7.486 -15.306  0.00  0.00    -0.646 OA
ENDBRANCH   5  13
ENDBRANCH   1   5
BRANCH   4  16
HETATM   16  C           1     -25.850  -7.198 -20.252  0.00  0.00     0.297 C 
BRANCH  16  17
HETATM   17  C           1     -24.451  -7.340 -20.838  0.00  0.00     0.206 C 
BRANCH  17  18
HETATM   18  O           1     -23.933  -8.601 -20.512  0.00  0.00    -0.398 OA
HETATM   19  H           1     -23.243  -8.460 -19.886  0.00  0.00     0.209 HD
ENDBRANCH  17  18
ENDBRANCH  16  17
BRANCH  16  20
HETATM   20  N           1     -26.646  -6.238 -21.085  0.00  0.00    -0.064 N 
HETATM   21  H           1     -26.531  -6.476 -22.095  0.00  0.00     0.275 HD
HETATM   22  H           1     -26.305  -5.264 -20.915  0.00  0.00     0.275 HD
HETATM   23  H           1     -27.655  -6.303 -20.823  0.00  0.00     0.275 HD
ENDBRANCH  16  20
ENDBRANCH   4  16
TORSDOF 9
ENDMDL
MODEL 5
REMARK VINA RESULT:      -5.3     11.611     13.230
REMARK  9 active torsions:
REMARK  status: ('A' for Active; 'I' for Inactive)
REMARK    1  A    between atoms: N_1  and  C_5 
REMARK       I    between atoms: N_1  and  C_23 
REMARK    2  A    between atoms: C_2  and  C_18 
REMARK    3  A    between atoms: C_2  and  O_3 
REMARK    4  A    between atoms: C_4  and  C_10 
REMARK    5  A    between atoms: C_4  and  C_5 
REMARK    6  A    between atoms: C_5  and  C_16 
REMARK       I    between atoms: N_6  and  C_21 
REMARK    7  A    between atoms: C_10  and  C_21 
REMARK    8  A    between atoms: C_18  and  C_23 
REMARK    9  A    between atoms: C_18  and  N_22 
ROOT
HETATM    1  N           1     -22.170  -5.231  -8.566  0.00  0.00    -0.345 N 
HETATM    2  O           1     -23.024  -3.168  -8.531  0.00  0.00    -0.271 OA
HETATM    3  H           1     -22.228  -6.178  -8.920  0.00  0.00     0.163 HD
HETATM    4  C           1     -23.093  -4.297  -8.954  0.00  0.00     0.251 C 
ENDROOT
BRANCH   1   5
HETATM    5  C           1     -21.110  -4.866  -7.646  0.00  0.00     0.186 C 
BRANCH   5   6
HETATM    6  C           1     -20.841  -6.024  -6.695  0.00  0.00     0.045 C 
BRANCH   6   7
HETATM    7  C           1     -20.897  -5.525  -5.257  0.00  0.00     0.105 C 
BRANCH   7   8
HETATM    8  C           1     -21.753  -6.456  -4.433  0.00  0.00     0.215 C 
HETATM    9  N           1     -22.101  -6.113  -3.154  0.00  0.00    -0.370 N 
HETATM   10  H           1     -21.784  -5.236  -2.761  0.00  0.00     0.159 HD
HETATM   11  H           1     -22.674  -6.737  -2.602  0.00  0.00     0.159 HD
HETATM   12  O           1     -22.131  -7.503  -4.902  0.00  0.00    -0.274 OA
ENDBRANCH   7   8
ENDBRANCH   6   7
ENDBRANCH   5   6
BRANCH   5  13
HETATM   13  C           1     -19.857  -4.553  -8.425  0.00  0.00     0.196 C 
HETATM   14  O           1     -19.864  -4.618  -9.674  0.00  0.00    -0.646 OA
HETATM   15  O           1     -18.811  -4.226  -7.822  0.00  0.00    -0.646 OA
ENDBRANCH   5  13
ENDBRANCH   1   5
BRANCH   4  16
HETATM   16  C           1     -24.196  -4.679  -9.911  0.00  0.00     0.297 C 
BRANCH  16  17
HETATM   17  C           1     -23.639  -4.746 -11.326  0.00  0.00     0.206 C 
BRANCH  17  18
HETATM   18  O           1     -22.434  -4.033 -11.390  0.00  0.00    -0.398 OA
HETATM   19  H           1     -22.024  -4.112 -10.545  0.00  0.00     0.209 HD
ENDBRANCH  17  18
ENDBRANCH  16  17
BRANCH  16  20
HETATM   20  N           1     -25.286  -3.650  -9.851  0.00  0.00    -0.064 N 
HETATM   21  H           1     -26.069  -4.007  -9.258  0.00  0.00     0.275 HD
HETATM   22  H           1     -25.639  -3.460 -10.816  0.00  0.00     0.275 HD
HETATM   23  H           1     -24.911  -2.767  -9.438  0.00  0.00     0.275 HD
ENDBRANCH  16  20
ENDBRANCH   4  16
TORSDOF 9
ENDMDL
MODEL 6
REMARK VINA RESULT:      -5.3     11.983     13.307
REMARK  9 active torsions:
REMARK  status: ('A' for Active; 'I' for Inactive)
REMARK    1  A    between atoms: N_1  and  C_5 
REMARK       I    between atoms: N_1  and  C_23 
REMARK    2  A    between atoms: C_2  and  C_18 
REMARK    3  A    between atoms: C_2  and  O_3 
REMARK    4  A    between atoms: C_4  and  C_10 
REMARK    5  A    between atoms: C_4  and  C_5 
REMARK    6  A    between atoms: C_5  and  C_16 
REMARK       I    between atoms: N_6  and  C_21 
REMARK    7  A    between atoms: C_10  and  C_21 
REMARK    8  A    between atoms: C_18  and  C_23 
REMARK    9  A    between atoms: C_18  and  N_22 
ROOT
HETATM    1  N           1     -21.417  -5.049  -6.653  0.00  0.00    -0.345 N 
HETATM    2  O           1     -21.219  -7.266  -6.824  0.00  0.00    -0.271 OA
HETATM    3  H           1     -21.431  -4.232  -6.055  0.00  0.00     0.163 HD
HETATM    4  C           1     -21.236  -6.292  -6.111  0.00  0.00     0.251 C 
ENDROOT
BRANCH   1   5
HETATM    5  C           1     -21.591  -4.900  -8.086  0.00  0.00     0.186 C 
BRANCH   5   6
HETATM    6  C           1     -22.653  -3.844  -8.361  0.00  0.00     0.045 C 
BRANCH   6   7
HETATM    7  C           1     -22.881  -3.732  -9.863  0.00  0.00     0.105 C 
BRANCH   7   8
HETATM    8  C           1     -24.359  -3.822 -10.156  0.00  0.00     0.215 C 
HETATM    9  N           1     -25.126  -4.763  -9.523  0.00  0.00    -0.370 N 
HETATM   10  H           1     -24.703  -5.398  -8.858  0.00  0.00     0.159 HD
HETATM   11  H           1     -26.117  -4.823  -9.719  0.00  0.00     0.159 HD
HETATM   12  O           1     -24.865  -3.064 -10.949  0.00  0.00    -0.274 OA
ENDBRANCH   7   8
ENDBRANCH   6   7
ENDBRANCH   5   6
BRANCH   5  13
HETATM   13  C           1     -20.284  -4.474  -8.707  0.00  0.00     0.196 C 
HETATM   14  O           1     -19.583  -3.601  -8.152  0.00  0.00    -0.646 OA
HETATM   15  O           1     -19.902  -4.996  -9.778  0.00  0.00    -0.646 OA
ENDBRANCH   5  13
ENDBRANCH   1   5
BRANCH   4  16
HETATM   16  C           1     -21.055  -6.446  -4.620  0.00  0.00     0.297 C 
BRANCH  16  17
HETATM   17  C           1     -20.656  -7.881  -4.303  0.00  0.00     0.206 C 
BRANCH  17  18
HETATM   18  O           1     -19.457  -8.190  -4.960  0.00  0.00    -0.398 OA
HETATM   19  H           1     -19.091  -8.941  -4.525  0.00  0.00     0.209 HD
ENDBRANCH  17  18
ENDBRANCH  16  17
BRANCH  16  20
HETATM   20  N           1     -22.344  -6.120  -3.925  0.00  0.00    -0.064 N 
HETATM   21  H           1     -22.140  -5.623  -3.030  0.00  0.00     0.275 HD
HETATM   22  H           1     -22.863  -7.005  -3.723  0.00  0.00     0.275 HD
HETATM   23  H           1     -22.926  -5.508  -4.540  0.00  0.00     0.275 HD
ENDBRANCH  16  20
ENDBRANCH   4  16
TORSDOF 9
ENDMDL
MODEL 7
REMARK VINA RESULT:      -5.2      2.008      2.354
REMARK  9 active torsions:
REMARK  status: ('A' for Active; 'I' for Inactive)
REMARK    1  A    between atoms: N_1  and  C_5 
REMARK       I    between atoms: N_1  and  C_23 
REMARK    2  A    between atoms: C_2  and  C_18 
REMARK    3  A    between atoms: C_2  and  O_3 
REMARK    4  A    between atoms: C_4  and  C_10 
REMARK    5  A    between atoms: C_4  and  C_5 
REMARK    6  A    between atoms: C_5  and  C_16 
REMARK       I    between atoms: N_6  and  C_21 
REMARK    7  A    between atoms: C_10  and  C_21 
REMARK    8  A    between atoms: C_18  and  C_23 
REMARK    9  A    between atoms: C_18  and  N_22 
ROOT
HETATM    1  N           1     -27.724  -6.588 -18.656  0.00  0.00    -0.345 N 
HETATM    2  O           1     -27.188  -5.572 -20.571  0.00  0.00    -0.271 OA
HETATM    3  H           1     -27.653  -7.412 -18.073  0.00  0.00     0.163 HD
HETATM    4  C           1     -27.104  -6.555 -19.876  0.00  0.00     0.251 C 
ENDROOT
BRANCH   1   5
HETATM    5  C           1     -28.484  -5.440 -18.198  0.00  0.00     0.186 C 
BRANCH   5   6
HETATM    6  C           1     -29.907  -5.872 -17.870  0.00  0.00     0.045 C 
BRANCH   6   7
HETATM    7  C           1     -30.385  -5.142 -16.622  0.00  0.00     0.105 C 
BRANCH   7   8
HETATM    8  C           1     -31.537  -4.235 -16.980  0.00  0.00     0.215 C 
HETATM    9  N           1     -32.807  -4.550 -16.576  0.00  0.00    -0.370 N 
HETATM   10  H           1     -32.973  -5.390 -16.038  0.00  0.00     0.159 HD
HETATM   11  H           1     -33.579  -3.942 -16.816  0.00  0.00     0.159 HD
HETATM   12  O           1     -31.339  -3.231 -17.623  0.00  0.00    -0.274 OA
ENDBRANCH   7   8
ENDBRANCH   6   7
ENDBRANCH   5   6
BRANCH   5  13
HETATM   13  C           1     -27.833  -4.869 -16.963  0.00  0.00     0.196 C 
HETATM   14  O           1     -27.261  -5.627 -16.150  0.00  0.00    -0.646 OA
HETATM   15  O           1     -27.866  -3.637 -16.753  0.00  0.00    -0.646 OA
ENDBRANCH   5  13
ENDBRANCH   1   5
BRANCH   4  16
HETATM   16  C           1     -26.313  -7.750 -20.352  0.00  0.00     0.297 C 
BRANCH  16  17
HETATM   17  C           1     -25.138  -7.277 -21.198  0.00  0.00     0.206 C 
BRANCH  17  18
HETATM   18  O           1     -24.735  -8.307 -22.058  0.00  0.00    -0.398 OA
HETATM   19  H           1     -23.887  -8.069 -22.393  0.00  0.00     0.209 HD
ENDBRANCH  17  18
ENDBRANCH  16  17
BRANCH  16  20
HETATM   20  N           1     -27.197  -8.637 -21.177  0.00  0.00    -0.064 N 
HETATM   21  H           1     -27.989  -8.983 -20.589  0.00  0.00     0.275 HD
HETATM   22  H           1     -26.643  -9.451 -21.528  0.00  0.00     0.275 HD
HETATM   23  H           1     -27.575  -8.097 -21.988  0.00  0.00     0.275 HD
ENDBRANCH  16  20
ENDBRANCH   4  16
TORSDOF 9
ENDMDL
MODEL 8
REMARK VINA RESULT:      -5.2     14.518     15.751
REMARK  9 active torsions:
REMARK  status: ('A' for Active; 'I' for Inactive)
REMARK    1  A    between atoms: N_1  and  C_5 
REMARK       I    between atoms: N_1  and  C_23 
REMARK    2  A    between atoms: C_2  and  C_18 
REMARK    3  A    between atoms: C_2  and  O_3 
REMARK    4  A    between atoms: C_4  and  C_10 
REMARK    5  A    between atoms: C_4  and  C_5 
REMARK    6  A    between atoms: C_5  and  C_16 
REMARK       I    between atoms: N_6  and  C_21 
REMARK    7  A    between atoms: C_10  and  C_21 
REMARK    8  A    between atoms: C_18  and  C_23 
REMARK    9  A    between atoms: C_18  and  N_22 
ROOT
HETATM    1  N           1     -21.578  -5.690  -5.636  0.00  0.00    -0.345 N 
HETATM    2  O           1     -19.694  -4.492  -5.610  0.00  0.00    -0.271 OA
HETATM    3  H           1     -22.468  -5.881  -6.080  0.00  0.00     0.163 HD
HETATM    4  C           1     -20.755  -4.719  -6.139  0.00  0.00     0.251 C 
ENDROOT
BRANCH   1   5
HETATM    5  C           1     -21.177  -6.446  -4.465  0.00  0.00     0.186 C 
BRANCH   5   6
HETATM    6  C           1     -22.352  -6.555  -3.503  0.00  0.00     0.045 C 
BRANCH   6   7
HETATM    7  C           1     -21.927  -6.068  -2.124  0.00  0.00     0.105 C 
BRANCH   7   8
HETATM    8  C           1     -22.056  -7.196  -1.130  0.00  0.00     0.215 C 
HETATM    9  N           1     -21.147  -8.221  -1.136  0.00  0.00    -0.370 N 
HETATM   10  H           1     -20.389  -8.221  -1.806  0.00  0.00     0.159 HD
HETATM   11  H           1     -21.234  -8.977  -0.470  0.00  0.00     0.159 HD
HETATM   12  O           1     -22.961  -7.196  -0.330  0.00  0.00    -0.274 OA
ENDBRANCH   7   8
ENDBRANCH   6   7
ENDBRANCH   5   6
BRANCH   5  13
HETATM   13  C           1     -20.741  -7.828  -4.886  0.00  0.00     0.196 C 
HETATM   14  O           1     -20.029  -8.519  -4.125  0.00  0.00    -0.646 OA
HETATM   15  O           1     -21.093  -8.283  -5.997  0.00  0.00    -0.646 OA
ENDBRANCH   5  13
ENDBRANCH   1   5
BRANCH   4  16
HETATM   16  C           1     -21.174  -3.932  -7.358  0.00  0.00     0.297 C 
BRANCH  16  17
HETATM   17  C           1     -22.367  -4.613  -8.015  0.00  0.00     0.206 C 
BRANCH  17  18
HETATM   18  O           1     -23.546  -4.218  -7.369  0.00  0.00    -0.398 OA
HETATM   19  H           1     -24.254  -4.370  -7.972  0.00  0.00     0.209 HD
ENDBRANCH  17  18
ENDBRANCH  16  17
BRANCH  16  20
HETATM   20  N           1     -20.033  -3.874  -8.330  0.00  0.00    -0.064 N 
HETATM   21  H           1     -19.149  -4.146  -7.846  0.00  0.00     0.275 HD
HETATM   22  H           1     -19.942  -2.901  -8.702  0.00  0.00     0.275 HD
HETATM   23  H           1     -20.214  -4.533  -9.121  0.00  0.00     0.275 HD
ENDBRANCH  16  20
ENDBRANCH   4  16
TORSDOF 9
ENDMDL
MODEL 9
REMARK VINA RESULT:      -5.1     11.146     12.684
REMARK  9 active torsions:
REMARK  status: ('A' for Active; 'I' for Inactive)
REMARK    1  A    between atoms: N_1  and  C_5 
REMARK       I    between atoms: N_1  and  C_23 
REMARK    2  A    between atoms: C_2  and  C_18 
REMARK    3  A    between atoms: C_2  and  O_3 
REMARK    4  A    between atoms: C_4  and  C_10 
REMARK    5  A    between atoms: C_4  and  C_5 
REMARK    6  A    between atoms: C_5  and  C_16 
REMARK       I    between atoms: N_6  and  C_21 
REMARK    7  A    between atoms: C_10  and  C_21 
REMARK    8  A    between atoms: C_18  and  C_23 
REMARK    9  A    between atoms: C_18  and  N_22 
ROOT
HETATM    1  N           1     -22.267  -5.012  -7.445  0.00  0.00    -0.345 N 
HETATM    2  O           1     -20.415  -4.071  -6.628  0.00  0.00    -0.271 OA
HETATM    3  H           1     -23.012  -5.687  -7.324  0.00  0.00     0.163 HD
HETATM    4  C           1     -21.303  -4.875  -6.483  0.00  0.00     0.251 C 
ENDROOT
BRANCH   1   5
HETATM    5  C           1     -22.221  -4.192  -8.641  0.00  0.00     0.186 C 
BRANCH   5   6
HETATM    6  C           1     -21.190  -4.761  -9.607  0.00  0.00     0.045 C 
BRANCH   6   7
HETATM    7  C           1     -20.513  -3.622 -10.356  0.00  0.00     0.105 C 
BRANCH   7   8
HETATM    8  C           1     -21.326  -3.269 -11.578  0.00  0.00     0.215 C 
HETATM    9  N           1     -21.573  -4.219 -12.533  0.00  0.00    -0.370 N 
HETATM   10  H           1     -21.210  -5.157 -12.420  0.00  0.00     0.159 HD
HETATM   11  H           1     -22.118  -3.983 -13.352  0.00  0.00     0.159 HD
HETATM   12  O           1     -21.759  -2.150 -11.713  0.00  0.00    -0.274 OA
ENDBRANCH   7   8
ENDBRANCH   6   7
ENDBRANCH   5   6
BRANCH   5  13
HETATM   13  C           1     -23.579  -4.188  -9.298  0.00  0.00     0.196 C 
HETATM   14  O           1     -24.372  -3.245  -9.089  0.00  0.00    -0.646 OA
HETATM   15  O           1     -23.910  -5.128 -10.054  0.00  0.00    -0.646 OA
ENDBRANCH   5  13
ENDBRANCH   1   5
BRANCH   4  16
HETATM   16  C           1     -21.352  -5.729  -5.239  0.00  0.00     0.297 C 
BRANCH  16  17
HETATM   17  C           1     -20.418  -6.920  -5.405  0.00  0.00     0.206 C 
BRANCH  17  18
HETATM   18  O           1     -19.866  -6.907  -6.693  0.00  0.00    -0.398 OA
HETATM   19  H           1     -20.439  -6.389  -7.232  0.00  0.00     0.209 HD
ENDBRANCH  17  18
ENDBRANCH  16  17
BRANCH  16  20
HETATM   20  N           1     -22.754  -6.218  -5.025  0.00  0.00    -0.064 N 
HETATM   21  H           1     -23.059  -6.774  -5.855  0.00  0.00     0.275 HD
HETATM   22  H           1     -23.392  -5.400  -4.898  0.00  0.00     0.275 HD
HETATM   23  H           1     -22.786  -6.820  -4.171  0.00  0.00     0.275 HD
ENDBRANCH  16  20
ENDBRANCH   4  16
TORSDOF 9
ENDMDL
