MODEL 1
REMARK VINA RESULT:      -5.7      0.000      0.000
REMARK  9 active torsions:
REMARK  status: ('A' for Active; 'I' for Inactive)
REMARK    1  A    between atoms: N_3  and  C_7 
REMARK    2  A    between atoms: Se_5  and  C_19 
REMARK    3  A    between atoms: C_7  and  C_8 
REMARK    4  A    between atoms: C_7  and  C_20 
REMARK       I    between atoms: C_8  and  N_9 
REMARK    5  A    between atoms: N_9  and  C_13 
REMARK    6  A    between atoms: C_12  and  C_13 
REMARK    7  A    between atoms: C_13  and  C_14 
REMARK    8  A    between atoms: C_14  and  O_15 
REMARK    9  A    between atoms: C_19  and  C_20 
ROOT
HETATM    1  H           1     -22.247  -5.762  -9.463  0.00  0.00     0.163 HD
HETATM    2  O           1     -21.550  -3.522  -7.379  0.00  0.00    -0.271 OA
HETATM    3  C           1     -21.645  -4.638  -7.833  0.00  0.00     0.249 C 
HETATM    4  N           1     -22.169  -4.827  -9.083  0.00  0.00    -0.343 N 
ENDROOT
BRANCH   3   5
HETATM    5  C           1     -21.184  -5.824  -7.020  0.00  0.00     0.274 C 
BRANCH   5   6
HETATM    6  N           1     -19.790  -6.198  -7.429  0.00  0.00    -0.067 N 
HETATM    7  H           1     -19.827  -6.810  -8.276  0.00  0.00     0.275 HD
HETATM    8  H           1     -19.247  -5.333  -7.646  0.00  0.00     0.275 HD
HETATM    9  H           1     -19.326  -6.715  -6.648  0.00  0.00     0.275 HD
ENDBRANCH   5   6
BRANCH   5  10
HETATM   10  C           1     -21.199  -5.464  -5.541  0.00  0.00     0.042 C 
BRANCH  10  11
HETATM   11  C           1     -22.159  -6.388  -4.802  0.00  0.00     0.003 C 
BRANCH  11  12
HETATM   12 Se           1     -21.229  -7.237  -3.315  0.00  0.00     0.000 Se
HETATM   13  C           1     -22.214  -6.274  -1.935  0.00  0.00     0.000 C 
ENDBRANCH  11  12
ENDBRANCH  10  11
ENDBRANCH   5  10
ENDBRANCH   3   5
BRANCH   4  14
HETATM   14  C           1     -22.611  -3.687  -9.862  0.00  0.00     0.209 C 
BRANCH  14  15
HETATM   15  C           1     -24.068  -3.854 -10.217  0.00  0.00     0.198 C 
HETATM   16  O           1     -24.690  -2.918 -10.764  0.00  0.00    -0.646 OA
HETATM   17  O           1     -24.653  -4.930  -9.962  0.00  0.00    -0.646 OA
ENDBRANCH  14  15
BRANCH  14  18
HETATM   18  C           1     -21.785  -3.596 -11.140  0.00  0.00     0.200 C 
BRANCH  18  19
HETATM   19  O           1     -22.408  -4.336 -12.154  0.00  0.00    -0.398 OA
HETATM   20  H           1     -22.399  -3.801 -12.929  0.00  0.00     0.209 HD
ENDBRANCH  18  19
ENDBRANCH  14  18
ENDBRANCH   4  14
TORSDOF 9
ENDMDL
MODEL 2
REMARK VINA RESULT:      -5.6     13.648     14.798
REMARK  9 active torsions:
REMARK  status: ('A' for Active; 'I' for Inactive)
REMARK    1  A    between atoms: N_3  and  C_7 
REMARK    2  A    between atoms: Se_5  and  C_19 
REMARK    3  A    between atoms: C_7  and  C_8 
REMARK    4  A    between atoms: C_7  and  C_20 
REMARK       I    between atoms: C_8  and  N_9 
REMARK    5  A    between atoms: N_9  and  C_13 
REMARK    6  A    between atoms: C_12  and  C_13 
REMARK    7  A    between atoms: C_13  and  C_14 
REMARK    8  A    between atoms: C_14  and  O_15 
REMARK    9  A    between atoms: C_19  and  C_20 
ROOT
HETATM    1  H           1     -34.054  -0.568 -14.178  0.00  0.00     0.163 HD
HETATM    2  O           1     -36.704  -1.192 -12.619  0.00  0.00    -0.271 OA
HETATM    3  C           1     -35.515  -1.128 -12.824  0.00  0.00     0.249 C 
HETATM    4  N           1     -35.050  -0.622 -14.007  0.00  0.00    -0.343 N 
ENDROOT
BRANCH   3   5
HETATM    5  C           1     -34.542  -1.607 -11.774  0.00  0.00     0.274 C 
BRANCH   5   6
HETATM    6  N           1     -35.216  -1.610 -10.433  0.00  0.00    -0.067 N 
HETATM    7  H           1     -36.086  -2.187 -10.480  0.00  0.00     0.275 HD
HETATM    8  H           1     -34.568  -2.012  -9.719  0.00  0.00     0.275 HD
HETATM    9  H           1     -35.463  -0.630 -10.167  0.00  0.00     0.275 HD
ENDBRANCH   5   6
BRANCH   5  10
HETATM   10  C           1     -34.082  -3.019 -12.113  0.00  0.00     0.042 C 
BRANCH  10  11
HETATM   11  C           1     -34.648  -3.997 -11.092  0.00  0.00     0.003 C 
BRANCH  11  12
HETATM   12 Se           1     -33.609  -5.645 -11.125  0.00  0.00     0.000 Se
HETATM   13  C           1     -34.851  -6.644 -10.002  0.00  0.00     0.000 C 
ENDBRANCH  11  12
ENDBRANCH  10  11
ENDBRANCH   5  10
ENDBRANCH   3   5
BRANCH   4  14
HETATM   14  C           1     -35.985  -0.161 -15.015  0.00  0.00     0.209 C 
BRANCH  14  15
HETATM   15  C           1     -35.884  -1.044 -16.235  0.00  0.00     0.198 C 
HETATM   16  O           1     -36.637  -0.846 -17.213  0.00  0.00    -0.646 OA
HETATM   17  O           1     -35.047  -1.973 -16.267  0.00  0.00    -0.646 OA
ENDBRANCH  14  15
BRANCH  14  18
HETATM   18  C           1     -35.651   1.275 -15.398  0.00  0.00     0.200 C 
BRANCH  18  19
HETATM   19  O           1     -36.747   1.851 -16.055  0.00  0.00    -0.398 OA
HETATM   20  H           1     -36.448   2.662 -16.429  0.00  0.00     0.209 HD
ENDBRANCH  18  19
ENDBRANCH  14  18
ENDBRANCH   4  14
TORSDOF 9
ENDMDL
MODEL 3
REMARK VINA RESULT:      -5.2     10.441     11.988
REMARK  9 active torsions:
REMARK  status: ('A' for Active; 'I' for Inactive)
REMARK    1  A    between atoms: N_3  and  C_7 
REMARK    2  A    between atoms: Se_5  and  C_19 
REMARK    3  A    between atoms: C_7  and  C_8 
REMARK    4  A    between atoms: C_7  and  C_20 
REMARK       I    between atoms: C_8  and  N_9 
REMARK    5  A    between atoms: N_9  and  C_13 
REMARK    6  A    between atoms: C_12  and  C_13 
REMARK    7  A    between atoms: C_13  and  C_14 
REMARK    8  A    between atoms: C_14  and  O_15 
REMARK    9  A    between atoms: C_19  and  C_20 
ROOT
HETATM    1  H           1     -27.286  -6.121 -17.868  0.00  0.00     0.163 HD
HETATM    2  O           1     -26.051  -7.468 -15.318  0.00  0.00    -0.271 OA
HETATM    3  C           1     -26.077  -6.965 -16.417  0.00  0.00     0.249 C 
HETATM    4  N           1     -27.265  -6.543 -16.949  0.00  0.00    -0.343 N 
ENDROOT
BRANCH   3   5
HETATM    5  C           1     -24.798  -6.802 -17.202  0.00  0.00     0.274 C 
BRANCH   5   6
HETATM    6  N           1     -23.875  -7.946 -16.896  0.00  0.00    -0.067 N 
HETATM    7  H           1     -22.916  -7.578 -16.703  0.00  0.00     0.275 HD
HETATM    8  H           1     -24.226  -8.462 -16.059  0.00  0.00     0.275 HD
HETATM    9  H           1     -23.841  -8.593 -17.716  0.00  0.00     0.275 HD
ENDBRANCH   5   6
BRANCH   5  10
HETATM   10  C           1     -25.114  -6.790 -18.692  0.00  0.00     0.042 C 
BRANCH  10  11
HETATM   11  C           1     -23.982  -7.463 -19.457  0.00  0.00     0.003 C 
BRANCH  11  12
HETATM   12 Se           1     -24.587  -7.907 -21.255  0.00  0.00     0.000 Se
HETATM   13  C           1     -22.824  -8.442 -21.893  0.00  0.00     0.000 C 
ENDBRANCH  11  12
ENDBRANCH  10  11
ENDBRANCH   5  10
ENDBRANCH   3   5
BRANCH   4  14
HETATM   14  C           1     -28.493  -6.699 -16.193  0.00  0.00     0.209 C 
BRANCH  14  15
HETATM   15  C           1     -29.615  -7.074 -17.130  0.00  0.00     0.198 C 
HETATM   16  O           1     -30.410  -6.198 -17.535  0.00  0.00    -0.646 OA
HETATM   17  O           1     -29.750  -8.260 -17.501  0.00  0.00    -0.646 OA
ENDBRANCH  14  15
BRANCH  14  18
HETATM   18  C           1     -28.830  -5.388 -15.496  0.00  0.00     0.200 C 
BRANCH  18  19
HETATM   19  O           1     -30.023  -5.534 -14.775  0.00  0.00    -0.398 OA
HETATM   20  H           1     -30.594  -6.071 -15.296  0.00  0.00     0.209 HD
ENDBRANCH  18  19
ENDBRANCH  14  18
ENDBRANCH   4  14
TORSDOF 9
ENDMDL
MODEL 4
REMARK VINA RESULT:      -5.1     13.669     15.093
REMARK  9 active torsions:
REMARK  status: ('A' for Active; 'I' for Inactive)
REMARK    1  A    between atoms: N_3  and  C_7 
REMARK    2  A    between atoms: Se_5  and  C_19 
REMARK    3  A    between atoms: C_7  and  C_8 
REMARK    4  A    between atoms: C_7  and  C_20 
REMARK       I    between atoms: C_8  and  N_9 
REMARK    5  A    between atoms: N_9  and  C_13 
REMARK    6  A    between atoms: C_12  and  C_13 
REMARK    7  A    between atoms: C_13  and  C_14 
REMARK    8  A    between atoms: C_14  and  O_15 
REMARK    9  A    between atoms: C_19  and  C_20 
ROOT
HETATM    1  H           1     -35.478  -1.997 -14.229  0.00  0.00     0.163 HD
HETATM    2  O           1     -35.002   0.740 -12.769  0.00  0.00    -0.271 OA
HETATM    3  C           1     -35.024  -0.459 -12.920  0.00  0.00     0.249 C 
HETATM    4  N           1     -35.461  -0.993 -14.102  0.00  0.00    -0.343 N 
ENDROOT
BRANCH   3   5
HETATM    5  C           1     -34.568  -1.367 -11.805  0.00  0.00     0.274 C 
BRANCH   5   6
HETATM    6  N           1     -35.555  -1.307 -10.676  0.00  0.00    -0.067 N 
HETATM    7  H           1     -36.413  -1.845 -10.933  0.00  0.00     0.275 HD
HETATM    8  H           1     -35.127  -1.720  -9.818  0.00  0.00     0.275 HD
HETATM    9  H           1     -35.812  -0.310 -10.492  0.00  0.00     0.275 HD
ENDBRANCH   5   6
BRANCH   5  10
HETATM   10  C           1     -34.473  -2.797 -12.320  0.00  0.00     0.042 C 
BRANCH  10  11
HETATM   11  C           1     -34.916  -3.761 -11.227  0.00  0.00     0.003 C 
BRANCH  11  12
HETATM   12 Se           1     -34.625  -5.595 -11.820  0.00  0.00     0.000 Se
HETATM   13  C           1     -34.577  -6.343 -10.020  0.00  0.00     0.000 C 
ENDBRANCH  11  12
ENDBRANCH  10  11
ENDBRANCH   5  10
ENDBRANCH   3   5
BRANCH   4  14
HETATM   14  C           1     -35.899  -0.119 -15.173  0.00  0.00     0.209 C 
BRANCH  14  15
HETATM   15  C           1     -37.402   0.008 -15.136  0.00  0.00     0.198 C 
HETATM   16  O           1     -37.976   0.861 -15.848  0.00  0.00    -0.646 OA
HETATM   17  O           1     -38.074  -0.740 -14.393  0.00  0.00    -0.646 OA
ENDBRANCH  14  15
BRANCH  14  18
HETATM   18  C           1     -35.472  -0.705 -16.513  0.00  0.00     0.200 C 
BRANCH  18  19
HETATM   19  O           1     -36.608  -0.975 -17.289  0.00  0.00    -0.398 OA
HETATM   20  H           1     -37.350  -0.943 -16.710  0.00  0.00     0.209 HD
ENDBRANCH  18  19
ENDBRANCH  14  18
ENDBRANCH   4  14
TORSDOF 9
ENDMDL
MODEL 5
REMARK VINA RESULT:      -5.1     11.826     13.054
REMARK  9 active torsions:
REMARK  status: ('A' for Active; 'I' for Inactive)
REMARK    1  A    between atoms: N_3  and  C_7 
REMARK    2  A    between atoms: Se_5  and  C_19 
REMARK    3  A    between atoms: C_7  and  C_8 
REMARK    4  A    between atoms: C_7  and  C_20 
REMARK       I    between atoms: C_8  and  N_9 
REMARK    5  A    between atoms: N_9  and  C_13 
REMARK    6  A    between atoms: C_12  and  C_13 
REMARK    7  A    between atoms: C_13  and  C_14 
REMARK    8  A    between atoms: C_14  and  O_15 
REMARK    9  A    between atoms: C_19  and  C_20 
ROOT
HETATM    1  H           1     -27.116  -8.135 -18.751  0.00  0.00     0.163 HD
HETATM    2  O           1     -28.297  -5.300 -19.397  0.00  0.00    -0.271 OA
HETATM    3  C           1     -28.186  -6.365 -18.837  0.00  0.00     0.249 C 
HETATM    4  N           1     -27.209  -7.243 -19.221  0.00  0.00    -0.343 N 
ENDROOT
BRANCH   3   5
HETATM    5  C           1     -29.125  -6.726 -17.712  0.00  0.00     0.274 C 
BRANCH   5   6
HETATM    6  N           1     -29.268  -8.218 -17.640  0.00  0.00    -0.067 N 
HETATM    7  H           1     -30.110  -8.461 -17.071  0.00  0.00     0.275 HD
HETATM    8  H           1     -29.374  -8.604 -18.604  0.00  0.00     0.275 HD
HETATM    9  H           1     -28.416  -8.627 -17.192  0.00  0.00     0.275 HD
ENDBRANCH   5   6
BRANCH   5  10
HETATM   10  C           1     -28.565  -6.206 -16.395  0.00  0.00     0.042 C 
BRANCH  10  11
HETATM   11  C           1     -29.659  -5.471 -15.631  0.00  0.00     0.003 C 
BRANCH  11  12
HETATM   12 Se           1     -31.133  -5.064 -16.839  0.00  0.00     0.000 Se
HETATM   13  C           1     -30.372  -3.381 -17.464  0.00  0.00     0.000 C 
ENDBRANCH  11  12
ENDBRANCH  10  11
ENDBRANCH   5  10
ENDBRANCH   3   5
BRANCH   4  14
HETATM   14  C           1     -26.308  -6.896 -20.302  0.00  0.00     0.209 C 
BRANCH  14  15
HETATM   15  C           1     -26.204  -8.054 -21.264  0.00  0.00     0.198 C 
HETATM   16  O           1     -25.118  -8.300 -21.832  0.00  0.00    -0.646 OA
HETATM   17  O           1     -27.205  -8.769 -21.491  0.00  0.00    -0.646 OA
ENDBRANCH  14  15
BRANCH  14  18
HETATM   18  C           1     -24.929  -6.584 -19.733  0.00  0.00     0.200 C 
BRANCH  18  19
HETATM   19  O           1     -24.499  -7.654 -18.936  0.00  0.00    -0.398 OA
HETATM   20  H           1     -24.160  -8.311 -19.520  0.00  0.00     0.209 HD
ENDBRANCH  18  19
ENDBRANCH  14  18
ENDBRANCH   4  14
TORSDOF 9
ENDMDL
MODEL 6
REMARK VINA RESULT:      -4.9     10.726     12.487
REMARK  9 active torsions:
REMARK  status: ('A' for Active; 'I' for Inactive)
REMARK    1  A    between atoms: N_3  and  C_7 
REMARK    2  A    between atoms: Se_5  and  C_19 
REMARK    3  A    between atoms: C_7  and  C_8 
REMARK    4  A    between atoms: C_7  and  C_20 
REMARK       I    between atoms: C_8  and  N_9 
REMARK    5  A    between atoms: N_9  and  C_13 
REMARK    6  A    between atoms: C_12  and  C_13 
REMARK    7  A    between atoms: C_13  and  C_14 
REMARK    8  A    between atoms: C_14  and  O_15 
REMARK    9  A    between atoms: C_19  and  C_20 
ROOT
HETATM    1  H           1     -27.643  -8.315 -18.927  0.00  0.00     0.163 HD
HETATM    2  O           1     -28.439  -5.281 -19.031  0.00  0.00    -0.271 OA
HETATM    3  C           1     -28.460  -6.431 -18.661  0.00  0.00     0.249 C 
HETATM    4  N           1     -27.627  -7.352 -19.237  0.00  0.00    -0.343 N 
ENDROOT
BRANCH   3   5
HETATM    5  C           1     -29.404  -6.852 -17.562  0.00  0.00     0.274 C 
BRANCH   5   6
HETATM    6  N           1     -29.379  -8.347 -17.427  0.00  0.00    -0.067 N 
HETATM    7  H           1     -30.279  -8.744 -17.779  0.00  0.00     0.275 HD
HETATM    8  H           1     -28.585  -8.733 -17.985  0.00  0.00     0.275 HD
HETATM    9  H           1     -29.256  -8.603 -16.421  0.00  0.00     0.275 HD
ENDBRANCH   5   6
BRANCH   5  10
HETATM   10  C           1     -28.971  -6.217 -16.247  0.00  0.00     0.042 C 
BRANCH  10  11
HETATM   11  C           1     -27.776  -6.976 -15.686  0.00  0.00     0.003 C 
BRANCH  11  12
HETATM   12 Se           1     -26.146  -5.959 -16.012  0.00  0.00     0.000 Se
HETATM   13  C           1     -24.962  -7.503 -15.891  0.00  0.00     0.000 C 
ENDBRANCH  11  12
ENDBRANCH  10  11
ENDBRANCH   5  10
ENDBRANCH   3   5
BRANCH   4  14
HETATM   14  C           1     -26.720  -6.946 -20.293  0.00  0.00     0.209 C 
BRANCH  14  15
HETATM   15  C           1     -26.516  -8.095 -21.251  0.00  0.00     0.198 C 
HETATM   16  O           1     -27.465  -8.864 -21.515  0.00  0.00    -0.646 OA
HETATM   17  O           1     -25.397  -8.277 -21.779  0.00  0.00    -0.646 OA
ENDBRANCH  14  15
BRANCH  14  18
HETATM   18  C           1     -25.381  -6.547 -19.686  0.00  0.00     0.200 C 
BRANCH  18  19
HETATM   19  O           1     -24.713  -7.692 -19.230  0.00  0.00    -0.398 OA
HETATM   20  H           1     -24.753  -8.327 -19.924  0.00  0.00     0.209 HD
ENDBRANCH  18  19
ENDBRANCH  14  18
ENDBRANCH   4  14
TORSDOF 9
ENDMDL
MODEL 7
REMARK VINA RESULT:      -4.7     13.043     14.440
REMARK  9 active torsions:
REMARK  status: ('A' for Active; 'I' for Inactive)
REMARK    1  A    between atoms: N_3  and  C_7 
REMARK    2  A    between atoms: Se_5  and  C_19 
REMARK    3  A    between atoms: C_7  and  C_8 
REMARK    4  A    between atoms: C_7  and  C_20 
REMARK       I    between atoms: C_8  and  N_9 
REMARK    5  A    between atoms: N_9  and  C_13 
REMARK    6  A    between atoms: C_12  and  C_13 
REMARK    7  A    between atoms: C_13  and  C_14 
REMARK    8  A    between atoms: C_14  and  O_15 
REMARK    9  A    between atoms: C_19  and  C_20 
ROOT
HETATM    1  H           1     -34.649  -1.661 -14.775  0.00  0.00     0.163 HD
HETATM    2  O           1     -35.858  -1.849 -11.886  0.00  0.00    -0.271 OA
HETATM    3  C           1     -35.220  -2.184 -12.856  0.00  0.00     0.249 C 
HETATM    4  N           1     -35.183  -1.380 -13.963  0.00  0.00    -0.343 N 
ENDROOT
BRANCH   3   5
HETATM    5  C           1     -34.465  -3.491 -12.847  0.00  0.00     0.274 C 
BRANCH   5   6
HETATM    6  N           1     -33.969  -3.790 -14.231  0.00  0.00    -0.067 N 
HETATM    7  H           1     -34.513  -4.587 -14.633  0.00  0.00     0.275 HD
HETATM    8  H           1     -34.089  -2.946 -14.834  0.00  0.00     0.275 HD
HETATM    9  H           1     -32.956  -4.047 -14.189  0.00  0.00     0.275 HD
ENDBRANCH   5   6
BRANCH   5  10
HETATM   10  C           1     -33.280  -3.387 -11.895  0.00  0.00     0.042 C 
BRANCH  10  11
HETATM   11  C           1     -33.690  -3.892 -10.518  0.00  0.00     0.003 C 
BRANCH  11  12
HETATM   12 Se           1     -35.183  -5.130 -10.696  0.00  0.00     0.000 Se
HETATM   13  C           1     -34.071  -6.732 -10.680  0.00  0.00     0.000 C 
ENDBRANCH  11  12
ENDBRANCH  10  11
ENDBRANCH   5  10
ENDBRANCH   3   5
BRANCH   4  14
HETATM   14  C           1     -35.910  -0.125 -13.970  0.00  0.00     0.209 C 
BRANCH  14  15
HETATM   15  C           1     -36.830  -0.084 -15.166  0.00  0.00     0.198 C 
HETATM   16  O           1     -36.767   0.872 -15.970  0.00  0.00    -0.646 OA
HETATM   17  O           1     -37.654  -1.005 -15.353  0.00  0.00    -0.646 OA
ENDBRANCH  14  15
BRANCH  14  18
HETATM   18  C           1     -34.922   1.032 -14.049  0.00  0.00     0.200 C 
BRANCH  18  19
HETATM   19  O           1     -33.908   0.721 -14.966  0.00  0.00    -0.398 OA
HETATM   20  H           1     -33.096   1.004 -14.583  0.00  0.00     0.209 HD
ENDBRANCH  18  19
ENDBRANCH  14  18
ENDBRANCH   4  14
TORSDOF 9
ENDMDL
MODEL 8
REMARK VINA RESULT:      -4.7     10.494     12.442
REMARK  9 active torsions:
REMARK  status: ('A' for Active; 'I' for Inactive)
REMARK    1  A    between atoms: N_3  and  C_7 
REMARK    2  A    between atoms: Se_5  and  C_19 
REMARK    3  A    between atoms: C_7  and  C_8 
REMARK    4  A    between atoms: C_7  and  C_20 
REMARK       I    between atoms: C_8  and  N_9 
REMARK    5  A    between atoms: N_9  and  C_13 
REMARK    6  A    between atoms: C_12  and  C_13 
REMARK    7  A    between atoms: C_13  and  C_14 
REMARK    8  A    between atoms: C_14  and  O_15 
REMARK    9  A    between atoms: C_19  and  C_20 
ROOT
HETATM    1  H           1     -28.001  -7.724 -16.934  0.00  0.00     0.163 HD
HETATM    2  O           1     -28.601  -5.340 -18.884  0.00  0.00    -0.271 OA
HETATM    3  C           1     -28.745  -6.418 -18.357  0.00  0.00     0.249 C 
HETATM    4  N           1     -27.880  -6.821 -17.376  0.00  0.00    -0.343 N 
ENDROOT
BRANCH   3   5
HETATM    5  C           1     -29.878  -7.319 -18.781  0.00  0.00     0.274 C 
BRANCH   5   6
HETATM    6  N           1     -29.419  -8.748 -18.750  0.00  0.00    -0.067 N 
HETATM    7  H           1     -30.239  -9.375 -18.584  0.00  0.00     0.275 HD
HETATM    8  H           1     -28.974  -8.990 -19.663  0.00  0.00     0.275 HD
HETATM    9  H           1     -28.724  -8.872 -17.979  0.00  0.00     0.275 HD
ENDBRANCH   5   6
BRANCH   5  10
HETATM   10  C           1     -31.053  -7.143 -17.828  0.00  0.00     0.042 C 
BRANCH  10  11
HETATM   11  C           1     -30.701  -6.101 -16.775  0.00  0.00     0.003 C 
BRANCH  11  12
HETATM   12 Se           1     -32.078  -4.723 -16.737  0.00  0.00     0.000 Se
HETATM   13  C           1     -31.027  -3.415 -17.730  0.00  0.00     0.000 C 
ENDBRANCH  11  12
ENDBRANCH  10  11
ENDBRANCH   5  10
ENDBRANCH   3   5
BRANCH   4  14
HETATM   14  C           1     -26.792  -5.954 -16.969  0.00  0.00     0.209 C 
BRANCH  14  15
HETATM   15  C           1     -25.660  -6.790 -16.423  0.00  0.00     0.198 C 
HETATM   16  O           1     -24.576  -6.857 -17.043  0.00  0.00    -0.646 OA
HETATM   17  O           1     -25.807  -7.417 -15.351  0.00  0.00    -0.646 OA
ENDBRANCH  14  15
BRANCH  14  18
HETATM   18  C           1     -27.282  -4.997 -15.891  0.00  0.00     0.200 C 
BRANCH  18  19
HETATM   19  O           1     -27.737  -3.813 -16.487  0.00  0.00    -0.398 OA
HETATM   20  H           1     -27.041  -3.183 -16.413  0.00  0.00     0.209 HD
ENDBRANCH  18  19
ENDBRANCH  14  18
ENDBRANCH   4  14
TORSDOF 9
ENDMDL
MODEL 9
REMARK VINA RESULT:      -4.6      2.374      3.474
REMARK  9 active torsions:
REMARK  status: ('A' for Active; 'I' for Inactive)
REMARK    1  A    between atoms: N_3  and  C_7 
REMARK    2  A    between atoms: Se_5  and  C_19 
REMARK    3  A    between atoms: C_7  and  C_8 
REMARK    4  A    between atoms: C_7  and  C_20 
REMARK       I    between atoms: C_8  and  N_9 
REMARK    5  A    between atoms: N_9  and  C_13 
REMARK    6  A    between atoms: C_12  and  C_13 
REMARK    7  A    between atoms: C_13  and  C_14 
REMARK    8  A    between atoms: C_14  and  O_15 
REMARK    9  A    between atoms: C_19  and  C_20 
ROOT
HETATM    1  H           1     -21.574  -4.160  -6.178  0.00  0.00     0.163 HD
HETATM    2  O           1     -21.089  -7.208  -6.742  0.00  0.00    -0.271 OA
HETATM    3  C           1     -21.216  -6.197  -6.093  0.00  0.00     0.249 C 
HETATM    4  N           1     -21.467  -5.007  -6.721  0.00  0.00    -0.343 N 
ENDROOT
BRANCH   3   5
HETATM    5  C           1     -21.098  -6.246  -4.590  0.00  0.00     0.274 C 
BRANCH   5   6
HETATM    6  N           1     -22.459  -6.095  -3.976  0.00  0.00    -0.067 N 
HETATM    7  H           1     -22.404  -6.292  -2.951  0.00  0.00     0.275 HD
HETATM    8  H           1     -22.801  -5.119  -4.126  0.00  0.00     0.275 HD
HETATM    9  H           1     -23.119  -6.769  -4.426  0.00  0.00     0.275 HD
ENDBRANCH   5   6
BRANCH   5  10
HETATM   10  C           1     -20.498  -7.582  -4.170  0.00  0.00     0.042 C 
BRANCH  10  11
HETATM   11  C           1     -21.445  -8.283  -3.204  0.00  0.00     0.003 C 
BRANCH  11  12
HETATM   12 Se           1     -20.726  -8.179  -1.396  0.00  0.00     0.000 Se
HETATM   13  C           1     -22.291  -7.287  -0.649  0.00  0.00     0.000 C 
ENDBRANCH  11  12
ENDBRANCH  10  11
ENDBRANCH   5  10
ENDBRANCH   3   5
BRANCH   4  14
HETATM   14  C           1     -21.581  -4.961  -8.166  0.00  0.00     0.209 C 
BRANCH  14  15
HETATM   15  C           1     -20.261  -4.533  -8.761  0.00  0.00     0.198 C 
HETATM   16  O           1     -20.057  -4.664  -9.987  0.00  0.00    -0.646 OA
HETATM   17  O           1     -19.374  -4.047  -8.027  0.00  0.00    -0.646 OA
ENDBRANCH  14  15
BRANCH  14  18
HETATM   18  C           1     -22.662  -3.962  -8.558  0.00  0.00     0.200 C 
BRANCH  18  19
HETATM   19  O           1     -23.799  -4.167  -7.763  0.00  0.00    -0.398 OA
HETATM   20  H           1     -24.331  -4.807  -8.205  0.00  0.00     0.209 HD
ENDBRANCH  18  19
ENDBRANCH  14  18
ENDBRANCH   4  14
TORSDOF 9
ENDMDL
