MODEL 1
REMARK VINA RESULT:      -5.3      0.000      0.000
REMARK  8 active torsions:
REMARK  status: ('A' for Active; 'I' for Inactive)
REMARK       I    between atoms: C_2  and  N_3 
REMARK    1  A    between atoms: C_2  and  C_18 
REMARK    2  A    between atoms: N_3  and  C_14 
REMARK    3  A    between atoms: Se_6  and  C_20 
REMARK    4  A    between atoms: C_9  and  C_18 
REMARK    5  A    between atoms: C_9  and  C_13 
REMARK    6  A    between atoms: N_11  and  C_18 
REMARK    7  A    between atoms: C_14  and  C_20 
REMARK    8  A    between atoms: C_14  and  C_17 
ROOT
HETATM    1  C           1     -26.266  -6.430 -18.549  0.00  0.00     0.249 C 
HETATM    2  N           1     -27.533  -6.614 -19.032  0.00  0.00    -0.345 N 
HETATM    3  H           1     -27.677  -6.834 -20.009  0.00  0.00     0.163 HD
HETATM    4  O           1     -26.094  -6.170 -17.383  0.00  0.00    -0.271 OA
ENDROOT
BRANCH   1   5
HETATM    5  C           1     -25.081  -6.555 -19.476  0.00  0.00     0.284 C 
BRANCH   5   6
HETATM    6  C           1     -25.562  -6.517 -20.922  0.00  0.00     0.155 C 
BRANCH   6   7
HETATM    7  C           1     -25.517  -7.908 -21.504  0.00  0.00     0.175 C 
HETATM    8  O           1     -24.509  -8.290 -22.136  0.00  0.00    -0.648 OA
HETATM    9  O           1     -26.491  -8.678 -21.355  0.00  0.00    -0.648 OA
ENDBRANCH   6   7
ENDBRANCH   5   6
BRANCH   5  10
HETATM   10  N           1     -24.379  -7.855 -19.218  0.00  0.00    -0.066 N 
HETATM   11  H           1     -23.449  -7.849 -19.695  0.00  0.00     0.275 HD
HETATM   12  H           1     -24.957  -8.642 -19.591  0.00  0.00     0.275 HD
HETATM   13  H           1     -24.242  -7.979 -18.190  0.00  0.00     0.275 HD
ENDBRANCH   5  10
ENDBRANCH   1   5
BRANCH   2  14
HETATM   14  C           1     -28.671  -6.494 -18.141  0.00  0.00     0.185 C 
BRANCH  14  15
HETATM   15  C           1     -29.402  -5.188 -18.425  0.00  0.00     0.039 C 
BRANCH  15  16
HETATM   16 Se           1     -28.799  -3.819 -17.176  0.00  0.00     0.000 Se
HETATM   17  H           1     -29.313  -2.697 -17.977  0.00  0.00     0.000 HD
ENDBRANCH  15  16
ENDBRANCH  14  15
BRANCH  14  18
HETATM   18  C           1     -29.610  -7.655 -18.364  0.00  0.00     0.196 C 
HETATM   19  O           1     -29.389  -8.467 -19.288  0.00  0.00    -0.646 OA
HETATM   20  O           1     -30.607  -7.803 -17.626  0.00  0.00    -0.646 OA
ENDBRANCH  14  18
ENDBRANCH   2  14
TORSDOF 8
ENDMDL
MODEL 2
REMARK VINA RESULT:      -5.2     10.948     11.952
REMARK  8 active torsions:
REMARK  status: ('A' for Active; 'I' for Inactive)
REMARK       I    between atoms: C_2  and  N_3 
REMARK    1  A    between atoms: C_2  and  C_18 
REMARK    2  A    between atoms: N_3  and  C_14 
REMARK    3  A    between atoms: Se_6  and  C_20 
REMARK    4  A    between atoms: C_9  and  C_18 
REMARK    5  A    between atoms: C_9  and  C_13 
REMARK    6  A    between atoms: N_11  and  C_18 
REMARK    7  A    between atoms: C_14  and  C_20 
REMARK    8  A    between atoms: C_14  and  C_17 
ROOT
HETATM    1  C           1     -34.485  -2.381 -12.437  0.00  0.00     0.249 C 
HETATM    2  N           1     -35.178  -1.205 -12.341  0.00  0.00    -0.345 N 
HETATM    3  H           1     -35.173  -0.683 -11.474  0.00  0.00     0.163 HD
HETATM    4  O           1     -34.490  -3.005 -13.471  0.00  0.00    -0.271 OA
ENDROOT
BRANCH   1   5
HETATM    5  C           1     -33.712  -2.899 -11.249  0.00  0.00     0.284 C 
BRANCH   5   6
HETATM    6  C           1     -34.392  -4.151 -10.707  0.00  0.00     0.155 C 
BRANCH   6   7
HETATM    7  C           1     -33.571  -5.364 -11.065  0.00  0.00     0.175 C 
HETATM    8  O           1     -33.962  -6.505 -10.734  0.00  0.00    -0.648 OA
HETATM    9  O           1     -32.498  -5.229 -11.692  0.00  0.00    -0.648 OA
ENDBRANCH   6   7
ENDBRANCH   5   6
BRANCH   5  10
HETATM   10  N           1     -33.676  -1.848 -10.179  0.00  0.00    -0.066 N 
HETATM   11  H           1     -32.699  -1.491 -10.075  0.00  0.00     0.275 HD
HETATM   12  H           1     -33.995  -2.263  -9.274  0.00  0.00     0.275 HD
HETATM   13  H           1     -34.308  -1.059 -10.443  0.00  0.00     0.275 HD
ENDBRANCH   5  10
ENDBRANCH   1   5
BRANCH   2  14
HETATM   14  C           1     -35.921  -0.708 -13.483  0.00  0.00     0.185 C 
BRANCH  14  15
HETATM   15  C           1     -37.218  -0.068 -13.004  0.00  0.00     0.039 C 
BRANCH  15  16
HETATM   16 Se           1     -37.308  -0.154 -11.059  0.00  0.00     0.000 Se
HETATM   17  H           1     -37.313   1.307 -10.880  0.00  0.00     0.000 HD
ENDBRANCH  15  16
ENDBRANCH  14  15
BRANCH  14  18
HETATM   18  C           1     -35.092   0.321 -14.212  0.00  0.00     0.196 C 
HETATM   19  O           1     -34.806   1.402 -13.654  0.00  0.00    -0.646 OA
HETATM   20  O           1     -34.693   0.093 -15.375  0.00  0.00    -0.646 OA
ENDBRANCH  14  18
ENDBRANCH   2  14
TORSDOF 8
ENDMDL
MODEL 3
REMARK VINA RESULT:      -5.1     11.811     13.465
REMARK  8 active torsions:
REMARK  status: ('A' for Active; 'I' for Inactive)
REMARK       I    between atoms: C_2  and  N_3 
REMARK    1  A    between atoms: C_2  and  C_18 
REMARK    2  A    between atoms: N_3  and  C_14 
REMARK    3  A    between atoms: Se_6  and  C_20 
REMARK    4  A    between atoms: C_9  and  C_18 
REMARK    5  A    between atoms: C_9  and  C_13 
REMARK    6  A    between atoms: N_11  and  C_18 
REMARK    7  A    between atoms: C_14  and  C_20 
REMARK    8  A    between atoms: C_14  and  C_17 
ROOT
HETATM    1  C           1     -21.690  -4.570  -7.565  0.00  0.00     0.249 C 
HETATM    2  N           1     -22.305  -4.816  -8.763  0.00  0.00    -0.345 N 
HETATM    3  H           1     -22.422  -5.767  -9.087  0.00  0.00     0.163 HD
HETATM    4  O           1     -21.551  -3.435  -7.177  0.00  0.00    -0.271 OA
ENDROOT
BRANCH   1   5
HETATM    5  C           1     -21.187  -5.720  -6.727  0.00  0.00     0.284 C 
BRANCH   5   6
HETATM    6  C           1     -20.848  -5.219  -5.328  0.00  0.00     0.155 C 
BRANCH   6   7
HETATM    7  C           1     -21.196  -6.282  -4.315  0.00  0.00     0.175 C 
HETATM    8  O           1     -20.703  -7.426  -4.415  0.00  0.00    -0.648 OA
HETATM    9  O           1     -21.979  -6.018  -3.377  0.00  0.00    -0.648 OA
ENDBRANCH   6   7
ENDBRANCH   5   6
BRANCH   5  10
HETATM   10  N           1     -19.957  -6.300  -7.361  0.00  0.00    -0.066 N 
HETATM   11  H           1     -19.505  -6.968  -6.696  0.00  0.00     0.275 HD
HETATM   12  H           1     -19.289  -5.529  -7.590  0.00  0.00     0.275 HD
HETATM   13  H           1     -20.221  -6.804  -8.237  0.00  0.00     0.275 HD
ENDBRANCH   5  10
ENDBRANCH   1   5
BRANCH   2  14
HETATM   14  C           1     -22.789  -3.711  -9.568  0.00  0.00     0.185 C 
BRANCH  14  15
HETATM   15  C           1     -22.176  -3.792 -10.960  0.00  0.00     0.039 C 
BRANCH  15  16
HETATM   16 Se           1     -20.293  -4.272 -10.816  0.00  0.00     0.000 Se
HETATM   17  H           1     -20.296  -5.114 -12.023  0.00  0.00     0.000 HD
ENDBRANCH  15  16
ENDBRANCH  14  15
BRANCH  14  18
HETATM   18  C           1     -24.293  -3.787  -9.674  0.00  0.00     0.196 C 
HETATM   19  O           1     -24.847  -4.881  -9.912  0.00  0.00    -0.646 OA
HETATM   20  O           1     -24.983  -2.755  -9.526  0.00  0.00    -0.646 OA
ENDBRANCH  14  18
ENDBRANCH   2  14
TORSDOF 8
ENDMDL
MODEL 4
REMARK VINA RESULT:      -5.1      2.235      2.704
REMARK  8 active torsions:
REMARK  status: ('A' for Active; 'I' for Inactive)
REMARK       I    between atoms: C_2  and  N_3 
REMARK    1  A    between atoms: C_2  and  C_18 
REMARK    2  A    between atoms: N_3  and  C_14 
REMARK    3  A    between atoms: Se_6  and  C_20 
REMARK    4  A    between atoms: C_9  and  C_18 
REMARK    5  A    between atoms: C_9  and  C_13 
REMARK    6  A    between atoms: N_11  and  C_18 
REMARK    7  A    between atoms: C_14  and  C_20 
REMARK    8  A    between atoms: C_14  and  C_17 
ROOT
HETATM    1  C           1     -25.390  -6.676 -18.699  0.00  0.00     0.249 C 
HETATM    2  N           1     -26.618  -6.352 -18.187  0.00  0.00    -0.345 N 
HETATM    3  H           1     -27.448  -6.457 -18.757  0.00  0.00     0.163 HD
HETATM    4  O           1     -24.400  -6.552 -18.019  0.00  0.00    -0.271 OA
ENDROOT
BRANCH   1   5
HETATM    5  C           1     -25.275  -7.191 -20.112  0.00  0.00     0.284 C 
BRANCH   5   6
HETATM    6  C           1     -23.919  -7.859 -20.301  0.00  0.00     0.155 C 
BRANCH   6   7
HETATM    7  C           1     -23.720  -8.192 -21.759  0.00  0.00     0.175 C 
HETATM    8  O           1     -24.709  -8.305 -22.515  0.00  0.00    -0.648 OA
HETATM    9  O           1     -22.566  -8.356 -22.210  0.00  0.00    -0.648 OA
ENDBRANCH   6   7
ENDBRANCH   5   6
BRANCH   5  10
HETATM   10  N           1     -25.406  -6.047 -21.074  0.00  0.00    -0.066 N 
HETATM   11  H           1     -26.416  -5.892 -21.294  0.00  0.00     0.275 HD
HETATM   12  H           1     -24.887  -6.272 -21.953  0.00  0.00     0.275 HD
HETATM   13  H           1     -25.006  -5.183 -20.643  0.00  0.00     0.275 HD
ENDBRANCH   5  10
ENDBRANCH   1   5
BRANCH   2  14
HETATM   14  C           1     -26.728  -5.857 -16.829  0.00  0.00     0.185 C 
BRANCH  14  15
HETATM   15  C           1     -27.917  -4.910 -16.730  0.00  0.00     0.039 C 
BRANCH  15  16
HETATM   16 Se           1     -28.999  -5.050 -18.345  0.00  0.00     0.000 Se
HETATM   17  H           1     -28.115  -6.034 -18.990  0.00  0.00     0.000 HD
ENDBRANCH  15  16
ENDBRANCH  14  15
BRANCH  14  18
HETATM   18  C           1     -26.930  -7.017 -15.885  0.00  0.00     0.196 C 
HETATM   19  O           1     -28.075  -7.482 -15.703  0.00  0.00    -0.646 OA
HETATM   20  O           1     -25.951  -7.513 -15.286  0.00  0.00    -0.646 OA
ENDBRANCH  14  18
ENDBRANCH   2  14
TORSDOF 8
ENDMDL
MODEL 5
REMARK VINA RESULT:      -5.0      3.176      5.727
REMARK  8 active torsions:
REMARK  status: ('A' for Active; 'I' for Inactive)
REMARK       I    between atoms: C_2  and  N_3 
REMARK    1  A    between atoms: C_2  and  C_18 
REMARK    2  A    between atoms: N_3  and  C_14 
REMARK    3  A    between atoms: Se_6  and  C_20 
REMARK    4  A    between atoms: C_9  and  C_18 
REMARK    5  A    between atoms: C_9  and  C_13 
REMARK    6  A    between atoms: N_11  and  C_18 
REMARK    7  A    between atoms: C_14  and  C_20 
REMARK    8  A    between atoms: C_14  and  C_17 
ROOT
HETATM    1  C           1     -28.865  -6.590 -17.233  0.00  0.00     0.249 C 
HETATM    2  N           1     -27.633  -6.099 -17.569  0.00  0.00    -0.345 N 
HETATM    3  H           1     -27.541  -5.150 -17.910  0.00  0.00     0.163 HD
HETATM    4  O           1     -28.976  -7.721 -16.825  0.00  0.00    -0.271 OA
ENDROOT
BRANCH   1   5
HETATM    5  C           1     -30.088  -5.716 -17.371  0.00  0.00     0.284 C 
BRANCH   5   6
HETATM    6  C           1     -29.734  -4.471 -18.177  0.00  0.00     0.155 C 
BRANCH   6   7
HETATM    7  C           1     -30.484  -3.285 -17.625  0.00  0.00     0.175 C 
HETATM    8  O           1     -29.856  -2.311 -17.154  0.00  0.00    -0.648 OA
HETATM    9  O           1     -31.734  -3.275 -17.639  0.00  0.00    -0.648 OA
ENDBRANCH   6   7
ENDBRANCH   5   6
BRANCH   5  10
HETATM   10  N           1     -30.568  -5.308 -16.010  0.00  0.00    -0.066 N 
HETATM   11  H           1     -31.284  -5.992 -15.675  0.00  0.00     0.275 HD
HETATM   12  H           1     -30.993  -4.355 -16.063  0.00  0.00     0.275 HD
HETATM   13  H           1     -29.762  -5.294 -15.345  0.00  0.00     0.275 HD
ENDBRANCH   5  10
ENDBRANCH   1   5
BRANCH   2  14
HETATM   14  C           1     -26.458  -6.939 -17.436  0.00  0.00     0.185 C 
BRANCH  14  15
HETATM   15  C           1     -25.487  -6.636 -18.570  0.00  0.00     0.039 C 
BRANCH  15  16
HETATM   16 Se           1     -26.433  -6.703 -20.273  0.00  0.00     0.000 Se
HETATM   17  H           1     -27.770  -6.620 -19.665  0.00  0.00     0.000 HD
ENDBRANCH  15  16
ENDBRANCH  14  15
BRANCH  14  18
HETATM   18  C           1     -25.788  -6.661 -16.112  0.00  0.00     0.196 C 
HETATM   19  O           1     -25.869  -7.494 -15.185  0.00  0.00    -0.646 OA
HETATM   20  O           1     -25.153  -5.598 -15.944  0.00  0.00    -0.646 OA
ENDBRANCH  14  18
ENDBRANCH   2  14
TORSDOF 8
ENDMDL
MODEL 6
REMARK VINA RESULT:      -4.9     10.460     12.291
REMARK  8 active torsions:
REMARK  status: ('A' for Active; 'I' for Inactive)
REMARK       I    between atoms: C_2  and  N_3 
REMARK    1  A    between atoms: C_2  and  C_18 
REMARK    2  A    between atoms: N_3  and  C_14 
REMARK    3  A    between atoms: Se_6  and  C_20 
REMARK    4  A    between atoms: C_9  and  C_18 
REMARK    5  A    between atoms: C_9  and  C_13 
REMARK    6  A    between atoms: N_11  and  C_18 
REMARK    7  A    between atoms: C_14  and  C_20 
REMARK    8  A    between atoms: C_14  and  C_17 
ROOT
HETATM    1  C           1     -35.117  -0.396 -13.148  0.00  0.00     0.249 C 
HETATM    2  N           1     -35.058  -1.760 -13.049  0.00  0.00    -0.345 N 
HETATM    3  H           1     -35.466  -2.339 -13.772  0.00  0.00     0.163 HD
HETATM    4  O           1     -34.628   0.295 -12.286  0.00  0.00    -0.271 OA
ENDROOT
BRANCH   1   5
HETATM    5  C           1     -35.792   0.244 -14.336  0.00  0.00     0.284 C 
BRANCH   5   6
HETATM    6  C           1     -37.288  -0.043 -14.286  0.00  0.00     0.155 C 
BRANCH   6   7
HETATM    7  C           1     -37.844  -0.060 -15.688  0.00  0.00     0.175 C 
HETATM    8  O           1     -38.075   1.015 -16.283  0.00  0.00    -0.648 OA
HETATM    9  O           1     -38.075  -1.150 -16.255  0.00  0.00    -0.648 OA
ENDBRANCH   6   7
ENDBRANCH   5   6
BRANCH   5  10
HETATM   10  N           1     -35.217  -0.320 -15.602  0.00  0.00    -0.066 N 
HETATM   11  H           1     -34.194  -0.110 -15.643  0.00  0.00     0.275 HD
HETATM   12  H           1     -35.697   0.114 -16.423  0.00  0.00     0.275 HD
HETATM   13  H           1     -35.362  -1.354 -15.620  0.00  0.00     0.275 HD
ENDBRANCH   5  10
ENDBRANCH   1   5
BRANCH   2  14
HETATM   14  C           1     -34.409  -2.375 -11.907  0.00  0.00     0.185 C 
BRANCH  14  15
HETATM   15  C           1     -35.465  -2.959 -10.977  0.00  0.00     0.039 C 
BRANCH  15  16
HETATM   16 Se           1     -36.494  -1.512 -10.173  0.00  0.00     0.000 Se
HETATM   17  H           1     -36.067  -0.506 -11.157  0.00  0.00     0.000 HD
ENDBRANCH  15  16
ENDBRANCH  14  15
BRANCH  14  18
HETATM   18  C           1     -33.493  -3.477 -12.383  0.00  0.00     0.196 C 
HETATM   19  O           1     -32.614  -3.931 -11.619  0.00  0.00    -0.646 OA
HETATM   20  O           1     -33.614  -3.935 -13.539  0.00  0.00    -0.646 OA
ENDBRANCH  14  18
ENDBRANCH   2  14
TORSDOF 8
ENDMDL
MODEL 7
REMARK VINA RESULT:      -4.9     11.907     13.492
REMARK  8 active torsions:
REMARK  status: ('A' for Active; 'I' for Inactive)
REMARK       I    between atoms: C_2  and  N_3 
REMARK    1  A    between atoms: C_2  and  C_18 
REMARK    2  A    between atoms: N_3  and  C_14 
REMARK    3  A    between atoms: Se_6  and  C_20 
REMARK    4  A    between atoms: C_9  and  C_18 
REMARK    5  A    between atoms: C_9  and  C_13 
REMARK    6  A    between atoms: N_11  and  C_18 
REMARK    7  A    between atoms: C_14  and  C_20 
REMARK    8  A    between atoms: C_14  and  C_17 
ROOT
HETATM    1  C           1     -21.753  -4.110  -7.548  0.00  0.00     0.249 C 
HETATM    2  N           1     -22.110  -5.315  -7.007  0.00  0.00    -0.345 N 
HETATM    3  H           1     -22.851  -5.861  -7.428  0.00  0.00     0.163 HD
HETATM    4  O           1     -20.868  -3.459  -7.046  0.00  0.00    -0.271 OA
ENDROOT
BRANCH   1   5
HETATM    5  C           1     -22.467  -3.593  -8.773  0.00  0.00     0.284 C 
BRANCH   5   6
HETATM    6  C           1     -23.826  -4.273  -8.894  0.00  0.00     0.155 C 
BRANCH   6   7
HETATM    7  C           1     -24.599  -3.654 -10.032  0.00  0.00     0.175 C 
HETATM    8  O           1     -24.176  -3.757 -11.204  0.00  0.00    -0.648 OA
HETATM    9  O           1     -25.661  -3.038  -9.802  0.00  0.00    -0.648 OA
ENDBRANCH   6   7
ENDBRANCH   5   6
BRANCH   5  10
HETATM   10  N           1     -21.648  -3.894  -9.993  0.00  0.00    -0.066 N 
HETATM   11  H           1     -21.623  -4.928 -10.149  0.00  0.00     0.275 HD
HETATM   12  H           1     -20.675  -3.538  -9.854  0.00  0.00     0.275 HD
HETATM   13  H           1     -22.076  -3.427 -10.824  0.00  0.00     0.275 HD
ENDBRANCH   5  10
ENDBRANCH   1   5
BRANCH   2  14
HETATM   14  C           1     -21.424  -5.812  -5.830  0.00  0.00     0.185 C 
BRANCH  14  15
HETATM   15  C           1     -22.445  -6.366  -4.844  0.00  0.00     0.039 C 
BRANCH  15  16
HETATM   16 Se           1     -21.694  -6.341  -3.046  0.00  0.00     0.000 Se
HETATM   17  H           1     -22.784  -5.533  -2.477  0.00  0.00     0.000 HD
ENDBRANCH  15  16
ENDBRANCH  14  15
BRANCH  14  18
HETATM   18  C           1     -20.465  -6.906  -6.230  0.00  0.00     0.196 C 
HETATM   19  O           1     -19.447  -6.630  -6.900  0.00  0.00    -0.646 OA
HETATM   20  O           1     -20.689  -8.089  -5.892  0.00  0.00    -0.646 OA
ENDBRANCH  14  18
ENDBRANCH   2  14
TORSDOF 8
ENDMDL
MODEL 8
REMARK VINA RESULT:      -4.7     10.941     11.825
REMARK  8 active torsions:
REMARK  status: ('A' for Active; 'I' for Inactive)
REMARK       I    between atoms: C_2  and  N_3 
REMARK    1  A    between atoms: C_2  and  C_18 
REMARK    2  A    between atoms: N_3  and  C_14 
REMARK    3  A    between atoms: Se_6  and  C_20 
REMARK    4  A    between atoms: C_9  and  C_18 
REMARK    5  A    between atoms: C_9  and  C_13 
REMARK    6  A    between atoms: N_11  and  C_18 
REMARK    7  A    between atoms: C_14  and  C_20 
REMARK    8  A    between atoms: C_14  and  C_17 
ROOT
HETATM    1  C           1     -35.200  -1.828 -12.437  0.00  0.00     0.249 C 
HETATM    2  N           1     -34.795  -1.423 -13.680  0.00  0.00    -0.345 N 
HETATM    3  H           1     -33.910  -1.740 -14.053  0.00  0.00     0.163 HD
HETATM    4  O           1     -36.257  -1.451 -11.992  0.00  0.00    -0.271 OA
ENDROOT
BRANCH   1   5
HETATM    5  C           1     -34.325  -2.749 -11.623  0.00  0.00     0.284 C 
BRANCH   5   6
HETATM    6  C           1     -35.167  -3.891 -11.067  0.00  0.00     0.155 C 
BRANCH   6   7
HETATM    7  C           1     -34.292  -5.098 -10.840  0.00  0.00     0.175 C 
HETATM    8  O           1     -34.745  -6.096 -10.238  0.00  0.00    -0.648 OA
HETATM    9  O           1     -33.112  -5.100 -11.254  0.00  0.00    -0.648 OA
ENDBRANCH   6   7
ENDBRANCH   5   6
BRANCH   5  10
HETATM   10  N           1     -33.712  -1.983 -10.488  0.00  0.00    -0.066 N 
HETATM   11  H           1     -33.484  -1.013 -10.806  0.00  0.00     0.275 HD
HETATM   12  H           1     -32.837  -2.463 -10.178  0.00  0.00     0.275 HD
HETATM   13  H           1     -34.387  -1.939  -9.692  0.00  0.00     0.275 HD
ENDBRANCH   5  10
ENDBRANCH   1   5
BRANCH   2  14
HETATM   14  C           1     -35.636  -0.538 -14.463  0.00  0.00     0.185 C 
BRANCH  14  15
HETATM   15  C           1     -34.988   0.839 -14.543  0.00  0.00     0.039 C 
BRANCH  15  16
HETATM   16 Se           1     -35.986   1.957 -15.788  0.00  0.00     0.000 Se
HETATM   17  H           1     -34.953   1.916 -16.834  0.00  0.00     0.000 HD
ENDBRANCH  15  16
ENDBRANCH  14  15
BRANCH  14  18
HETATM   18  C           1     -35.800  -1.099 -15.854  0.00  0.00     0.196 C 
HETATM   19  O           1     -36.942  -1.240 -16.340  0.00  0.00    -0.646 OA
HETATM   20  O           1     -34.792  -1.422 -16.520  0.00  0.00    -0.646 OA
ENDBRANCH  14  18
ENDBRANCH   2  14
TORSDOF 8
ENDMDL
MODEL 9
REMARK VINA RESULT:      -4.6     13.887     15.327
REMARK  8 active torsions:
REMARK  status: ('A' for Active; 'I' for Inactive)
REMARK       I    between atoms: C_2  and  N_3 
REMARK    1  A    between atoms: C_2  and  C_18 
REMARK    2  A    between atoms: N_3  and  C_14 
REMARK    3  A    between atoms: Se_6  and  C_20 
REMARK    4  A    between atoms: C_9  and  C_18 
REMARK    5  A    between atoms: C_9  and  C_13 
REMARK    6  A    between atoms: N_11  and  C_18 
REMARK    7  A    between atoms: C_14  and  C_20 
REMARK    8  A    between atoms: C_14  and  C_17 
ROOT
HETATM    1  C           1     -21.411  -5.762  -5.697  0.00  0.00     0.249 C 
HETATM    2  N           1     -20.866  -6.684  -4.845  0.00  0.00    -0.345 N 
HETATM    3  H           1     -19.865  -6.839  -4.839  0.00  0.00     0.163 HD
HETATM    4  O           1     -22.605  -5.576  -5.704  0.00  0.00    -0.271 OA
ENDROOT
BRANCH   1   5
HETATM    5  C           1     -20.521  -4.977  -6.628  0.00  0.00     0.284 C 
BRANCH   5   6
HETATM    6  C           1     -21.340  -3.898  -7.326  0.00  0.00     0.155 C 
BRANCH   6   7
HETATM    7  C           1     -21.463  -4.229  -8.793  0.00  0.00     0.175 C 
HETATM    8  O           1     -22.447  -4.879  -9.208  0.00  0.00    -0.648 OA
HETATM    9  O           1     -20.579  -3.855  -9.593  0.00  0.00    -0.648 OA
ENDBRANCH   6   7
ENDBRANCH   5   6
BRANCH   5  10
HETATM   10  N           1     -19.933  -5.899  -7.655  0.00  0.00    -0.066 N 
HETATM   11  H           1     -20.426  -6.820  -7.618  0.00  0.00     0.275 HD
HETATM   12  H           1     -18.916  -6.038  -7.455  0.00  0.00     0.275 HD
HETATM   13  H           1     -20.047  -5.481  -8.606  0.00  0.00     0.275 HD
ENDBRANCH   5  10
ENDBRANCH   1   5
BRANCH   2  14
HETATM   14  C           1     -21.721  -7.438  -3.951  0.00  0.00     0.185 C 
BRANCH  14  15
HETATM   15  C           1     -21.278  -8.896  -3.934  0.00  0.00     0.039 C 
BRANCH  15  16
HETATM   16 Se           1     -19.530  -9.055  -4.782  0.00  0.00     0.000 Se
HETATM   17  H           1     -18.925  -9.791  -3.661  0.00  0.00     0.000 HD
ENDBRANCH  15  16
ENDBRANCH  14  15
BRANCH  14  18
HETATM   18  C           1     -21.622  -6.867  -2.557  0.00  0.00     0.196 C 
HETATM   19  O           1     -20.843  -7.380  -1.726  0.00  0.00    -0.646 OA
HETATM   20  O           1     -22.319  -5.880  -2.235  0.00  0.00    -0.646 OA
ENDBRANCH  14  18
ENDBRANCH   2  14
TORSDOF 8
ENDMDL
