MODEL 1
REMARK VINA RESULT:      -6.9      0.000      0.000
REMARK  9 active torsions:
REMARK  status: ('A' for Active; 'I' for Inactive)
REMARK    1  A    between atoms: N_7  and  C_27 
REMARK       I    between atoms: N_9  and  C_11 
REMARK    2  A    between atoms: C_11  and  C_28 
REMARK    3  A    between atoms: O_12  and  C_19 
REMARK    4  A    between atoms: C_16  and  C_20 
REMARK    5  A    between atoms: C_20  and  C_21 
REMARK    6  A    between atoms: C_21  and  C_22 
REMARK    7  A    between atoms: C_21  and  N_25 
REMARK       I    between atoms: N_25  and  C_26 
REMARK    8  A    between atoms: C_26  and  C_27 
REMARK    9  A    between atoms: C_27  and  C_28 
ROOT
HETATM    1  H           1     -21.095  -5.213  -8.350  0.00  0.00     0.163 HD
HETATM    2  O           1     -23.721  -4.447  -6.813  0.00  0.00    -0.271 OA
HETATM    3  N           1     -21.712  -5.074  -7.559  0.00  0.00    -0.344 N 
HETATM    4  C           1     -22.986  -4.613  -7.757  0.00  0.00     0.249 C 
ENDROOT
BRANCH   3   5
HETATM    5  C           1     -21.245  -5.362  -6.217  0.00  0.00     0.189 C 
BRANCH   5   6
HETATM    6  C           1     -21.172  -6.870  -6.019  0.00  0.00     0.074 C 
BRANCH   6   7
HETATM    7  C           1     -21.121  -7.180  -4.555  0.00  0.00    -0.056 A 
HETATM    8  C           1     -20.299  -8.207  -4.089  0.00  0.00     0.010 A 
HETATM    9  C           1     -20.251  -8.496  -2.725  0.00  0.00     0.037 A 
HETATM   10  C           1     -21.024  -7.759  -1.828  0.00  0.00     0.065 A 
HETATM   11  C           1     -21.845  -6.733  -2.294  0.00  0.00     0.037 A 
HETATM   12  C           1     -21.894  -6.443  -3.658  0.00  0.00     0.010 A 
BRANCH  10  13
HETATM   13  O           1     -20.977  -8.040  -0.504  0.00  0.00    -0.361 OA
HETATM   14  H           1     -20.044  -8.043  -0.230  0.00  0.00     0.217 HD
ENDBRANCH  10  13
ENDBRANCH   6   7
ENDBRANCH   5   6
BRANCH   5  15
HETATM   15  C           1     -19.875  -4.761  -6.022  0.00  0.00     0.197 C 
HETATM   16  O           1     -19.060  -4.743  -6.968  0.00  0.00    -0.646 OA
HETATM   17  O           1     -19.556  -4.280  -4.912  0.00  0.00    -0.646 OA
ENDBRANCH   5  15
ENDBRANCH   3   5
BRANCH   4  18
HETATM   18  C           1     -23.472  -4.313  -9.154  0.00  0.00     0.283 C 
BRANCH  18  19
HETATM   19  N           1     -24.560  -3.283  -9.094  0.00  0.00    -0.066 N 
HETATM   20  H           1     -25.294  -3.512  -9.801  0.00  0.00     0.275 HD
HETATM   21  H           1     -24.983  -3.279  -8.139  0.00  0.00     0.275 HD
HETATM   22  H           1     -24.159  -2.341  -9.302  0.00  0.00     0.275 HD
ENDBRANCH  18  19
BRANCH  18  23
HETATM   23  C           1     -22.315  -3.783  -9.990  0.00  0.00     0.145 C 
BRANCH  23  24
HETATM   24  C           1     -22.482  -4.231 -11.422  0.00  0.00     0.217 C 
HETATM   25  O           1     -23.536  -4.688 -11.792  0.00  0.00    -0.274 OA
HETATM   26  N           1     -21.438  -4.117 -12.300  0.00  0.00    -0.370 N 
HETATM   27  H           1     -21.550  -4.417 -13.261  0.00  0.00     0.159 HD
HETATM   28  H           1     -20.555  -3.733 -11.989  0.00  0.00     0.159 HD
ENDBRANCH  23  24
ENDBRANCH  18  23
ENDBRANCH   4  18
TORSDOF 9
ENDMDL
MODEL 2
REMARK VINA RESULT:      -6.8      2.537      7.535
REMARK  9 active torsions:
REMARK  status: ('A' for Active; 'I' for Inactive)
REMARK    1  A    between atoms: N_7  and  C_27 
REMARK       I    between atoms: N_9  and  C_11 
REMARK    2  A    between atoms: C_11  and  C_28 
REMARK    3  A    between atoms: O_12  and  C_19 
REMARK    4  A    between atoms: C_16  and  C_20 
REMARK    5  A    between atoms: C_20  and  C_21 
REMARK    6  A    between atoms: C_21  and  C_22 
REMARK    7  A    between atoms: C_21  and  N_25 
REMARK       I    between atoms: N_25  and  C_26 
REMARK    8  A    between atoms: C_26  and  C_27 
REMARK    9  A    between atoms: C_27  and  C_28 
ROOT
HETATM    1  H           1     -21.281  -4.650  -4.553  0.00  0.00     0.163 HD
HETATM    2  O           1     -21.439  -7.736  -5.099  0.00  0.00    -0.271 OA
HETATM    3  N           1     -21.309  -5.507  -5.092  0.00  0.00    -0.344 N 
HETATM    4  C           1     -21.406  -6.715  -4.455  0.00  0.00     0.249 C 
ENDROOT
BRANCH   3   5
HETATM    5  C           1     -21.245  -5.454  -6.540  0.00  0.00     0.189 C 
BRANCH   5   6
HETATM    6  C           1     -21.816  -4.127  -7.024  0.00  0.00     0.074 C 
BRANCH   6   7
HETATM    7  C           1     -22.289  -4.272  -8.437  0.00  0.00    -0.056 A 
HETATM    8  C           1     -21.370  -4.234  -9.486  0.00  0.00     0.010 A 
HETATM    9  C           1     -21.810  -4.369 -10.803  0.00  0.00     0.037 A 
HETATM   10  C           1     -23.168  -4.542 -11.070  0.00  0.00     0.065 A 
HETATM   11  C           1     -24.086  -4.579 -10.021  0.00  0.00     0.037 A 
HETATM   12  C           1     -23.647  -4.445  -8.704  0.00  0.00     0.010 A 
BRANCH  10  13
HETATM   13  O           1     -23.595  -4.673 -12.349  0.00  0.00    -0.361 OA
HETATM   14  H           1     -23.173  -5.462 -12.728  0.00  0.00     0.217 HD
ENDBRANCH  10  13
ENDBRANCH   6   7
ENDBRANCH   5   6
BRANCH   5  15
HETATM   15  C           1     -19.808  -5.576  -6.984  0.00  0.00     0.197 C 
HETATM   16  O           1     -19.364  -6.680  -7.365  0.00  0.00    -0.646 OA
HETATM   17  O           1     -19.062  -4.572  -6.971  0.00  0.00    -0.646 OA
ENDBRANCH   5  15
ENDBRANCH   3   5
BRANCH   4  18
HETATM   18  C           1     -21.472  -6.770  -2.948  0.00  0.00     0.283 C 
BRANCH  18  19
HETATM   19  N           1     -22.660  -5.988  -2.472  0.00  0.00    -0.066 N 
HETATM   20  H           1     -23.531  -6.537  -2.647  0.00  0.00     0.275 HD
HETATM   21  H           1     -22.565  -5.801  -1.448  0.00  0.00     0.275 HD
HETATM   22  H           1     -22.711  -5.081  -2.988  0.00  0.00     0.275 HD
ENDBRANCH  18  19
BRANCH  18  23
HETATM   23  C           1     -21.605  -8.219  -2.499  0.00  0.00     0.145 C 
BRANCH  23  24
HETATM   24  C           1     -21.984  -8.260  -1.038  0.00  0.00     0.217 C 
HETATM   25  O           1     -21.577  -7.409  -0.285  0.00  0.00    -0.274 OA
HETATM   26  N           1     -22.790  -9.262  -0.570  0.00  0.00    -0.370 N 
HETATM   27  H           1     -23.046  -9.290   0.410  0.00  0.00     0.159 HD
HETATM   28  H           1     -23.132  -9.975  -1.201  0.00  0.00     0.159 HD
ENDBRANCH  23  24
ENDBRANCH  18  23
ENDBRANCH   4  18
TORSDOF 9
ENDMDL
MODEL 3
REMARK VINA RESULT:      -6.6      0.985      2.052
REMARK  9 active torsions:
REMARK  status: ('A' for Active; 'I' for Inactive)
REMARK    1  A    between atoms: N_7  and  C_27 
REMARK       I    between atoms: N_9  and  C_11 
REMARK    2  A    between atoms: C_11  and  C_28 
REMARK    3  A    between atoms: O_12  and  C_19 
REMARK    4  A    between atoms: C_16  and  C_20 
REMARK    5  A    between atoms: C_20  and  C_21 
REMARK    6  A    between atoms: C_21  and  C_22 
REMARK    7  A    between atoms: C_21  and  N_25 
REMARK       I    between atoms: N_25  and  C_26 
REMARK    8  A    between atoms: C_26  and  C_27 
REMARK    9  A    between atoms: C_27  and  C_28 
ROOT
HETATM    1  H           1     -21.447  -6.184  -8.523  0.00  0.00     0.163 HD
HETATM    2  O           1     -21.930  -3.220  -7.616  0.00  0.00    -0.271 OA
HETATM    3  N           1     -21.507  -5.395  -7.891  0.00  0.00    -0.344 N 
HETATM    4  C           1     -21.860  -4.161  -8.369  0.00  0.00     0.249 C 
ENDROOT
BRANCH   3   5
HETATM    5  C           1     -21.218  -5.571  -6.482  0.00  0.00     0.189 C 
BRANCH   5   6
HETATM    6  C           1     -21.142  -7.058  -6.162  0.00  0.00     0.074 C 
BRANCH   6   7
HETATM    7  C           1     -21.147  -7.252  -4.677  0.00  0.00    -0.056 A 
HETATM    8  C           1     -22.008  -6.498  -3.879  0.00  0.00     0.010 A 
HETATM    9  C           1     -22.014  -6.678  -2.496  0.00  0.00     0.037 A 
HETATM   10  C           1     -21.159  -7.613  -1.911  0.00  0.00     0.065 A 
HETATM   11  C           1     -20.298  -8.366  -2.709  0.00  0.00     0.037 A 
HETATM   12  C           1     -20.293  -8.186  -4.092  0.00  0.00     0.010 A 
BRANCH  10  13
HETATM   13  O           1     -21.164  -7.788  -0.568  0.00  0.00    -0.361 OA
HETATM   14  H           1     -20.279  -7.564  -0.233  0.00  0.00     0.217 HD
ENDBRANCH  10  13
ENDBRANCH   6   7
ENDBRANCH   5   6
BRANCH   5  15
HETATM   15  C           1     -19.897  -4.917  -6.154  0.00  0.00     0.197 C 
HETATM   16  O           1     -18.957  -4.963  -6.974  0.00  0.00    -0.646 OA
HETATM   17  O           1     -19.746  -4.330  -5.060  0.00  0.00    -0.646 OA
ENDBRANCH   5  15
ENDBRANCH   3   5
BRANCH   4  18
HETATM   18  C           1     -22.160  -3.978  -9.836  0.00  0.00     0.283 C 
BRANCH  18  19
HETATM   19  N           1     -21.073  -4.611 -10.652  0.00  0.00    -0.066 N 
HETATM   20  H           1     -20.730  -3.927 -11.364  0.00  0.00     0.275 HD
HETATM   21  H           1     -20.284  -4.887 -10.025  0.00  0.00     0.275 HD
HETATM   22  H           1     -21.447  -5.458 -11.136  0.00  0.00     0.275 HD
ENDBRANCH  18  19
BRANCH  18  23
HETATM   23  C           1     -23.493  -4.637 -10.168  0.00  0.00     0.145 C 
BRANCH  23  24
HETATM   24  C           1     -24.588  -3.598 -10.144  0.00  0.00     0.217 C 
HETATM   25  O           1     -25.115  -3.254 -11.174  0.00  0.00    -0.274 OA
HETATM   26  N           1     -24.982  -3.048  -8.955  0.00  0.00    -0.370 N 
HETATM   27  H           1     -25.717  -2.352  -8.938  0.00  0.00     0.159 HD
HETATM   28  H           1     -24.540  -3.337  -8.091  0.00  0.00     0.159 HD
ENDBRANCH  23  24
ENDBRANCH  18  23
ENDBRANCH   4  18
TORSDOF 9
ENDMDL
MODEL 4
REMARK VINA RESULT:      -6.6      2.078      3.403
REMARK  9 active torsions:
REMARK  status: ('A' for Active; 'I' for Inactive)
REMARK    1  A    between atoms: N_7  and  C_27 
REMARK       I    between atoms: N_9  and  C_11 
REMARK    2  A    between atoms: C_11  and  C_28 
REMARK    3  A    between atoms: O_12  and  C_19 
REMARK    4  A    between atoms: C_16  and  C_20 
REMARK    5  A    between atoms: C_20  and  C_21 
REMARK    6  A    between atoms: C_21  and  C_22 
REMARK    7  A    between atoms: C_21  and  N_25 
REMARK       I    between atoms: N_25  and  C_26 
REMARK    8  A    between atoms: C_26  and  C_27 
REMARK    9  A    between atoms: C_27  and  C_28 
ROOT
HETATM    1  H           1     -20.311  -7.135  -7.049  0.00  0.00     0.163 HD
HETATM    2  O           1     -20.314  -4.820  -4.932  0.00  0.00    -0.271 OA
HETATM    3  N           1     -20.271  -6.700  -6.136  0.00  0.00    -0.344 N 
HETATM    4  C           1     -20.362  -5.338  -6.021  0.00  0.00     0.249 C 
ENDROOT
BRANCH   3   5
HETATM    5  C           1     -20.115  -7.518  -4.949  0.00  0.00     0.189 C 
BRANCH   5   6
HETATM    6  C           1     -21.452  -8.157  -4.595  0.00  0.00     0.074 C 
BRANCH   6   7
HETATM    7  C           1     -21.686  -8.043  -3.121  0.00  0.00    -0.056 A 
HETATM    8  C           1     -21.942  -6.797  -2.550  0.00  0.00     0.010 A 
HETATM    9  C           1     -22.161  -6.690  -1.177  0.00  0.00     0.037 A 
HETATM   10  C           1     -22.124  -7.830  -0.374  0.00  0.00     0.065 A 
HETATM   11  C           1     -21.867  -9.077  -0.945  0.00  0.00     0.037 A 
HETATM   12  C           1     -21.649  -9.184  -2.319  0.00  0.00     0.010 A 
BRANCH  10  13
HETATM   13  O           1     -22.336  -7.727   0.959  0.00  0.00    -0.361 OA
HETATM   14  H           1     -23.296  -7.736   1.113  0.00  0.00     0.217 HD
ENDBRANCH  10  13
ENDBRANCH   6   7
ENDBRANCH   5   6
BRANCH   5  15
HETATM   15  C           1     -19.095  -8.598  -5.214  0.00  0.00     0.197 C 
HETATM   16  O           1     -18.774  -9.391  -4.303  0.00  0.00    -0.646 OA
HETATM   17  O           1     -18.571  -8.699  -6.345  0.00  0.00    -0.646 OA
ENDBRANCH   5  15
ENDBRANCH   3   5
BRANCH   4  18
HETATM   18  C           1     -20.524  -4.486  -7.256  0.00  0.00     0.283 C 
BRANCH  18  19
HETATM   19  N           1     -19.189  -4.301  -7.914  0.00  0.00    -0.066 N 
HETATM   20  H           1     -18.610  -3.642  -7.346  0.00  0.00     0.275 HD
HETATM   21  H           1     -18.703  -5.224  -7.981  0.00  0.00     0.275 HD
HETATM   22  H           1     -19.324  -3.908  -8.872  0.00  0.00     0.275 HD
ENDBRANCH  18  19
BRANCH  18  23
HETATM   23  C           1     -21.477  -5.174  -8.226  0.00  0.00     0.145 C 
BRANCH  23  24
HETATM   24  C           1     -22.546  -4.199  -8.657  0.00  0.00     0.217 C 
HETATM   25  O           1     -22.388  -3.531  -9.650  0.00  0.00    -0.274 OA
HETATM   26  N           1     -23.694  -4.075  -7.922  0.00  0.00    -0.370 N 
HETATM   27  H           1     -24.412  -3.422  -8.211  0.00  0.00     0.159 HD
HETATM   28  H           1     -23.826  -4.636  -7.090  0.00  0.00     0.159 HD
ENDBRANCH  23  24
ENDBRANCH  18  23
ENDBRANCH   4  18
TORSDOF 9
ENDMDL
MODEL 5
REMARK VINA RESULT:      -6.2      2.776      4.649
REMARK  9 active torsions:
REMARK  status: ('A' for Active; 'I' for Inactive)
REMARK    1  A    between atoms: N_7  and  C_27 
REMARK       I    between atoms: N_9  and  C_11 
REMARK    2  A    between atoms: C_11  and  C_28 
REMARK    3  A    between atoms: O_12  and  C_19 
REMARK    4  A    between atoms: C_16  and  C_20 
REMARK    5  A    between atoms: C_20  and  C_21 
REMARK    6  A    between atoms: C_21  and  C_22 
REMARK    7  A    between atoms: C_21  and  N_25 
REMARK       I    between atoms: N_25  and  C_26 
REMARK    8  A    between atoms: C_26  and  C_27 
REMARK    9  A    between atoms: C_27  and  C_28 
ROOT
HETATM    1  H           1     -21.661  -7.842  -3.913  0.00  0.00     0.163 HD
HETATM    2  O           1     -19.506  -7.513  -6.170  0.00  0.00    -0.271 OA
HETATM    3  N           1     -20.819  -8.037  -4.442  0.00  0.00    -0.344 N 
HETATM    4  C           1     -20.509  -7.280  -5.540  0.00  0.00     0.249 C 
ENDROOT
BRANCH   3   5
HETATM    5  C           1     -19.943  -9.119  -4.036  0.00  0.00     0.189 C 
BRANCH   5   6
HETATM    6  C           1     -19.439  -8.859  -2.623  0.00  0.00     0.074 C 
BRANCH   6   7
HETATM    7  C           1     -20.595  -8.534  -1.730  0.00  0.00    -0.056 A 
HETATM    8  C           1     -21.186  -7.271  -1.787  0.00  0.00     0.010 A 
HETATM    9  C           1     -22.264  -6.967  -0.956  0.00  0.00     0.037 A 
HETATM   10  C           1     -22.752  -7.926  -0.068  0.00  0.00     0.065 A 
HETATM   11  C           1     -22.162  -9.189  -0.011  0.00  0.00     0.037 A 
HETATM   12  C           1     -21.084  -9.493  -0.843  0.00  0.00     0.010 A 
BRANCH  10  13
HETATM   13  O           1     -23.799  -7.631   0.739  0.00  0.00    -0.361 OA
HETATM   14  H           1     -23.525  -6.916   1.338  0.00  0.00     0.217 HD
ENDBRANCH  10  13
ENDBRANCH   6   7
ENDBRANCH   5   6
BRANCH   5  15
HETATM   15  C           1     -20.705 -10.421  -4.068  0.00  0.00     0.197 C 
HETATM   16  O           1     -20.118 -11.494  -3.811  0.00  0.00    -0.646 OA
HETATM   17  O           1     -21.922 -10.426  -4.354  0.00  0.00    -0.646 OA
ENDBRANCH   5  15
ENDBRANCH   3   5
BRANCH   4  18
HETATM   18  C           1     -21.421  -6.154  -5.962  0.00  0.00     0.283 C 
BRANCH  18  19
HETATM   19  N           1     -22.630  -6.131  -5.075  0.00  0.00    -0.066 N 
HETATM   20  H           1     -23.487  -5.999  -5.659  0.00  0.00     0.275 HD
HETATM   21  H           1     -22.698  -7.036  -4.555  0.00  0.00     0.275 HD
HETATM   22  H           1     -22.549  -5.343  -4.394  0.00  0.00     0.275 HD
ENDBRANCH  18  19
BRANCH  18  23
HETATM   23  C           1     -20.680  -4.829  -5.844  0.00  0.00     0.145 C 
BRANCH  23  24
HETATM   24  C           1     -20.803  -4.066  -7.141  0.00  0.00     0.217 C 
HETATM   25  O           1     -19.861  -3.998  -7.892  0.00  0.00    -0.274 OA
HETATM   26  N           1     -21.984  -3.454  -7.464  0.00  0.00    -0.370 N 
HETATM   27  H           1     -22.068  -2.943  -8.334  0.00  0.00     0.159 HD
HETATM   28  H           1     -22.774  -3.512  -6.834  0.00  0.00     0.159 HD
ENDBRANCH  23  24
ENDBRANCH  18  23
ENDBRANCH   4  18
TORSDOF 9
ENDMDL
MODEL 6
REMARK VINA RESULT:      -6.0      3.948      6.551
REMARK  9 active torsions:
REMARK  status: ('A' for Active; 'I' for Inactive)
REMARK    1  A    between atoms: N_7  and  C_27 
REMARK       I    between atoms: N_9  and  C_11 
REMARK    2  A    between atoms: C_11  and  C_28 
REMARK    3  A    between atoms: O_12  and  C_19 
REMARK    4  A    between atoms: C_16  and  C_20 
REMARK    5  A    between atoms: C_20  and  C_21 
REMARK    6  A    between atoms: C_21  and  C_22 
REMARK    7  A    between atoms: C_21  and  N_25 
REMARK       I    between atoms: N_25  and  C_26 
REMARK    8  A    between atoms: C_26  and  C_27 
REMARK    9  A    between atoms: C_27  and  C_28 
ROOT
HETATM    1  H           1     -20.204  -8.010  -2.401  0.00  0.00     0.163 HD
HETATM    2  O           1     -22.258 -10.025  -3.650  0.00  0.00    -0.271 OA
HETATM    3  N           1     -21.027  -8.598  -2.454  0.00  0.00    -0.344 N 
HETATM    4  C           1     -21.277  -9.325  -3.587  0.00  0.00     0.249 C 
ENDROOT
BRANCH   3   5
HETATM    5  C           1     -21.941  -8.668  -1.331  0.00  0.00     0.189 C 
BRANCH   5   6
HETATM    6  C           1     -21.234  -9.303  -0.141  0.00  0.00     0.074 C 
BRANCH   6   7
HETATM    7  C           1     -21.870 -10.621   0.174  0.00  0.00    -0.056 A 
HETATM    8  C           1     -21.128 -11.619   0.806  0.00  0.00     0.010 A 
HETATM    9  C           1     -21.719 -12.847   1.100  0.00  0.00     0.037 A 
HETATM   10  C           1     -23.053 -13.077   0.764  0.00  0.00     0.065 A 
HETATM   11  C           1     -23.795 -12.079   0.132  0.00  0.00     0.037 A 
HETATM   12  C           1     -23.204 -10.851  -0.162  0.00  0.00     0.010 A 
BRANCH  10  13
HETATM   13  O           1     -23.628 -14.270   1.049  0.00  0.00    -0.361 OA
HETATM   14  H           1     -24.579 -14.120   1.188  0.00  0.00     0.217 HD
ENDBRANCH  10  13
ENDBRANCH   6   7
ENDBRANCH   5   6
BRANCH   5  15
HETATM   15  C           1     -22.394  -7.276  -0.964  0.00  0.00     0.197 C 
HETATM   16  O           1     -23.042  -7.087   0.087  0.00  0.00    -0.646 OA
HETATM   17  O           1     -22.121  -6.312  -1.713  0.00  0.00    -0.646 OA
ENDBRANCH   5  15
ENDBRANCH   3   5
BRANCH   4  18
HETATM   18  C           1     -20.325  -9.252  -4.756  0.00  0.00     0.283 C 
BRANCH  18  19
HETATM   19  N           1     -21.020  -9.729  -5.996  0.00  0.00    -0.066 N 
HETATM   20  H           1     -21.345  -8.906  -6.551  0.00  0.00     0.275 HD
HETATM   21  H           1     -20.356 -10.297  -6.570  0.00  0.00     0.275 HD
HETATM   22  H           1     -21.842 -10.316  -5.732  0.00  0.00     0.275 HD
ENDBRANCH  18  19
BRANCH  18  23
HETATM   23  C           1     -19.871  -7.811  -4.951  0.00  0.00     0.145 C 
BRANCH  23  24
HETATM   24  C           1     -20.965  -7.027  -5.634  0.00  0.00     0.217 C 
HETATM   25  O           1     -21.043  -7.023  -6.839  0.00  0.00    -0.274 OA
HETATM   26  N           1     -21.869  -6.322  -4.887  0.00  0.00    -0.370 N 
HETATM   27  H           1     -22.604  -5.797  -5.344  0.00  0.00     0.159 HD
HETATM   28  H           1     -21.804  -6.326  -3.877  0.00  0.00     0.159 HD
ENDBRANCH  23  24
ENDBRANCH  18  23
ENDBRANCH   4  18
TORSDOF 9
ENDMDL
MODEL 7
REMARK VINA RESULT:      -6.0      2.697      7.257
REMARK  9 active torsions:
REMARK  status: ('A' for Active; 'I' for Inactive)
REMARK    1  A    between atoms: N_7  and  C_27 
REMARK       I    between atoms: N_9  and  C_11 
REMARK    2  A    between atoms: C_11  and  C_28 
REMARK    3  A    between atoms: O_12  and  C_19 
REMARK    4  A    between atoms: C_16  and  C_20 
REMARK    5  A    between atoms: C_20  and  C_21 
REMARK    6  A    between atoms: C_21  and  C_22 
REMARK    7  A    between atoms: C_21  and  N_25 
REMARK       I    between atoms: N_25  and  C_26 
REMARK    8  A    between atoms: C_26  and  C_27 
REMARK    9  A    between atoms: C_27  and  C_28 
ROOT
HETATM    1  H           1     -22.612  -7.296  -5.536  0.00  0.00     0.163 HD
HETATM    2  O           1     -19.597  -8.072  -5.921  0.00  0.00    -0.271 OA
HETATM    3  N           1     -21.638  -7.178  -5.787  0.00  0.00    -0.344 N 
HETATM    4  C           1     -20.758  -8.214  -5.622  0.00  0.00     0.249 C 
ENDROOT
BRANCH   3   5
HETATM    5  C           1     -21.176  -5.911  -6.319  0.00  0.00     0.189 C 
BRANCH   5   6
HETATM    6  C           1     -22.369  -5.104  -6.814  0.00  0.00     0.074 C 
BRANCH   6   7
HETATM    7  C           1     -22.111  -4.634  -8.212  0.00  0.00    -0.056 A 
HETATM    8  C           1     -20.836  -4.759  -8.765  0.00  0.00     0.010 A 
HETATM    9  C           1     -20.595  -4.323 -10.067  0.00  0.00     0.037 A 
HETATM   10  C           1     -21.628  -3.762 -10.817  0.00  0.00     0.065 A 
HETATM   11  C           1     -22.903  -3.637 -10.264  0.00  0.00     0.037 A 
HETATM   12  C           1     -23.144  -4.074  -8.962  0.00  0.00     0.010 A 
BRANCH  10  13
HETATM   13  O           1     -21.394  -3.338 -12.082  0.00  0.00    -0.361 OA
HETATM   14  H           1     -22.128  -3.643 -12.642  0.00  0.00     0.217 HD
ENDBRANCH  10  13
ENDBRANCH   6   7
ENDBRANCH   5   6
BRANCH   5  15
HETATM   15  C           1     -20.460  -5.142  -5.236  0.00  0.00     0.197 C 
HETATM   16  O           1     -19.541  -4.351  -5.535  0.00  0.00    -0.646 OA
HETATM   17  O           1     -20.788  -5.297  -4.039  0.00  0.00    -0.646 OA
ENDBRANCH   5  15
ENDBRANCH   3   5
BRANCH   4  18
HETATM   18  C           1     -21.239  -9.532  -5.068  0.00  0.00     0.283 C 
BRANCH  18  19
HETATM   19  N           1     -20.994 -10.617  -6.074  0.00  0.00    -0.066 N 
HETATM   20  H           1     -20.218 -10.329  -6.712  0.00  0.00     0.275 HD
HETATM   21  H           1     -20.729 -11.498  -5.578  0.00  0.00     0.275 HD
HETATM   22  H           1     -21.862 -10.778  -6.632  0.00  0.00     0.275 HD
ENDBRANCH  18  19
BRANCH  18  23
HETATM   23  C           1     -20.483  -9.850  -3.784  0.00  0.00     0.145 C 
BRANCH  23  24
HETATM   24  C           1     -21.112  -9.105  -2.632  0.00  0.00     0.217 C 
HETATM   25  O           1     -22.068  -9.571  -2.061  0.00  0.00    -0.274 OA
HETATM   26  N           1     -20.598  -7.900  -2.235  0.00  0.00    -0.370 N 
HETATM   27  H           1     -21.019  -7.400  -1.462  0.00  0.00     0.159 HD
HETATM   28  H           1     -19.797  -7.509  -2.714  0.00  0.00     0.159 HD
ENDBRANCH  23  24
ENDBRANCH  18  23
ENDBRANCH   4  18
TORSDOF 9
ENDMDL
MODEL 8
REMARK VINA RESULT:      -5.9      5.749      7.740
REMARK  9 active torsions:
REMARK  status: ('A' for Active; 'I' for Inactive)
REMARK    1  A    between atoms: N_7  and  C_27 
REMARK       I    between atoms: N_9  and  C_11 
REMARK    2  A    between atoms: C_11  and  C_28 
REMARK    3  A    between atoms: O_12  and  C_19 
REMARK    4  A    between atoms: C_16  and  C_20 
REMARK    5  A    between atoms: C_20  and  C_21 
REMARK    6  A    between atoms: C_21  and  C_22 
REMARK    7  A    between atoms: C_21  and  N_25 
REMARK       I    between atoms: N_25  and  C_26 
REMARK    8  A    between atoms: C_26  and  C_27 
REMARK    9  A    between atoms: C_27  and  C_28 
ROOT
HETATM    1  H           1     -19.415  -7.898  -2.185  0.00  0.00     0.163 HD
HETATM    2  O           1     -20.958 -10.366  -3.356  0.00  0.00    -0.271 OA
HETATM    3  N           1     -20.197  -8.517  -2.363  0.00  0.00    -0.344 N 
HETATM    4  C           1     -20.026  -9.628  -3.143  0.00  0.00     0.249 C 
ENDROOT
BRANCH   3   5
HETATM    5  C           1     -21.497  -8.225  -1.792  0.00  0.00     0.189 C 
BRANCH   5   6
HETATM    6  C           1     -21.465  -8.495  -0.293  0.00  0.00     0.074 C 
BRANCH   6   7
HETATM    7  C           1     -22.010  -9.862  -0.019  0.00  0.00    -0.056 A 
HETATM    8  C           1     -23.348 -10.147  -0.294  0.00  0.00     0.010 A 
HETATM    9  C           1     -23.856 -11.420  -0.039  0.00  0.00     0.037 A 
HETATM   10  C           1     -23.027 -12.409   0.490  0.00  0.00     0.065 A 
HETATM   11  C           1     -21.689 -12.124   0.765  0.00  0.00     0.037 A 
HETATM   12  C           1     -21.181 -10.850   0.510  0.00  0.00     0.010 A 
BRANCH  10  13
HETATM   13  O           1     -23.520 -13.646   0.739  0.00  0.00    -0.361 OA
HETATM   14  H           1     -23.931 -13.975  -0.079  0.00  0.00     0.217 HD
ENDBRANCH  10  13
ENDBRANCH   6   7
ENDBRANCH   5   6
BRANCH   5  15
HETATM   15  C           1     -21.840  -6.775  -2.036  0.00  0.00     0.197 C 
HETATM   16  O           1     -22.507  -6.141  -1.192  0.00  0.00    -0.646 OA
HETATM   17  O           1     -21.456  -6.210  -3.084  0.00  0.00    -0.646 OA
ENDBRANCH   5  15
ENDBRANCH   3   5
BRANCH   4  18
HETATM   18  C           1     -18.672  -9.932  -3.738  0.00  0.00     0.283 C 
BRANCH  18  19
HETATM   19  N           1     -18.578  -9.322  -5.104  0.00  0.00    -0.066 N 
HETATM   20  H           1     -18.401 -10.073  -5.809  0.00  0.00     0.275 HD
HETATM   21  H           1     -19.475  -8.836  -5.331  0.00  0.00     0.275 HD
HETATM   22  H           1     -17.793  -8.633  -5.126  0.00  0.00     0.275 HD
ENDBRANCH  18  19
BRANCH  18  23
HETATM   23  C           1     -17.584  -9.349  -2.846  0.00  0.00     0.145 C 
BRANCH  23  24
HETATM   24  C           1     -16.244  -9.912  -3.253  0.00  0.00     0.217 C 
HETATM   25  O           1     -15.770  -9.627  -4.326  0.00  0.00    -0.274 OA
HETATM   26  N           1     -15.566 -10.745  -2.404  0.00  0.00    -0.370 N 
HETATM   27  H           1     -14.667 -11.122  -2.676  0.00  0.00     0.159 HD
HETATM   28  H           1     -15.963 -10.983  -1.504  0.00  0.00     0.159 HD
ENDBRANCH  23  24
ENDBRANCH  18  23
ENDBRANCH   4  18
TORSDOF 9
ENDMDL
MODEL 9
REMARK VINA RESULT:      -5.6      2.843      3.960
REMARK  9 active torsions:
REMARK  status: ('A' for Active; 'I' for Inactive)
REMARK    1  A    between atoms: N_7  and  C_27 
REMARK       I    between atoms: N_9  and  C_11 
REMARK    2  A    between atoms: C_11  and  C_28 
REMARK    3  A    between atoms: O_12  and  C_19 
REMARK    4  A    between atoms: C_16  and  C_20 
REMARK    5  A    between atoms: C_20  and  C_21 
REMARK    6  A    between atoms: C_21  and  C_22 
REMARK    7  A    between atoms: C_21  and  N_25 
REMARK       I    between atoms: N_25  and  C_26 
REMARK    8  A    between atoms: C_26  and  C_27 
REMARK    9  A    between atoms: C_27  and  C_28 
ROOT
HETATM    1  H           1     -20.150  -7.691  -6.632  0.00  0.00     0.163 HD
HETATM    2  O           1     -21.247  -6.344  -4.020  0.00  0.00    -0.271 OA
HETATM    3  N           1     -20.382  -7.600  -5.650  0.00  0.00    -0.344 N 
HETATM    4  C           1     -20.971  -6.452  -5.190  0.00  0.00     0.249 C 
ENDROOT
BRANCH   3   5
HETATM    5  C           1     -20.091  -8.684  -4.733  0.00  0.00     0.189 C 
BRANCH   5   6
HETATM    6  C           1     -21.129  -9.785  -4.905  0.00  0.00     0.074 C 
BRANCH   6   7
HETATM    7  C           1     -21.785 -10.065  -3.588  0.00  0.00    -0.056 A 
HETATM    8  C           1     -22.741 -11.075  -3.487  0.00  0.00     0.010 A 
HETATM    9  C           1     -23.352 -11.337  -2.261  0.00  0.00     0.037 A 
HETATM   10  C           1     -23.006 -10.589  -1.136  0.00  0.00     0.065 A 
HETATM   11  C           1     -22.050  -9.578  -1.237  0.00  0.00     0.037 A 
HETATM   12  C           1     -21.439  -9.317  -2.463  0.00  0.00     0.010 A 
BRANCH  10  13
HETATM   13  O           1     -23.600 -10.842   0.055  0.00  0.00    -0.361 OA
HETATM   14  H           1     -24.148 -10.073   0.287  0.00  0.00     0.217 HD
ENDBRANCH  10  13
ENDBRANCH   6   7
ENDBRANCH   5   6
BRANCH   5  15
HETATM   15  C           1     -18.718  -9.235  -5.026  0.00  0.00     0.197 C 
HETATM   16  O           1     -18.000  -9.654  -4.093  0.00  0.00    -0.646 OA
HETATM   17  O           1     -18.298  -9.273  -6.204  0.00  0.00    -0.646 OA
ENDBRANCH   5  15
ENDBRANCH   3   5
BRANCH   4  18
HETATM   18  C           1     -21.273  -5.323  -6.145  0.00  0.00     0.283 C 
BRANCH  18  19
HETATM   19  N           1     -20.278  -4.219  -5.945  0.00  0.00    -0.066 N 
HETATM   20  H           1     -20.535  -3.672  -5.092  0.00  0.00     0.275 HD
HETATM   21  H           1     -19.324  -4.628  -5.823  0.00  0.00     0.275 HD
HETATM   22  H           1     -20.285  -3.588  -6.777  0.00  0.00     0.275 HD
ENDBRANCH  18  19
BRANCH  18  23
HETATM   23  C           1     -21.184  -5.833  -7.577  0.00  0.00     0.145 C 
BRANCH  23  24
HETATM   24  C           1     -21.228  -4.664  -8.531  0.00  0.00     0.217 C 
HETATM   25  O           1     -22.082  -3.820  -8.412  0.00  0.00    -0.274 OA
HETATM   26  N           1     -20.298  -4.562  -9.530  0.00  0.00    -0.370 N 
HETATM   27  H           1     -20.326  -3.777 -10.169  0.00  0.00     0.159 HD
HETATM   28  H           1     -19.581  -5.269  -9.629  0.00  0.00     0.159 HD
ENDBRANCH  23  24
ENDBRANCH  18  23
ENDBRANCH   4  18
TORSDOF 9
ENDMDL
