MODEL 1
REMARK VINA RESULT:      -5.8      0.000      0.000
REMARK  10 active torsions:
REMARK  status: ('A' for Active; 'I' for Inactive)
REMARK    1  A    between atoms: C_2  and  C_4 
REMARK    2  A    between atoms: C_4  and  C_5 
REMARK    3  A    between atoms: C_5  and  C_6 
REMARK    4  A    between atoms: C_5  and  N_9 
REMARK       I    between atoms: N_9  and  C_10 
REMARK    5  A    between atoms: C_10  and  C_11 
REMARK    6  A    between atoms: C_11  and  C_12 
REMARK    7  A    between atoms: C_11  and  N_18 
REMARK    8  A    between atoms: C_12  and  O_13 
REMARK    9  A    between atoms: O_13  and  P_14 
REMARK   10  A    between atoms: P_14  and  O_15 
ROOT
HETATM    1  N           1     -21.057  -8.148  -3.442  0.00  0.00    -0.345 N 
HETATM    2  C           1     -21.599  -6.931  -3.758  0.00  0.00     0.251 C 
HETATM    3  O           1     -21.653  -6.059  -2.923  0.00  0.00    -0.271 OA
HETATM    4  H           1     -21.011  -8.878  -4.141  0.00  0.00     0.163 HD
ENDROOT
BRANCH   2   5
HETATM    5  C           1     -22.131  -6.680  -5.147  0.00  0.00     0.298 C 
BRANCH   5   6
HETATM    6  C           1     -21.236  -5.674  -5.859  0.00  0.00     0.224 C 
BRANCH   6   7
HETATM    7  O           1     -21.518  -5.686  -7.232  0.00  0.00    -0.287 OA
BRANCH   7   8
HETATM    8  P           1     -22.066  -4.300  -7.855  0.00  0.00     0.406 P 
HETATM    9  O           1     -21.797  -4.274  -9.310  0.00  0.00    -0.624 OA
HETATM   10  O           1     -21.380  -3.162  -7.205  0.00  0.00    -0.624 OA
BRANCH   8  11
HETATM   11  O           1     -23.656  -4.187  -7.600  0.00  0.00    -0.300 OA
HETATM   12  H           1     -23.831  -3.262  -7.557  0.00  0.00     0.223 HD
ENDBRANCH   8  11
ENDBRANCH   7   8
ENDBRANCH   6   7
ENDBRANCH   5   6
BRANCH   5  13
HETATM   13  N           1     -23.524  -6.131  -5.057  0.00  0.00    -0.064 N 
HETATM   14  H           1     -23.538  -5.318  -4.401  0.00  0.00     0.275 HD
HETATM   15  H           1     -23.837  -5.818  -6.004  0.00  0.00     0.275 HD
HETATM   16  H           1     -24.168  -6.874  -4.703  0.00  0.00     0.275 HD
ENDBRANCH   5  13
ENDBRANCH   2   5
BRANCH   1  17
HETATM   17  C           1     -20.546  -8.390  -2.106  0.00  0.00     0.185 C 
BRANCH  17  18
HETATM   18  C           1     -21.660  -8.947  -1.231  0.00  0.00     0.040 C 
BRANCH  18  19
HETATM   19  C           1     -21.800  -8.090   0.020  0.00  0.00    -0.020 C 
HETATM   20  C           1     -23.273  -7.966   0.387  0.00  0.00     0.009 C 
HETATM   21  C           1     -21.044  -8.743   1.169  0.00  0.00     0.009 C 
ENDBRANCH  18  19
ENDBRANCH  17  18
BRANCH  17  22
HETATM   22  C           1     -19.413  -9.385  -2.175  0.00  0.00     0.196 C 
HETATM   23  O           1     -19.515 -10.489  -1.598  0.00  0.00    -0.646 OA
HETATM   24  O           1     -18.373  -9.105  -2.809  0.00  0.00    -0.646 OA
ENDBRANCH  17  22
ENDBRANCH   1  17
TORSDOF 10
ENDMDL
MODEL 2
REMARK VINA RESULT:      -5.7      2.266      3.571
REMARK  10 active torsions:
REMARK  status: ('A' for Active; 'I' for Inactive)
REMARK    1  A    between atoms: C_2  and  C_4 
REMARK    2  A    between atoms: C_4  and  C_5 
REMARK    3  A    between atoms: C_5  and  C_6 
REMARK    4  A    between atoms: C_5  and  N_9 
REMARK       I    between atoms: N_9  and  C_10 
REMARK    5  A    between atoms: C_10  and  C_11 
REMARK    6  A    between atoms: C_11  and  C_12 
REMARK    7  A    between atoms: C_11  and  N_18 
REMARK    8  A    between atoms: C_12  and  O_13 
REMARK    9  A    between atoms: O_13  and  P_14 
REMARK   10  A    between atoms: P_14  and  O_15 
ROOT
HETATM    1  N           1     -21.007  -6.807  -4.721  0.00  0.00    -0.345 N 
HETATM    2  C           1     -21.747  -6.005  -5.547  0.00  0.00     0.251 C 
HETATM    3  O           1     -22.950  -5.970  -5.437  0.00  0.00    -0.271 OA
HETATM    4  H           1     -20.000  -6.837  -4.812  0.00  0.00     0.163 HD
ENDROOT
BRANCH   2   5
HETATM    5  C           1     -21.061  -5.165  -6.595  0.00  0.00     0.298 C 
BRANCH   5   6
HETATM    6  C           1     -22.103  -4.383  -7.383  0.00  0.00     0.224 C 
BRANCH   6   7
HETATM    7  O           1     -22.081  -4.792  -8.724  0.00  0.00    -0.287 OA
BRANCH   7   8
HETATM    8  P           1     -23.254  -4.203  -9.664  0.00  0.00     0.406 P 
HETATM    9  O           1     -23.883  -5.309 -10.420  0.00  0.00    -0.624 OA
HETATM   10  O           1     -22.681  -3.220 -10.610  0.00  0.00    -0.624 OA
BRANCH   8  11
HETATM   11  O           1     -24.368  -3.479  -8.746  0.00  0.00    -0.300 OA
HETATM   12  H           1     -24.609  -2.702  -9.222  0.00  0.00     0.223 HD
ENDBRANCH   8  11
ENDBRANCH   7   8
ENDBRANCH   6   7
ENDBRANCH   5   6
BRANCH   5  13
HETATM   13  N           1     -20.296  -6.057  -7.528  0.00  0.00    -0.064 N 
HETATM   14  H           1     -20.279  -7.030  -7.146  0.00  0.00     0.275 HD
HETATM   15  H           1     -20.760  -6.060  -8.465  0.00  0.00     0.275 HD
HETATM   16  H           1     -19.317  -5.703  -7.624  0.00  0.00     0.275 HD
ENDBRANCH   5  13
ENDBRANCH   2   5
BRANCH   1  17
HETATM   17  C           1     -21.668  -7.615  -3.713  0.00  0.00     0.185 C 
BRANCH  17  18
HETATM   18  C           1     -20.967  -8.963  -3.605  0.00  0.00     0.040 C 
BRANCH  18  19
HETATM   19  C           1     -19.590  -8.873  -4.249  0.00  0.00    -0.020 C 
HETATM   20  C           1     -18.522  -9.191  -3.210  0.00  0.00     0.009 C 
HETATM   21  C           1     -19.499  -9.873  -5.394  0.00  0.00     0.009 C 
ENDBRANCH  18  19
ENDBRANCH  17  18
BRANCH  17  22
HETATM   22  C           1     -21.605  -6.907  -2.382  0.00  0.00     0.196 C 
HETATM   23  O           1     -22.245  -5.848  -2.207  0.00  0.00    -0.646 OA
HETATM   24  O           1     -20.913  -7.379  -1.455  0.00  0.00    -0.646 OA
ENDBRANCH  17  22
ENDBRANCH   1  17
TORSDOF 10
ENDMDL
MODEL 3
REMARK VINA RESULT:      -5.6      2.702      3.685
REMARK  10 active torsions:
REMARK  status: ('A' for Active; 'I' for Inactive)
REMARK    1  A    between atoms: C_2  and  C_4 
REMARK    2  A    between atoms: C_4  and  C_5 
REMARK    3  A    between atoms: C_5  and  C_6 
REMARK    4  A    between atoms: C_5  and  N_9 
REMARK       I    between atoms: N_9  and  C_10 
REMARK    5  A    between atoms: C_10  and  C_11 
REMARK    6  A    between atoms: C_11  and  C_12 
REMARK    7  A    between atoms: C_11  and  N_18 
REMARK    8  A    between atoms: C_12  and  O_13 
REMARK    9  A    between atoms: O_13  and  P_14 
REMARK   10  A    between atoms: P_14  and  O_15 
ROOT
HETATM    1  N           1     -21.170  -9.153  -2.029  0.00  0.00    -0.345 N 
HETATM    2  C           1     -21.406  -9.701  -3.261  0.00  0.00     0.251 C 
HETATM    3  O           1     -22.463 -10.241  -3.488  0.00  0.00    -0.271 OA
HETATM    4  H           1     -20.285  -8.700  -1.837  0.00  0.00     0.163 HD
ENDROOT
BRANCH   2   5
HETATM    5  C           1     -20.348  -9.631  -4.333  0.00  0.00     0.298 C 
BRANCH   5   6
HETATM    6  C           1     -19.810  -8.209  -4.426  0.00  0.00     0.224 C 
BRANCH   6   7
HETATM    7  O           1     -20.828  -7.302  -4.104  0.00  0.00    -0.287 OA
BRANCH   7   8
HETATM    8  P           1     -21.318  -6.332  -5.299  0.00  0.00     0.406 P 
HETATM    9  O           1     -21.054  -6.984  -6.602  0.00  0.00    -0.624 OA
HETATM   10  O           1     -20.580  -5.051  -5.229  0.00  0.00    -0.624 OA
BRANCH   8  11
HETATM   11  O           1     -22.901  -6.050  -5.150  0.00  0.00    -0.300 OA
HETATM   12  H           1     -22.962  -5.168  -4.824  0.00  0.00     0.223 HD
ENDBRANCH   8  11
ENDBRANCH   7   8
ENDBRANCH   6   7
ENDBRANCH   5   6
BRANCH   5  13
HETATM   13  N           1     -20.946 -10.026  -5.652  0.00  0.00    -0.064 N 
HETATM   14  H           1     -21.818  -9.475  -5.818  0.00  0.00     0.275 HD
HETATM   15  H           1     -20.261  -9.830  -6.416  0.00  0.00     0.275 HD
HETATM   16  H           1     -21.174 -11.045  -5.639  0.00  0.00     0.275 HD
ENDBRANCH   5  13
ENDBRANCH   2   5
BRANCH   1  17
HETATM   17  C           1     -22.188  -9.219  -0.997  0.00  0.00     0.185 C 
BRANCH  17  18
HETATM   18  C           1     -21.817 -10.299   0.011  0.00  0.00     0.040 C 
BRANCH  18  19
HETATM   19  C           1     -22.677 -11.532  -0.226  0.00  0.00    -0.020 C 
HETATM   20  C           1     -22.419 -12.551   0.876  0.00  0.00     0.009 C 
HETATM   21  C           1     -24.148 -11.135  -0.216  0.00  0.00     0.009 C 
ENDBRANCH  18  19
ENDBRANCH  17  18
BRANCH  17  22
HETATM   22  C           1     -22.281  -7.886  -0.297  0.00  0.00     0.196 C 
HETATM   23  O           1     -22.659  -6.875  -0.927  0.00  0.00    -0.646 OA
HETATM   24  O           1     -21.979  -7.793   0.912  0.00  0.00    -0.646 OA
ENDBRANCH  17  22
ENDBRANCH   1  17
TORSDOF 10
ENDMDL
MODEL 4
REMARK VINA RESULT:      -5.3      2.622      3.504
REMARK  10 active torsions:
REMARK  status: ('A' for Active; 'I' for Inactive)
REMARK    1  A    between atoms: C_2  and  C_4 
REMARK    2  A    between atoms: C_4  and  C_5 
REMARK    3  A    between atoms: C_5  and  C_6 
REMARK    4  A    between atoms: C_5  and  N_9 
REMARK       I    between atoms: N_9  and  C_10 
REMARK    5  A    between atoms: C_10  and  C_11 
REMARK    6  A    between atoms: C_11  and  C_12 
REMARK    7  A    between atoms: C_11  and  N_18 
REMARK    8  A    between atoms: C_12  and  O_13 
REMARK    9  A    between atoms: O_13  and  P_14 
REMARK   10  A    between atoms: P_14  and  O_15 
ROOT
HETATM    1  N           1     -21.137 -10.136  -2.208  0.00  0.00    -0.345 N 
HETATM    2  C           1     -20.122  -9.403  -2.761  0.00  0.00     0.251 C 
HETATM    3  O           1     -19.436  -8.696  -2.060  0.00  0.00    -0.271 OA
HETATM    4  H           1     -21.711 -10.729  -2.794  0.00  0.00     0.163 HD
ENDROOT
BRANCH   2   5
HETATM    5  C           1     -19.859  -9.477  -4.245  0.00  0.00     0.298 C 
BRANCH   5   6
HETATM    6  C           1     -21.147  -9.187  -5.004  0.00  0.00     0.224 C 
BRANCH   6   7
HETATM    7  O           1     -21.839  -8.145  -4.372  0.00  0.00    -0.287 OA
BRANCH   7   8
HETATM    8  P           1     -21.753  -6.700  -5.088  0.00  0.00     0.406 P 
HETATM    9  O           1     -21.163  -6.853  -6.437  0.00  0.00    -0.624 OA
HETATM   10  O           1     -20.905  -5.798  -4.277  0.00  0.00    -0.624 OA
BRANCH   8  11
HETATM   11  O           1     -23.235  -6.073  -5.217  0.00  0.00    -0.300 OA
HETATM   12  H           1     -23.432  -5.734  -4.360  0.00  0.00     0.223 HD
ENDBRANCH   8  11
ENDBRANCH   7   8
ENDBRANCH   6   7
ENDBRANCH   5   6
BRANCH   5  13
HETATM   13  N           1     -19.371 -10.851  -4.598  0.00  0.00    -0.064 N 
HETATM   14  H           1     -19.329 -11.440  -3.735  0.00  0.00     0.275 HD
HETATM   15  H           1     -20.027 -11.287  -5.284  0.00  0.00     0.275 HD
HETATM   16  H           1     -18.417 -10.784  -5.020  0.00  0.00     0.275 HD
ENDBRANCH   5  13
ENDBRANCH   2   5
BRANCH   1  17
HETATM   17  C           1     -21.389 -10.066  -0.781  0.00  0.00     0.185 C 
BRANCH  17  18
HETATM   18  C           1     -22.776  -9.484  -0.541  0.00  0.00     0.040 C 
BRANCH  18  19
HETATM   19  C           1     -22.649  -8.149   0.179  0.00  0.00    -0.020 C 
HETATM   20  C           1     -21.498  -8.216   1.174  0.00  0.00     0.009 C 
HETATM   21  C           1     -22.377  -7.048  -0.838  0.00  0.00     0.009 C 
ENDBRANCH  18  19
ENDBRANCH  17  18
BRANCH  17  22
HETATM   22  C           1     -21.313 -11.451  -0.189  0.00  0.00     0.196 C 
HETATM   23  O           1     -20.395 -12.227  -0.530  0.00  0.00    -0.646 OA
HETATM   24  O           1     -22.169 -11.823   0.642  0.00  0.00    -0.646 OA
ENDBRANCH  17  22
ENDBRANCH   1  17
TORSDOF 10
ENDMDL
MODEL 5
REMARK VINA RESULT:      -5.2      3.769      6.711
REMARK  10 active torsions:
REMARK  status: ('A' for Active; 'I' for Inactive)
REMARK    1  A    between atoms: C_2  and  C_4 
REMARK    2  A    between atoms: C_4  and  C_5 
REMARK    3  A    between atoms: C_5  and  C_6 
REMARK    4  A    between atoms: C_5  and  N_9 
REMARK       I    between atoms: N_9  and  C_10 
REMARK    5  A    between atoms: C_10  and  C_11 
REMARK    6  A    between atoms: C_11  and  C_12 
REMARK    7  A    between atoms: C_11  and  N_18 
REMARK    8  A    between atoms: C_12  and  O_13 
REMARK    9  A    between atoms: O_13  and  P_14 
REMARK   10  A    between atoms: P_14  and  O_15 
ROOT
HETATM    1  N           1     -20.891  -8.195  -5.679  0.00  0.00    -0.345 N 
HETATM    2  C           1     -20.028  -9.054  -5.055  0.00  0.00     0.251 C 
HETATM    3  O           1     -19.157  -8.621  -4.337  0.00  0.00    -0.271 OA
HETATM    4  H           1     -21.620  -8.558  -6.280  0.00  0.00     0.163 HD
ENDROOT
BRANCH   2   5
HETATM    5  C           1     -20.162 -10.542  -5.263  0.00  0.00     0.298 C 
BRANCH   5   6
HETATM    6  C           1     -21.273 -11.083  -4.373  0.00  0.00     0.224 C 
BRANCH   6   7
HETATM    7  O           1     -21.940 -10.015  -3.756  0.00  0.00    -0.287 OA
BRANCH   7   8
HETATM    8  P           1     -21.850  -9.959  -2.145  0.00  0.00     0.406 P 
HETATM    9  O           1     -20.613 -10.638  -1.697  0.00  0.00    -0.624 OA
HETATM   10  O           1     -23.027 -10.640  -1.561  0.00  0.00    -0.624 OA
BRANCH   8  11
HETATM   11  O           1     -21.823  -8.419  -1.660  0.00  0.00    -0.300 OA
HETATM   12  H           1     -22.281  -8.415  -0.837  0.00  0.00     0.223 HD
ENDBRANCH   8  11
ENDBRANCH   7   8
ENDBRANCH   6   7
ENDBRANCH   5   6
BRANCH   5  13
HETATM   13  N           1     -18.868 -11.215  -4.910  0.00  0.00    -0.064 N 
HETATM   14  H           1     -18.653 -11.953  -5.618  0.00  0.00     0.275 HD
HETATM   15  H           1     -18.099 -10.507  -4.902  0.00  0.00     0.275 HD
HETATM   16  H           1     -18.951 -11.653  -3.964  0.00  0.00     0.275 HD
ENDBRANCH   5  13
ENDBRANCH   2   5
BRANCH   1  17
HETATM   17  C           1     -20.762  -6.764  -5.478  0.00  0.00     0.185 C 
BRANCH  17  18
HETATM   18  C           1     -20.845  -6.055  -6.823  0.00  0.00     0.040 C 
BRANCH  18  19
HETATM   19  C           1     -20.325  -4.631  -6.679  0.00  0.00    -0.020 C 
HETATM   20  C           1     -19.027  -4.483  -7.462  0.00  0.00     0.009 C 
HETATM   21  C           1     -21.361  -3.655  -7.224  0.00  0.00     0.009 C 
ENDBRANCH  18  19
ENDBRANCH  17  18
BRANCH  17  22
HETATM   22  C           1     -21.877  -6.280  -4.583  0.00  0.00     0.196 C 
HETATM   23  O           1     -23.036  -6.166  -5.036  0.00  0.00    -0.646 OA
HETATM   24  O           1     -21.640  -5.994  -3.391  0.00  0.00    -0.646 OA
ENDBRANCH  17  22
ENDBRANCH   1  17
TORSDOF 10
ENDMDL
MODEL 6
REMARK VINA RESULT:      -5.2      3.425      5.769
REMARK  10 active torsions:
REMARK  status: ('A' for Active; 'I' for Inactive)
REMARK    1  A    between atoms: C_2  and  C_4 
REMARK    2  A    between atoms: C_4  and  C_5 
REMARK    3  A    between atoms: C_5  and  C_6 
REMARK    4  A    between atoms: C_5  and  N_9 
REMARK       I    between atoms: N_9  and  C_10 
REMARK    5  A    between atoms: C_10  and  C_11 
REMARK    6  A    between atoms: C_11  and  C_12 
REMARK    7  A    between atoms: C_11  and  N_18 
REMARK    8  A    between atoms: C_12  and  O_13 
REMARK    9  A    between atoms: O_13  and  P_14 
REMARK   10  A    between atoms: P_14  and  O_15 
ROOT
HETATM    1  N           1     -20.642  -8.419  -3.206  0.00  0.00    -0.345 N 
HETATM    2  C           1     -20.945  -9.546  -3.921  0.00  0.00     0.251 C 
HETATM    3  O           1     -22.006 -10.101  -3.754  0.00  0.00    -0.271 OA
HETATM    4  H           1     -19.755  -7.954  -3.345  0.00  0.00     0.163 HD
ENDROOT
BRANCH   2   5
HETATM    5  C           1     -19.955 -10.096  -4.917  0.00  0.00     0.298 C 
BRANCH   5   6
HETATM    6  C           1     -18.903 -10.921  -4.187  0.00  0.00     0.224 C 
BRANCH   6   7
HETATM    7  O           1     -18.120 -10.079  -3.386  0.00  0.00    -0.287 OA
BRANCH   7   8
HETATM    8  P           1     -16.526 -10.149  -3.630  0.00  0.00     0.406 P 
HETATM    9  O           1     -15.844  -9.205  -2.716  0.00  0.00    -0.624 OA
HETATM   10  O           1     -16.226  -9.783  -5.033  0.00  0.00    -0.624 OA
BRANCH   8  11
HETATM   11  O           1     -16.002 -11.649  -3.342  0.00  0.00    -0.300 OA
HETATM   12  H           1     -15.746 -11.984  -4.185  0.00  0.00     0.223 HD
ENDBRANCH   8  11
ENDBRANCH   7   8
ENDBRANCH   6   7
ENDBRANCH   5   6
BRANCH   5  13
HETATM   13  N           1     -19.287  -8.960  -5.636  0.00  0.00    -0.064 N 
HETATM   14  H           1     -19.272  -8.117  -5.019  0.00  0.00     0.275 HD
HETATM   15  H           1     -18.307  -9.231  -5.878  0.00  0.00     0.275 HD
HETATM   16  H           1     -19.816  -8.743  -6.511  0.00  0.00     0.275 HD
ENDBRANCH   5  13
ENDBRANCH   2   5
BRANCH   1  17
HETATM   17  C           1     -21.595  -7.890  -2.247  0.00  0.00     0.185 C 
BRANCH  17  18
HETATM   18  C           1     -20.962  -7.872  -0.862  0.00  0.00     0.040 C 
BRANCH  18  19
HETATM   19  C           1     -21.715  -8.828   0.053  0.00  0.00    -0.020 C 
HETATM   20  C           1     -20.959  -8.973   1.367  0.00  0.00     0.009 C 
HETATM   21  C           1     -23.108  -8.278   0.327  0.00  0.00     0.009 C 
ENDBRANCH  18  19
ENDBRANCH  17  18
BRANCH  17  22
HETATM   22  C           1     -21.980  -6.487  -2.645  0.00  0.00     0.196 C 
HETATM   23  O           1     -21.920  -6.138  -3.843  0.00  0.00    -0.646 OA
HETATM   24  O           1     -22.358  -5.673  -1.775  0.00  0.00    -0.646 OA
ENDBRANCH  17  22
ENDBRANCH   1  17
TORSDOF 10
ENDMDL
MODEL 7
REMARK VINA RESULT:      -5.1      3.395      5.029
REMARK  10 active torsions:
REMARK  status: ('A' for Active; 'I' for Inactive)
REMARK    1  A    between atoms: C_2  and  C_4 
REMARK    2  A    between atoms: C_4  and  C_5 
REMARK    3  A    between atoms: C_5  and  C_6 
REMARK    4  A    between atoms: C_5  and  N_9 
REMARK       I    between atoms: N_9  and  C_10 
REMARK    5  A    between atoms: C_10  and  C_11 
REMARK    6  A    between atoms: C_11  and  C_12 
REMARK    7  A    between atoms: C_11  and  N_18 
REMARK    8  A    between atoms: C_12  and  O_13 
REMARK    9  A    between atoms: O_13  and  P_14 
REMARK   10  A    between atoms: P_14  and  O_15 
ROOT
HETATM    1  N           1     -21.318  -9.313  -2.974  0.00  0.00    -0.345 N 
HETATM    2  C           1     -21.972 -10.514  -3.041  0.00  0.00     0.251 C 
HETATM    3  O           1     -22.953 -10.706  -2.362  0.00  0.00    -0.271 OA
HETATM    4  H           1     -20.496  -9.151  -3.542  0.00  0.00     0.163 HD
ENDROOT
BRANCH   2   5
HETATM    5  C           1     -21.467 -11.597  -3.962  0.00  0.00     0.298 C 
BRANCH   5   6
HETATM    6  C           1     -20.616 -10.974  -5.061  0.00  0.00     0.224 C 
BRANCH   6   7
HETATM    7  O           1     -19.260 -11.198  -4.788  0.00  0.00    -0.287 OA
BRANCH   7   8
HETATM    8  P           1     -18.274  -9.941  -5.018  0.00  0.00     0.406 P 
HETATM    9  O           1     -18.150  -9.669  -6.467  0.00  0.00    -0.624 OA
HETATM   10  O           1     -16.940 -10.251  -4.457  0.00  0.00    -0.624 OA
BRANCH   8  11
HETATM   11  O           1     -18.879  -8.640  -4.277  0.00  0.00    -0.300 OA
HETATM   12  H           1     -18.646  -8.745  -3.370  0.00  0.00     0.223 HD
ENDBRANCH   8  11
ENDBRANCH   7   8
ENDBRANCH   6   7
ENDBRANCH   5   6
BRANCH   5  13
HETATM   13  N           1     -22.633 -12.312  -4.579  0.00  0.00    -0.064 N 
HETATM   14  H           1     -22.368 -13.302  -4.781  0.00  0.00     0.275 HD
HETATM   15  H           1     -23.440 -12.297  -3.915  0.00  0.00     0.275 HD
HETATM   16  H           1     -22.903 -11.834  -5.469  0.00  0.00     0.275 HD
ENDBRANCH   5  13
ENDBRANCH   2   5
BRANCH   1  17
HETATM   17  C           1     -21.803  -8.272  -2.088  0.00  0.00     0.185 C 
BRANCH  17  18
HETATM   18  C           1     -20.947  -8.238  -0.829  0.00  0.00     0.040 C 
BRANCH  18  19
HETATM   19  C           1     -21.727  -8.841   0.332  0.00  0.00    -0.020 C 
HETATM   20  C           1     -20.920  -8.695   1.615  0.00  0.00     0.009 C 
HETATM   21  C           1     -23.057  -8.114   0.482  0.00  0.00     0.009 C 
ENDBRANCH  18  19
ENDBRANCH  17  18
BRANCH  17  22
HETATM   22  C           1     -21.722  -6.938  -2.789  0.00  0.00     0.196 C 
HETATM   23  O           1     -22.308  -5.944  -2.312  0.00  0.00    -0.646 OA
HETATM   24  O           1     -21.068  -6.829  -3.849  0.00  0.00    -0.646 OA
ENDBRANCH  17  22
ENDBRANCH   1  17
TORSDOF 10
ENDMDL
MODEL 8
REMARK VINA RESULT:      -5.1      2.091      3.088
REMARK  10 active torsions:
REMARK  status: ('A' for Active; 'I' for Inactive)
REMARK    1  A    between atoms: C_2  and  C_4 
REMARK    2  A    between atoms: C_4  and  C_5 
REMARK    3  A    between atoms: C_5  and  C_6 
REMARK    4  A    between atoms: C_5  and  N_9 
REMARK       I    between atoms: N_9  and  C_10 
REMARK    5  A    between atoms: C_10  and  C_11 
REMARK    6  A    between atoms: C_11  and  C_12 
REMARK    7  A    between atoms: C_11  and  N_18 
REMARK    8  A    between atoms: C_12  and  O_13 
REMARK    9  A    between atoms: O_13  and  P_14 
REMARK   10  A    between atoms: P_14  and  O_15 
ROOT
HETATM    1  N           1     -21.025  -7.751  -2.311  0.00  0.00    -0.345 N 
HETATM    2  C           1     -21.138  -8.029  -3.646  0.00  0.00     0.251 C 
HETATM    3  O           1     -21.887  -8.901  -4.020  0.00  0.00    -0.271 OA
HETATM    4  H           1     -20.398  -7.021  -1.997  0.00  0.00     0.163 HD
ENDROOT
BRANCH   2   5
HETATM    5  C           1     -20.328  -7.249  -4.651  0.00  0.00     0.298 C 
BRANCH   5   6
HETATM    6  C           1     -21.020  -5.925  -4.944  0.00  0.00     0.224 C 
BRANCH   6   7
HETATM    7  O           1     -20.105  -5.038  -5.528  0.00  0.00    -0.287 OA
BRANCH   7   8
HETATM    8  P           1     -20.430  -4.581  -7.043  0.00  0.00     0.406 P 
HETATM    9  O           1     -19.165  -4.272  -7.747  0.00  0.00    -0.624 OA
HETATM   10  O           1     -21.290  -3.377  -7.021  0.00  0.00    -0.624 OA
BRANCH   8  11
HETATM   11  O           1     -21.196  -5.776  -7.813  0.00  0.00    -0.300 OA
HETATM   12  H           1     -20.539  -6.437  -7.953  0.00  0.00     0.223 HD
ENDBRANCH   8  11
ENDBRANCH   7   8
ENDBRANCH   6   7
ENDBRANCH   5   6
BRANCH   5  13
HETATM   13  N           1     -20.208  -8.041  -5.920  0.00  0.00    -0.064 N 
HETATM   14  H           1     -21.054  -8.644  -6.036  0.00  0.00     0.275 HD
HETATM   15  H           1     -20.134  -7.387  -6.732  0.00  0.00     0.275 HD
HETATM   16  H           1     -19.355  -8.643  -5.875  0.00  0.00     0.275 HD
ENDBRANCH   5  13
ENDBRANCH   2   5
BRANCH   1  17
HETATM   17  C           1     -21.805  -8.501  -1.344  0.00  0.00     0.185 C 
BRANCH  17  18
HETATM   18  C           1     -20.870  -9.327  -0.470  0.00  0.00     0.040 C 
BRANCH  18  19
HETATM   19  C           1     -21.168 -10.807  -0.664  0.00  0.00    -0.020 C 
HETATM   20  C           1     -21.126 -11.513   0.685  0.00  0.00     0.009 C 
HETATM   21  C           1     -22.552 -10.969  -1.279  0.00  0.00     0.009 C 
ENDBRANCH  18  19
ENDBRANCH  17  18
BRANCH  17  22
HETATM   22  C           1     -22.589  -7.544  -0.480  0.00  0.00     0.196 C 
HETATM   23  O           1     -22.595  -6.323  -0.747  0.00  0.00    -0.646 OA
HETATM   24  O           1     -23.231  -7.973   0.502  0.00  0.00    -0.646 OA
ENDBRANCH  17  22
ENDBRANCH   1  17
TORSDOF 10
ENDMDL
MODEL 9
REMARK VINA RESULT:      -5.0      3.097      7.562
REMARK  10 active torsions:
REMARK  status: ('A' for Active; 'I' for Inactive)
REMARK    1  A    between atoms: C_2  and  C_4 
REMARK    2  A    between atoms: C_4  and  C_5 
REMARK    3  A    between atoms: C_5  and  C_6 
REMARK    4  A    between atoms: C_5  and  N_9 
REMARK       I    between atoms: N_9  and  C_10 
REMARK    5  A    between atoms: C_10  and  C_11 
REMARK    6  A    between atoms: C_11  and  C_12 
REMARK    7  A    between atoms: C_11  and  N_18 
REMARK    8  A    between atoms: C_12  and  O_13 
REMARK    9  A    between atoms: O_13  and  P_14 
REMARK   10  A    between atoms: P_14  and  O_15 
ROOT
HETATM    1  N           1     -21.933  -6.166  -5.857  0.00  0.00    -0.345 N 
HETATM    2  C           1     -21.214  -6.141  -4.693  0.00  0.00     0.251 C 
HETATM    3  O           1     -20.512  -5.191  -4.437  0.00  0.00    -0.271 OA
HETATM    4  H           1     -22.521  -6.961  -6.072  0.00  0.00     0.163 HD
ENDROOT
BRANCH   2   5
HETATM    5  C           1     -21.297  -7.299  -3.729  0.00  0.00     0.298 C 
BRANCH   5   6
HETATM    6  C           1     -21.280  -6.773  -2.300  0.00  0.00     0.224 C 
BRANCH   6   7
HETATM    7  O           1     -20.835  -7.782  -1.435  0.00  0.00    -0.287 OA
BRANCH   7   8
HETATM    8  P           1     -21.904  -8.301  -0.341  0.00  0.00     0.406 P 
HETATM    9  O           1     -21.235  -8.448   0.971  0.00  0.00    -0.624 OA
HETATM   10  O           1     -22.449  -9.609  -0.767  0.00  0.00    -0.624 OA
BRANCH   8  11
HETATM   11  O           1     -23.107  -7.232  -0.214  0.00  0.00    -0.300 OA
HETATM   12  H           1     -22.843  -6.649   0.478  0.00  0.00     0.223 HD
ENDBRANCH   8  11
ENDBRANCH   7   8
ENDBRANCH   6   7
ENDBRANCH   5   6
BRANCH   5  13
HETATM   13  N           1     -20.123  -8.209  -3.940  0.00  0.00    -0.064 N 
HETATM   14  H           1     -19.420  -7.736  -4.553  0.00  0.00     0.275 HD
HETATM   15  H           1     -19.685  -8.430  -3.017  0.00  0.00     0.275 HD
HETATM   16  H           1     -20.445  -9.092  -4.396  0.00  0.00     0.275 HD
ENDBRANCH   5  13
ENDBRANCH   2   5
BRANCH   1  17
HETATM   17  C           1     -21.853  -5.053  -6.783  0.00  0.00     0.185 C 
BRANCH  17  18
HETATM   18  C           1     -21.120  -5.493  -8.043  0.00  0.00     0.040 C 
BRANCH  18  19
HETATM   19  C           1     -20.237  -4.357  -8.541  0.00  0.00    -0.020 C 
HETATM   20  C           1     -18.937  -4.341  -7.748  0.00  0.00     0.009 C 
HETATM   21  C           1     -19.929  -4.563 -10.018  0.00  0.00     0.009 C 
ENDBRANCH  18  19
ENDBRANCH  17  18
BRANCH  17  22
HETATM   22  C           1     -23.247  -4.599  -7.144  0.00  0.00     0.196 C 
HETATM   23  O           1     -23.481  -4.145  -8.284  0.00  0.00    -0.646 OA
HETATM   24  O           1     -24.166  -4.675  -6.301  0.00  0.00    -0.646 OA
ENDBRANCH  17  22
ENDBRANCH   1  17
TORSDOF 10
ENDMDL
