MODEL 1
REMARK VINA RESULT:      -7.5      0.000      0.000
REMARK  9 active torsions:
REMARK  status: ('A' for Active; 'I' for Inactive)
REMARK    1  A    between atoms: N_1  and  C_17 
REMARK    2  A    between atoms: O_4  and  C_12 
REMARK    3  A    between atoms: C_8  and  C_13 
REMARK    4  A    between atoms: C_13  and  C_17 
REMARK    5  A    between atoms: N_15  and  C_21 
REMARK       I    between atoms: N_15  and  C_16 
REMARK    6  A    between atoms: C_16  and  C_17 
REMARK    7  A    between atoms: C_20  and  C_26 
REMARK    8  A    between atoms: C_20  and  C_21 
REMARK    9  A    between atoms: C_21  and  C_22 
ROOT
HETATM    1  O           1     -20.848  -7.698  -6.250  0.00  0.00    -0.271 OA
HETATM    2  H           1     -22.026  -5.038  -5.077  0.00  0.00     0.163 HD
HETATM    3  N           1     -21.553  -5.642  -5.736  0.00  0.00    -0.344 N 
HETATM    4  C           1     -21.413  -6.976  -5.464  0.00  0.00     0.249 C 
ENDROOT
BRANCH   3   5
HETATM    5  C           1     -21.024  -5.095  -6.971  0.00  0.00     0.189 C 
BRANCH   5   6
HETATM    6  C           1     -21.895  -3.932  -7.425  0.00  0.00     0.074 C 
BRANCH   6   7
HETATM    7  C           1     -22.362  -4.175  -8.827  0.00  0.00    -0.056 A 
HETATM    8  C           1     -21.439  -4.216  -9.871  0.00  0.00     0.010 A 
HETATM    9  C           1     -21.873  -4.444 -11.177  0.00  0.00     0.037 A 
HETATM   10  C           1     -23.231  -4.629 -11.438  0.00  0.00     0.065 A 
HETATM   11  C           1     -24.154  -4.589 -10.394  0.00  0.00     0.037 A 
HETATM   12  C           1     -23.719  -4.362  -9.087  0.00  0.00     0.010 A 
BRANCH  10  13
HETATM   13  O           1     -23.653  -4.850 -12.707  0.00  0.00    -0.361 OA
HETATM   14  H           1     -23.240  -5.671 -13.023  0.00  0.00     0.217 HD
ENDBRANCH  10  13
ENDBRANCH   6   7
ENDBRANCH   5   6
BRANCH   5  15
HETATM   15  C           1     -19.614  -4.610  -6.742  0.00  0.00     0.197 C 
HETATM   16  O           1     -19.208  -4.395  -5.579  0.00  0.00    -0.646 OA
HETATM   17  O           1     -18.851  -4.423  -7.714  0.00  0.00    -0.646 OA
ENDBRANCH   5  15
ENDBRANCH   3   5
BRANCH   4  18
HETATM   18  C           1     -21.964  -7.545  -4.179  0.00  0.00     0.278 C 
BRANCH  18  19
HETATM   19  N           1     -21.799  -9.035  -4.181  0.00  0.00    -0.066 N 
HETATM   20  H           1     -22.721  -9.489  -4.372  0.00  0.00     0.275 HD
HETATM   21  H           1     -21.116  -9.309  -4.923  0.00  0.00     0.275 HD
HETATM   22  H           1     -21.444  -9.348  -3.248  0.00  0.00     0.275 HD
ENDBRANCH  18  19
BRANCH  18  23
HETATM   23  C           1     -21.210  -6.953  -2.995  0.00  0.00     0.021 C 
HETATM   24  C           1     -22.177  -6.172  -2.115  0.00  0.00     0.012 C 
BRANCH  23  25
HETATM   25  C           1     -20.579  -8.077  -2.184  0.00  0.00     0.002 C 
HETATM   26  C           1     -21.104  -8.028  -0.754  0.00  0.00     0.005 C 
ENDBRANCH  23  25
ENDBRANCH  18  23
ENDBRANCH   4  18
TORSDOF 9
ENDMDL
MODEL 2
REMARK VINA RESULT:      -6.7      2.485      7.428
REMARK  9 active torsions:
REMARK  status: ('A' for Active; 'I' for Inactive)
REMARK    1  A    between atoms: N_1  and  C_17 
REMARK    2  A    between atoms: O_4  and  C_12 
REMARK    3  A    between atoms: C_8  and  C_13 
REMARK    4  A    between atoms: C_13  and  C_17 
REMARK    5  A    between atoms: N_15  and  C_21 
REMARK       I    between atoms: N_15  and  C_16 
REMARK    6  A    between atoms: C_16  and  C_17 
REMARK    7  A    between atoms: C_20  and  C_26 
REMARK    8  A    between atoms: C_20  and  C_21 
REMARK    9  A    between atoms: C_21  and  C_22 
ROOT
HETATM    1  O           1     -20.173  -4.760  -4.862  0.00  0.00    -0.271 OA
HETATM    2  H           1     -20.275  -7.033  -7.022  0.00  0.00     0.163 HD
HETATM    3  N           1     -20.216  -6.618  -6.101  0.00  0.00    -0.344 N 
HETATM    4  C           1     -20.243  -5.256  -5.961  0.00  0.00     0.249 C 
ENDROOT
BRANCH   3   5
HETATM    5  C           1     -20.103  -7.465  -4.929  0.00  0.00     0.189 C 
BRANCH   5   6
HETATM    6  C           1     -21.462  -8.074  -4.612  0.00  0.00     0.074 C 
BRANCH   6   7
HETATM    7  C           1     -21.714  -7.992  -3.138  0.00  0.00    -0.056 A 
HETATM    8  C           1     -21.957  -6.755  -2.541  0.00  0.00     0.010 A 
HETATM    9  C           1     -22.193  -6.677  -1.168  0.00  0.00     0.037 A 
HETATM   10  C           1     -22.186  -7.837  -0.393  0.00  0.00     0.065 A 
HETATM   11  C           1     -21.944  -9.074  -0.990  0.00  0.00     0.037 A 
HETATM   12  C           1     -21.708  -9.151  -2.364  0.00  0.00     0.010 A 
BRANCH  10  13
HETATM   13  O           1     -22.415  -7.762   0.941  0.00  0.00    -0.361 OA
HETATM   14  H           1     -22.964  -6.978   1.108  0.00  0.00     0.217 HD
ENDBRANCH  10  13
ENDBRANCH   6   7
ENDBRANCH   5   6
BRANCH   5  15
HETATM   15  C           1     -19.108  -8.566  -5.199  0.00  0.00     0.197 C 
HETATM   16  O           1     -18.586  -8.673  -6.330  0.00  0.00    -0.646 OA
HETATM   17  O           1     -18.804  -9.371  -4.292  0.00  0.00    -0.646 OA
ENDBRANCH   5  15
ENDBRANCH   3   5
BRANCH   4  18
HETATM   18  C           1     -20.361  -4.375  -7.180  0.00  0.00     0.278 C 
BRANCH  18  19
HETATM   19  N           1     -19.061  -4.379  -7.927  0.00  0.00    -0.066 N 
HETATM   20  H           1     -18.333  -3.882  -7.365  0.00  0.00     0.275 HD
HETATM   21  H           1     -18.759  -5.365  -8.094  0.00  0.00     0.275 HD
HETATM   22  H           1     -19.184  -3.892  -8.844  0.00  0.00     0.275 HD
ENDBRANCH  18  19
BRANCH  18  23
HETATM   23  C           1     -21.467  -4.903  -8.085  0.00  0.00     0.021 C 
HETATM   24  C           1     -22.815  -4.401  -7.586  0.00  0.00     0.012 C 
BRANCH  23  25
HETATM   25  C           1     -21.237  -4.408  -9.507  0.00  0.00     0.002 C 
HETATM   26  C           1     -22.532  -3.825 -10.058  0.00  0.00     0.005 C 
ENDBRANCH  23  25
ENDBRANCH  18  23
ENDBRANCH   4  18
TORSDOF 9
ENDMDL
MODEL 3
REMARK VINA RESULT:      -6.3     12.522     14.226
REMARK  9 active torsions:
REMARK  status: ('A' for Active; 'I' for Inactive)
REMARK    1  A    between atoms: N_1  and  C_17 
REMARK    2  A    between atoms: O_4  and  C_12 
REMARK    3  A    between atoms: C_8  and  C_13 
REMARK    4  A    between atoms: C_13  and  C_17 
REMARK    5  A    between atoms: N_15  and  C_21 
REMARK       I    between atoms: N_15  and  C_16 
REMARK    6  A    between atoms: C_16  and  C_17 
REMARK    7  A    between atoms: C_20  and  C_26 
REMARK    8  A    between atoms: C_20  and  C_21 
REMARK    9  A    between atoms: C_21  and  C_22 
ROOT
HETATM    1  O           1     -33.197  -3.584 -13.102  0.00  0.00    -0.271 OA
HETATM    2  H           1     -34.818  -5.277 -15.187  0.00  0.00     0.163 HD
HETATM    3  N           1     -34.154  -4.593 -14.851  0.00  0.00    -0.344 N 
HETATM    4  C           1     -33.990  -4.402 -13.505  0.00  0.00     0.249 C 
ENDROOT
BRANCH   3   5
HETATM    5  C           1     -33.374  -3.813 -15.793  0.00  0.00     0.189 C 
BRANCH   5   6
HETATM    6  C           1     -32.775  -4.740 -16.843  0.00  0.00     0.074 C 
BRANCH   6   7
HETATM    7  C           1     -31.282  -4.644 -16.800  0.00  0.00    -0.056 A 
HETATM    8  C           1     -30.624  -3.667 -17.547  0.00  0.00     0.010 A 
HETATM    9  C           1     -29.233  -3.577 -17.506  0.00  0.00     0.037 A 
HETATM   10  C           1     -28.499  -4.465 -16.718  0.00  0.00     0.065 A 
HETATM   11  C           1     -29.157  -5.441 -15.971  0.00  0.00     0.037 A 
HETATM   12  C           1     -30.549  -5.531 -16.011  0.00  0.00     0.010 A 
BRANCH  10  13
HETATM   13  O           1     -27.147  -4.378 -16.678  0.00  0.00    -0.361 OA
HETATM   14  H           1     -26.784  -5.253 -16.892  0.00  0.00     0.217 HD
ENDBRANCH  10  13
ENDBRANCH   6   7
ENDBRANCH   5   6
BRANCH   5  15
HETATM   15  C           1     -34.266  -2.799 -16.465  0.00  0.00     0.197 C 
HETATM   16  O           1     -35.260  -2.342 -15.860  0.00  0.00    -0.646 OA
HETATM   17  O           1     -34.011  -2.414 -17.627  0.00  0.00    -0.646 OA
ENDBRANCH   5  15
ENDBRANCH   3   5
BRANCH   4  18
HETATM   18  C           1     -34.801  -5.213 -12.524  0.00  0.00     0.278 C 
BRANCH  18  19
HETATM   19  N           1     -35.245  -6.488 -13.177  0.00  0.00    -0.066 N 
HETATM   20  H           1     -35.373  -7.227 -12.449  0.00  0.00     0.275 HD
HETATM   21  H           1     -36.151  -6.328 -13.673  0.00  0.00     0.275 HD
HETATM   22  H           1     -34.521  -6.798 -13.864  0.00  0.00     0.275 HD
ENDBRANCH  18  19
BRANCH  18  23
HETATM   23  C           1     -33.948  -5.538 -11.305  0.00  0.00     0.021 C 
HETATM   24  C           1     -34.283  -4.571 -10.177  0.00  0.00     0.012 C 
BRANCH  23  25
HETATM   25  C           1     -34.236  -6.964 -10.852  0.00  0.00     0.002 C 
HETATM   26  C           1     -35.021  -6.934  -9.547  0.00  0.00     0.005 C 
ENDBRANCH  23  25
ENDBRANCH  18  23
ENDBRANCH   4  18
TORSDOF 9
ENDMDL
MODEL 4
REMARK VINA RESULT:      -6.3      5.616      8.492
REMARK  9 active torsions:
REMARK  status: ('A' for Active; 'I' for Inactive)
REMARK    1  A    between atoms: N_1  and  C_17 
REMARK    2  A    between atoms: O_4  and  C_12 
REMARK    3  A    between atoms: C_8  and  C_13 
REMARK    4  A    between atoms: C_13  and  C_17 
REMARK    5  A    between atoms: N_15  and  C_21 
REMARK       I    between atoms: N_15  and  C_16 
REMARK    6  A    between atoms: C_16  and  C_17 
REMARK    7  A    between atoms: C_20  and  C_26 
REMARK    8  A    between atoms: C_20  and  C_21 
REMARK    9  A    between atoms: C_21  and  C_22 
ROOT
HETATM    1  O           1     -21.817  -9.733  -4.025  0.00  0.00    -0.271 OA
HETATM    2  H           1     -19.803  -8.077  -2.279  0.00  0.00     0.163 HD
HETATM    3  N           1     -20.697  -8.406  -2.618  0.00  0.00    -0.344 N 
HETATM    4  C           1     -20.749  -9.340  -3.619  0.00  0.00     0.249 C 
ENDROOT
BRANCH   3   5
HETATM    5  C           1     -21.925  -7.890  -2.045  0.00  0.00     0.189 C 
BRANCH   5   6
HETATM    6  C           1     -21.880  -8.042  -0.531  0.00  0.00     0.074 C 
BRANCH   6   7
HETATM    7  C           1     -22.113  -9.475  -0.165  0.00  0.00    -0.056 A 
HETATM    8  C           1     -21.079 -10.229   0.390  0.00  0.00     0.010 A 
HETATM    9  C           1     -21.295 -11.564   0.732  0.00  0.00     0.037 A 
HETATM   10  C           1     -22.545 -12.145   0.518  0.00  0.00     0.065 A 
HETATM   11  C           1     -23.579 -11.391  -0.036  0.00  0.00     0.037 A 
HETATM   12  C           1     -23.363 -10.055  -0.378  0.00  0.00     0.010 A 
BRANCH  10  13
HETATM   13  O           1     -22.756 -13.442   0.850  0.00  0.00    -0.361 OA
HETATM   14  H           1     -23.109 -13.898   0.068  0.00  0.00     0.217 HD
ENDBRANCH  10  13
ENDBRANCH   6   7
ENDBRANCH   5   6
BRANCH   5  15
HETATM   15  C           1     -22.072  -6.432  -2.402  0.00  0.00     0.197 C 
HETATM   16  O           1     -21.930  -6.061  -3.587  0.00  0.00    -0.646 OA
HETATM   17  O           1     -22.338  -5.594  -1.513  0.00  0.00    -0.646 OA
ENDBRANCH   5  15
ENDBRANCH   3   5
BRANCH   4  18
HETATM   18  C           1     -19.471  -9.877  -4.216  0.00  0.00     0.278 C 
BRANCH  18  19
HETATM   19  N           1     -19.104  -9.066  -5.423  0.00  0.00    -0.066 N 
HETATM   20  H           1     -19.245  -8.051  -5.218  0.00  0.00     0.275 HD
HETATM   21  H           1     -18.102  -9.236  -5.665  0.00  0.00     0.275 HD
HETATM   22  H           1     -19.710  -9.346  -6.228  0.00  0.00     0.275 HD
ENDBRANCH  18  19
BRANCH  18  23
HETATM   23  C           1     -18.352  -9.788  -3.186  0.00  0.00     0.021 C 
HETATM   24  C           1     -18.374 -11.028  -2.303  0.00  0.00     0.012 C 
BRANCH  23  25
HETATM   25  C           1     -17.011  -9.699  -3.902  0.00  0.00     0.002 C 
HETATM   26  C           1     -15.894  -9.562  -2.875  0.00  0.00     0.005 C 
ENDBRANCH  23  25
ENDBRANCH  18  23
ENDBRANCH   4  18
TORSDOF 9
ENDMDL
MODEL 5
REMARK VINA RESULT:      -6.1      3.236      5.075
REMARK  9 active torsions:
REMARK  status: ('A' for Active; 'I' for Inactive)
REMARK    1  A    between atoms: N_1  and  C_17 
REMARK    2  A    between atoms: O_4  and  C_12 
REMARK    3  A    between atoms: C_8  and  C_13 
REMARK    4  A    between atoms: C_13  and  C_17 
REMARK    5  A    between atoms: N_15  and  C_21 
REMARK       I    between atoms: N_15  and  C_16 
REMARK    6  A    between atoms: C_16  and  C_17 
REMARK    7  A    between atoms: C_20  and  C_26 
REMARK    8  A    between atoms: C_20  and  C_21 
REMARK    9  A    between atoms: C_21  and  C_22 
ROOT
HETATM    1  O           1     -22.729 -10.509  -3.650  0.00  0.00    -0.271 OA
HETATM    2  H           1     -19.747  -9.920  -2.874  0.00  0.00     0.163 HD
HETATM    3  N           1     -20.569  -9.973  -3.462  0.00  0.00    -0.344 N 
HETATM    4  C           1     -21.748 -10.445  -2.950  0.00  0.00     0.249 C 
ENDROOT
BRANCH   3   5
HETATM    5  C           1     -20.500  -9.549  -4.847  0.00  0.00     0.189 C 
BRANCH   5   6
HETATM    6  C           1     -19.632  -8.302  -4.952  0.00  0.00     0.074 C 
BRANCH   6   7
HETATM    7  C           1     -20.430  -7.187  -5.552  0.00  0.00    -0.056 A 
HETATM    8  C           1     -21.740  -6.962  -5.128  0.00  0.00     0.010 A 
HETATM    9  C           1     -22.484  -5.922  -5.686  0.00  0.00     0.037 A 
HETATM   10  C           1     -21.918  -5.108  -6.668  0.00  0.00     0.065 A 
HETATM   11  C           1     -20.608  -5.333  -7.091  0.00  0.00     0.037 A 
HETATM   12  C           1     -19.864  -6.373  -6.532  0.00  0.00     0.010 A 
BRANCH  10  13
HETATM   13  O           1     -22.641  -4.098  -7.210  0.00  0.00    -0.361 OA
HETATM   14  H           1     -23.180  -3.702  -6.505  0.00  0.00     0.217 HD
ENDBRANCH  10  13
ENDBRANCH   6   7
ENDBRANCH   5   6
BRANCH   5  15
HETATM   15  C           1     -19.899 -10.653  -5.681  0.00  0.00     0.197 C 
HETATM   16  O           1     -20.611 -11.278  -6.497  0.00  0.00    -0.646 OA
HETATM   17  O           1     -18.689 -10.943  -5.558  0.00  0.00    -0.646 OA
ENDBRANCH   5  15
ENDBRANCH   3   5
BRANCH   4  18
HETATM   18  C           1     -21.820 -10.887  -1.508  0.00  0.00     0.278 C 
BRANCH  18  19
HETATM   19  N           1     -20.506 -10.619  -0.837  0.00  0.00    -0.066 N 
HETATM   20  H           1     -20.542  -9.691  -0.357  0.00  0.00     0.275 HD
HETATM   21  H           1     -20.315 -11.367  -0.134  0.00  0.00     0.275 HD
HETATM   22  H           1     -19.744 -10.610  -1.553  0.00  0.00     0.275 HD
ENDBRANCH  18  19
BRANCH  18  23
HETATM   23  C           1     -22.921 -10.114  -0.794  0.00  0.00     0.021 C 
HETATM   24  C           1     -23.888 -11.092  -0.140  0.00  0.00     0.012 C 
BRANCH  23  25
HETATM   25  C           1     -22.302  -9.223   0.276  0.00  0.00     0.002 C 
HETATM   26  C           1     -22.881  -7.819   0.166  0.00  0.00     0.005 C 
ENDBRANCH  23  25
ENDBRANCH  18  23
ENDBRANCH   4  18
TORSDOF 9
ENDMDL
MODEL 6
REMARK VINA RESULT:      -6.0      3.411      7.630
REMARK  9 active torsions:
REMARK  status: ('A' for Active; 'I' for Inactive)
REMARK    1  A    between atoms: N_1  and  C_17 
REMARK    2  A    between atoms: O_4  and  C_12 
REMARK    3  A    between atoms: C_8  and  C_13 
REMARK    4  A    between atoms: C_13  and  C_17 
REMARK    5  A    between atoms: N_15  and  C_21 
REMARK       I    between atoms: N_15  and  C_16 
REMARK    6  A    between atoms: C_16  and  C_17 
REMARK    7  A    between atoms: C_20  and  C_26 
REMARK    8  A    between atoms: C_20  and  C_21 
REMARK    9  A    between atoms: C_21  and  C_22 
ROOT
HETATM    1  O           1     -21.224  -8.076  -6.084  0.00  0.00    -0.271 OA
HETATM    2  H           1     -20.618  -6.719  -3.321  0.00  0.00     0.163 HD
HETATM    3  N           1     -20.718  -7.467  -3.995  0.00  0.00    -0.344 N 
HETATM    4  C           1     -21.103  -7.184  -5.279  0.00  0.00     0.249 C 
ENDROOT
BRANCH   3   5
HETATM    5  C           1     -20.455  -8.838  -3.604  0.00  0.00     0.189 C 
BRANCH   5   6
HETATM    6  C           1     -19.235  -8.879  -2.693  0.00  0.00     0.074 C 
BRANCH   6   7
HETATM    7  C           1     -18.074  -9.459  -3.439  0.00  0.00    -0.056 A 
HETATM    8  C           1     -16.838  -9.595  -2.808  0.00  0.00     0.010 A 
HETATM    9  C           1     -15.755 -10.136  -3.502  0.00  0.00     0.037 A 
HETATM   10  C           1     -15.910 -10.540  -4.828  0.00  0.00     0.065 A 
HETATM   11  C           1     -17.146 -10.405  -5.460  0.00  0.00     0.037 A 
HETATM   12  C           1     -18.229  -9.864  -4.765  0.00  0.00     0.010 A 
BRANCH  10  13
HETATM   13  O           1     -14.859 -11.066  -5.504  0.00  0.00    -0.361 OA
HETATM   14  H           1     -14.716 -11.970  -5.180  0.00  0.00     0.217 HD
ENDBRANCH  10  13
ENDBRANCH   6   7
ENDBRANCH   5   6
BRANCH   5  15
HETATM   15  C           1     -21.652  -9.390  -2.869  0.00  0.00     0.197 C 
HETATM   16  O           1     -21.974  -8.918  -1.757  0.00  0.00    -0.646 OA
HETATM   17  O           1     -22.321 -10.318  -3.372  0.00  0.00    -0.646 OA
ENDBRANCH   5  15
ENDBRANCH   3   5
BRANCH   4  18
HETATM   18  C           1     -21.378  -5.757  -5.686  0.00  0.00     0.278 C 
BRANCH  18  19
HETATM   19  N           1     -20.377  -4.850  -5.034  0.00  0.00    -0.066 N 
HETATM   20  H           1     -19.783  -5.402  -4.375  0.00  0.00     0.275 HD
HETATM   21  H           1     -19.773  -4.415  -5.766  0.00  0.00     0.275 HD
HETATM   22  H           1     -20.880  -4.101  -4.505  0.00  0.00     0.275 HD
ENDBRANCH  18  19
BRANCH  18  23
HETATM   23  C           1     -21.265  -5.630  -7.200  0.00  0.00     0.021 C 
HETATM   24  C           1     -22.249  -4.580  -7.697  0.00  0.00     0.012 C 
BRANCH  23  25
HETATM   25  C           1     -19.847  -5.211  -7.569  0.00  0.00     0.002 C 
HETATM   26  C           1     -19.899  -3.997  -8.487  0.00  0.00     0.005 C 
ENDBRANCH  23  25
ENDBRANCH  18  23
ENDBRANCH   4  18
TORSDOF 9
ENDMDL
MODEL 7
REMARK VINA RESULT:      -5.9      3.922      6.308
REMARK  9 active torsions:
REMARK  status: ('A' for Active; 'I' for Inactive)
REMARK    1  A    between atoms: N_1  and  C_17 
REMARK    2  A    between atoms: O_4  and  C_12 
REMARK    3  A    between atoms: C_8  and  C_13 
REMARK    4  A    between atoms: C_13  and  C_17 
REMARK    5  A    between atoms: N_15  and  C_21 
REMARK       I    between atoms: N_15  and  C_16 
REMARK    6  A    between atoms: C_16  and  C_17 
REMARK    7  A    between atoms: C_20  and  C_26 
REMARK    8  A    between atoms: C_20  and  C_21 
REMARK    9  A    between atoms: C_21  and  C_22 
ROOT
HETATM    1  O           1     -19.526  -8.532  -2.181  0.00  0.00    -0.271 OA
HETATM    2  H           1     -22.388  -7.615  -3.084  0.00  0.00     0.163 HD
HETATM    3  N           1     -21.422  -7.899  -3.180  0.00  0.00    -0.344 N 
HETATM    4  C           1     -20.680  -8.193  -2.067  0.00  0.00     0.249 C 
ENDROOT
BRANCH   3   5
HETATM    5  C           1     -20.821  -7.996  -4.497  0.00  0.00     0.189 C 
BRANCH   5   6
HETATM    6  C           1     -21.101  -9.374  -5.081  0.00  0.00     0.074 C 
BRANCH   6   7
HETATM    7  C           1     -19.809 -10.023  -5.469  0.00  0.00    -0.056 A 
HETATM    8  C           1     -18.615  -9.307  -5.381  0.00  0.00     0.010 A 
HETATM    9  C           1     -17.411  -9.911  -5.742  0.00  0.00     0.037 A 
HETATM   10  C           1     -17.401 -11.232  -6.192  0.00  0.00     0.065 A 
HETATM   11  C           1     -18.594 -11.948  -6.280  0.00  0.00     0.037 A 
HETATM   12  C           1     -19.799 -11.344  -5.918  0.00  0.00     0.010 A 
BRANCH  10  13
HETATM   13  O           1     -16.231 -11.820  -6.543  0.00  0.00    -0.361 OA
HETATM   14  H           1     -15.579 -11.628  -5.849  0.00  0.00     0.217 HD
ENDBRANCH  10  13
ENDBRANCH   6   7
ENDBRANCH   5   6
BRANCH   5  15
HETATM   15  C           1     -21.410  -6.938  -5.397  0.00  0.00     0.197 C 
HETATM   16  O           1     -22.224  -6.109  -4.937  0.00  0.00    -0.646 OA
HETATM   17  O           1     -21.083  -6.890  -6.602  0.00  0.00    -0.646 OA
ENDBRANCH   5  15
ENDBRANCH   3   5
BRANCH   4  18
HETATM   18  C           1     -21.305  -8.092  -0.697  0.00  0.00     0.278 C 
BRANCH  18  19
HETATM   19  N           1     -22.467  -7.145  -0.746  0.00  0.00    -0.066 N 
HETATM   20  H           1     -23.324  -7.626  -0.390  0.00  0.00     0.275 HD
HETATM   21  H           1     -22.263  -6.312  -0.150  0.00  0.00     0.275 HD
HETATM   22  H           1     -22.625  -6.838  -1.733  0.00  0.00     0.275 HD
ENDBRANCH  18  19
BRANCH  18  23
HETATM   23  C           1     -21.790  -9.467  -0.256  0.00  0.00     0.021 C 
HETATM   24  C           1     -20.996  -9.920   0.962  0.00  0.00     0.012 C 
BRANCH  23  25
HETATM   25  C           1     -23.269  -9.392   0.101  0.00  0.00     0.002 C 
HETATM   26  C           1     -23.922 -10.744  -0.152  0.00  0.00     0.005 C 
ENDBRANCH  23  25
ENDBRANCH  18  23
ENDBRANCH   4  18
TORSDOF 9
ENDMDL
MODEL 8
REMARK VINA RESULT:      -5.9      2.802      4.721
REMARK  9 active torsions:
REMARK  status: ('A' for Active; 'I' for Inactive)
REMARK    1  A    between atoms: N_1  and  C_17 
REMARK    2  A    between atoms: O_4  and  C_12 
REMARK    3  A    between atoms: C_8  and  C_13 
REMARK    4  A    between atoms: C_13  and  C_17 
REMARK    5  A    between atoms: N_15  and  C_21 
REMARK       I    between atoms: N_15  and  C_16 
REMARK    6  A    between atoms: C_16  and  C_17 
REMARK    7  A    between atoms: C_20  and  C_26 
REMARK    8  A    between atoms: C_20  and  C_21 
REMARK    9  A    between atoms: C_21  and  C_22 
ROOT
HETATM    1  O           1     -19.628  -8.853  -2.050  0.00  0.00    -0.271 OA
HETATM    2  H           1     -22.671  -8.839  -2.812  0.00  0.00     0.163 HD
HETATM    3  N           1     -21.705  -8.537  -2.807  0.00  0.00    -0.344 N 
HETATM    4  C           1     -20.781  -9.213  -2.057  0.00  0.00     0.249 C 
ENDROOT
BRANCH   3   5
HETATM    5  C           1     -21.299  -7.389  -3.594  0.00  0.00     0.189 C 
BRANCH   5   6
HETATM    6  C           1     -22.076  -7.372  -4.904  0.00  0.00     0.074 C 
BRANCH   6   7
HETATM    7  C           1     -21.455  -6.384  -5.841  0.00  0.00    -0.056 A 
HETATM    8  C           1     -22.208  -5.314  -6.325  0.00  0.00     0.010 A 
HETATM    9  C           1     -21.630  -4.392  -7.198  0.00  0.00     0.037 A 
HETATM   10  C           1     -20.298  -4.541  -7.586  0.00  0.00     0.065 A 
HETATM   11  C           1     -19.544  -5.610  -7.102  0.00  0.00     0.037 A 
HETATM   12  C           1     -20.124  -6.532  -6.229  0.00  0.00     0.010 A 
BRANCH  10  13
HETATM   13  O           1     -19.735  -3.645  -8.434  0.00  0.00    -0.361 OA
HETATM   14  H           1     -19.630  -2.806  -7.957  0.00  0.00     0.217 HD
ENDBRANCH  10  13
ENDBRANCH   6   7
ENDBRANCH   5   6
BRANCH   5  15
HETATM   15  C           1     -21.585  -6.124  -2.823  0.00  0.00     0.197 C 
HETATM   16  O           1     -20.794  -5.158  -2.891  0.00  0.00    -0.646 OA
HETATM   17  O           1     -22.613  -6.041  -2.117  0.00  0.00    -0.646 OA
ENDBRANCH   5  15
ENDBRANCH   3   5
BRANCH   4  18
HETATM   18  C           1     -21.203 -10.408  -1.237  0.00  0.00     0.278 C 
BRANCH  18  19
HETATM   19  N           1     -20.951 -10.132   0.215  0.00  0.00    -0.066 N 
HETATM   20  H           1     -20.210  -9.401   0.308  0.00  0.00     0.275 HD
HETATM   21  H           1     -21.832  -9.794   0.664  0.00  0.00     0.275 HD
HETATM   22  H           1     -20.634 -11.010   0.687  0.00  0.00     0.275 HD
ENDBRANCH  18  19
BRANCH  18  23
HETATM   23  C           1     -22.687 -10.673  -1.452  0.00  0.00     0.021 C 
HETATM   24  C           1     -22.865 -11.974  -2.224  0.00  0.00     0.012 C 
BRANCH  23  25
HETATM   25  C           1     -23.382 -10.787  -0.101  0.00  0.00     0.002 C 
HETATM   26  C           1     -23.711 -12.247   0.180  0.00  0.00     0.005 C 
ENDBRANCH  23  25
ENDBRANCH  18  23
ENDBRANCH   4  18
TORSDOF 9
ENDMDL
MODEL 9
REMARK VINA RESULT:      -5.8      3.645      7.268
REMARK  9 active torsions:
REMARK  status: ('A' for Active; 'I' for Inactive)
REMARK    1  A    between atoms: N_1  and  C_17 
REMARK    2  A    between atoms: O_4  and  C_12 
REMARK    3  A    between atoms: C_8  and  C_13 
REMARK    4  A    between atoms: C_13  and  C_17 
REMARK    5  A    between atoms: N_15  and  C_21 
REMARK       I    between atoms: N_15  and  C_16 
REMARK    6  A    between atoms: C_16  and  C_17 
REMARK    7  A    between atoms: C_20  and  C_26 
REMARK    8  A    between atoms: C_20  and  C_21 
REMARK    9  A    between atoms: C_21  and  C_22 
ROOT
HETATM    1  O           1     -20.220 -10.000  -5.725  0.00  0.00    -0.271 OA
HETATM    2  H           1     -19.080  -7.754  -3.854  0.00  0.00     0.163 HD
HETATM    3  N           1     -19.745  -8.226  -4.453  0.00  0.00    -0.344 N 
HETATM    4  C           1     -19.427  -9.436  -5.009  0.00  0.00     0.249 C 
ENDROOT
BRANCH   3   5
HETATM    5  C           1     -21.035  -7.621  -4.723  0.00  0.00     0.189 C 
BRANCH   5   6
HETATM    6  C           1     -21.605  -7.046  -3.433  0.00  0.00     0.074 C 
BRANCH   6   7
HETATM    7  C           1     -21.591  -8.099  -2.368  0.00  0.00    -0.056 A 
HETATM    8  C           1     -22.062  -9.381  -2.650  0.00  0.00     0.010 A 
HETATM    9  C           1     -22.048 -10.363  -1.659  0.00  0.00     0.037 A 
HETATM   10  C           1     -21.564 -10.061  -0.385  0.00  0.00     0.065 A 
HETATM   11  C           1     -21.093  -8.778  -0.104  0.00  0.00     0.037 A 
HETATM   12  C           1     -21.106  -7.797  -1.096  0.00  0.00     0.010 A 
BRANCH  10  13
HETATM   13  O           1     -21.551 -11.014   0.578  0.00  0.00    -0.361 OA
HETATM   14  H           1     -22.368 -11.533   0.498  0.00  0.00     0.217 HD
ENDBRANCH  10  13
ENDBRANCH   6   7
ENDBRANCH   5   6
BRANCH   5  15
HETATM   15  C           1     -20.870  -6.517  -5.737  0.00  0.00     0.197 C 
HETATM   16  O           1     -20.837  -6.789  -6.957  0.00  0.00    -0.646 OA
HETATM   17  O           1     -20.767  -5.330  -5.359  0.00  0.00    -0.646 OA
ENDBRANCH   5  15
ENDBRANCH   3   5
BRANCH   4  18
HETATM   18  C           1     -18.084 -10.065  -4.728  0.00  0.00     0.278 C 
BRANCH  18  19
HETATM   19  N           1     -17.114  -9.674  -5.803  0.00  0.00    -0.066 N 
HETATM   20  H           1     -16.802  -8.688  -5.649  0.00  0.00     0.275 HD
HETATM   21  H           1     -16.286 -10.310  -5.772  0.00  0.00     0.275 HD
HETATM   22  H           1     -17.579  -9.750  -6.736  0.00  0.00     0.275 HD
ENDBRANCH  18  19
BRANCH  18  23
HETATM   23  C           1     -17.568  -9.581  -3.379  0.00  0.00     0.021 C 
HETATM   24  C           1     -18.160 -10.442  -2.270  0.00  0.00     0.012 C 
BRANCH  23  25
HETATM   25  C           1     -16.049  -9.691  -3.349  0.00  0.00     0.002 C 
HETATM   26  C           1     -15.641 -10.868  -2.473  0.00  0.00     0.005 C 
ENDBRANCH  23  25
ENDBRANCH  18  23
ENDBRANCH   4  18
TORSDOF 9
ENDMDL
