MODEL 1
REMARK VINA RESULT:      -6.6      0.000      0.000
REMARK  11 active torsions:
REMARK  status: ('A' for Active; 'I' for Inactive)
REMARK    1  A    between atoms: N_6  and  C_26 
REMARK    2  A    between atoms: N_7  and  C_8 
REMARK    3  A    between atoms: C_8  and  C_17 
REMARK       I    between atoms: C_9  and  N_10 
REMARK    4  A    between atoms: C_9  and  C_15 
REMARK    5  A    between atoms: C_11  and  C_23 
REMARK    6  A    between atoms: C_13  and  C_26 
REMARK    7  A    between atoms: C_13  and  C_17 
REMARK    8  A    between atoms: C_15  and  C_27 
REMARK    9  A    between atoms: N_20  and  C_23 
REMARK       I    between atoms: N_20  and  C_25 
REMARK   10  A    between atoms: C_23  and  C_27 
REMARK   11  A    between atoms: C_25  and  C_26 
ROOT
HETATM    1  O           1     -26.285  -5.945 -17.214  0.00  0.00    -0.271 OA
HETATM    2  H           1     -27.632  -7.103 -19.800  0.00  0.00     0.163 HD
HETATM    3  N           1     -27.575  -6.694 -18.875  0.00  0.00    -0.345 N 
HETATM    4  C           1     -26.353  -6.434 -18.316  0.00  0.00     0.249 C 
ENDROOT
BRANCH   4   5
HETATM    5  C           1     -25.091  -6.758 -19.077  0.00  0.00     0.274 C 
BRANCH   5   6
HETATM    6  N           1     -24.181  -7.576 -18.209  0.00  0.00    -0.067 N 
HETATM    7  H           1     -23.329  -7.019 -17.975  0.00  0.00     0.275 HD
HETATM    8  H           1     -24.680  -7.834 -17.328  0.00  0.00     0.275 HD
HETATM    9  H           1     -23.900  -8.444 -18.719  0.00  0.00     0.275 HD
ENDBRANCH   5   6
BRANCH   5  10
HETATM   10  C           1     -25.441  -7.547 -20.331  0.00  0.00     0.044 C 
BRANCH  10  11
HETATM   11  C           1     -24.674  -6.979 -21.519  0.00  0.00     0.030 C 
BRANCH  11  12
HETATM   12  C           1     -23.909  -8.099 -22.211  0.00  0.00     0.230 C 
BRANCH  12  13
HETATM   13  N           1     -23.038  -8.802 -21.212  0.00  0.00    -0.079 N 
HETATM   14  H           1     -23.248  -8.441 -20.253  0.00  0.00     0.274 HD
HETATM   15  H           1     -23.226  -9.829 -21.246  0.00  0.00     0.274 HD
HETATM   16  H           1     -22.033  -8.624 -21.439  0.00  0.00     0.274 HD
ENDBRANCH  12  13
ENDBRANCH  11  12
ENDBRANCH  10  11
ENDBRANCH   5  10
ENDBRANCH   4   5
BRANCH   3  17
HETATM   17  C           1     -28.789  -6.382 -18.145  0.00  0.00     0.186 C 
BRANCH  17  18
HETATM   18  C           1     -29.798  -7.485 -18.355  0.00  0.00     0.196 C 
HETATM   19  O           1     -29.529  -8.442 -19.114  0.00  0.00    -0.646 OA
HETATM   20  O           1     -30.901  -7.441 -17.771  0.00  0.00    -0.646 OA
ENDBRANCH  17  18
BRANCH  17  21
HETATM   21  C           1     -29.361  -5.066 -18.653  0.00  0.00     0.045 C 
BRANCH  21  22
HETATM   22  C           1     -29.618  -4.135 -17.475  0.00  0.00     0.105 C 
BRANCH  22  23
HETATM   23  C           1     -31.104  -3.952 -17.291  0.00  0.00     0.215 C 
HETATM   24  O           1     -31.662  -3.004 -17.791  0.00  0.00    -0.274 OA
HETATM   25  N           1     -31.821  -4.859 -16.558  0.00  0.00    -0.370 N 
HETATM   26  H           1     -31.354  -5.653 -16.140  0.00  0.00     0.159 HD
HETATM   27  H           1     -32.818  -4.735 -16.435  0.00  0.00     0.159 HD
ENDBRANCH  22  23
ENDBRANCH  21  22
ENDBRANCH  17  21
ENDBRANCH   3  17
TORSDOF 11
ENDMDL
MODEL 2
REMARK VINA RESULT:      -6.3      2.132      2.679
REMARK  11 active torsions:
REMARK  status: ('A' for Active; 'I' for Inactive)
REMARK    1  A    between atoms: N_6  and  C_26 
REMARK    2  A    between atoms: N_7  and  C_8 
REMARK    3  A    between atoms: C_8  and  C_17 
REMARK       I    between atoms: C_9  and  N_10 
REMARK    4  A    between atoms: C_9  and  C_15 
REMARK    5  A    between atoms: C_11  and  C_23 
REMARK    6  A    between atoms: C_13  and  C_26 
REMARK    7  A    between atoms: C_13  and  C_17 
REMARK    8  A    between atoms: C_15  and  C_27 
REMARK    9  A    between atoms: N_20  and  C_23 
REMARK       I    between atoms: N_20  and  C_25 
REMARK   10  A    between atoms: C_23  and  C_27 
REMARK   11  A    between atoms: C_25  and  C_26 
ROOT
HETATM    1  O           1     -24.831  -6.414 -18.168  0.00  0.00    -0.271 OA
HETATM    2  H           1     -27.959  -6.606 -18.316  0.00  0.00     0.163 HD
HETATM    3  N           1     -27.049  -6.423 -17.911  0.00  0.00    -0.345 N 
HETATM    4  C           1     -25.916  -6.634 -18.650  0.00  0.00     0.249 C 
ENDROOT
BRANCH   4   5
HETATM    5  C           1     -26.023  -7.140 -20.067  0.00  0.00     0.274 C 
BRANCH   5   6
HETATM    6  N           1     -26.337  -5.995 -20.984  0.00  0.00    -0.067 N 
HETATM    7  H           1     -25.991  -5.105 -20.561  0.00  0.00     0.275 HD
HETATM    8  H           1     -25.867  -6.147 -21.905  0.00  0.00     0.275 HD
HETATM    9  H           1     -27.371  -5.935 -21.125  0.00  0.00     0.275 HD
ENDBRANCH   5   6
BRANCH   5  10
HETATM   10  C           1     -24.702  -7.774 -20.482  0.00  0.00     0.044 C 
BRANCH  10  11
HETATM   11  C           1     -24.507  -7.607 -21.984  0.00  0.00     0.030 C 
BRANCH  11  12
HETATM   12  C           1     -23.220  -8.301 -22.410  0.00  0.00     0.230 C 
BRANCH  12  13
HETATM   13  N           1     -22.671  -9.088 -21.256  0.00  0.00    -0.079 N 
HETATM   14  H           1     -21.724  -8.721 -21.004  0.00  0.00     0.274 HD
HETATM   15  H           1     -23.309  -8.995 -20.435  0.00  0.00     0.274 HD
HETATM   16  H           1     -22.594 -10.094 -21.526  0.00  0.00     0.274 HD
ENDBRANCH  12  13
ENDBRANCH  11  12
ENDBRANCH  10  11
ENDBRANCH   5  10
ENDBRANCH   4   5
BRANCH   3  17
HETATM   17  C           1     -26.946  -5.935 -16.549  0.00  0.00     0.186 C 
BRANCH  17  18
HETATM   18  C           1     -26.756  -7.102 -15.612  0.00  0.00     0.196 C 
HETATM   19  O           1     -27.750  -7.662 -15.101  0.00  0.00    -0.646 OA
HETATM   20  O           1     -25.605  -7.508 -15.346  0.00  0.00    -0.646 OA
ENDBRANCH  17  18
BRANCH  17  21
HETATM   21  C           1     -28.222  -5.190 -16.180  0.00  0.00     0.045 C 
BRANCH  21  22
HETATM   22  C           1     -28.269  -3.862 -16.925  0.00  0.00     0.105 C 
BRANCH  22  23
HETATM   23  C           1     -29.416  -3.874 -17.905  0.00  0.00     0.215 C 
HETATM   24  O           1     -29.432  -4.677 -18.807  0.00  0.00    -0.274 OA
HETATM   25  N           1     -30.440  -2.975 -17.773  0.00  0.00    -0.370 N 
HETATM   26  H           1     -30.427  -2.302 -17.017  0.00  0.00     0.159 HD
HETATM   27  H           1     -31.209  -2.983 -18.430  0.00  0.00     0.159 HD
ENDBRANCH  22  23
ENDBRANCH  21  22
ENDBRANCH  17  21
ENDBRANCH   3  17
TORSDOF 11
ENDMDL
MODEL 3
REMARK VINA RESULT:      -6.2      2.094      3.042
REMARK  11 active torsions:
REMARK  status: ('A' for Active; 'I' for Inactive)
REMARK    1  A    between atoms: N_6  and  C_26 
REMARK    2  A    between atoms: N_7  and  C_8 
REMARK    3  A    between atoms: C_8  and  C_17 
REMARK       I    between atoms: C_9  and  N_10 
REMARK    4  A    between atoms: C_9  and  C_15 
REMARK    5  A    between atoms: C_11  and  C_23 
REMARK    6  A    between atoms: C_13  and  C_26 
REMARK    7  A    between atoms: C_13  and  C_17 
REMARK    8  A    between atoms: C_15  and  C_27 
REMARK    9  A    between atoms: N_20  and  C_23 
REMARK       I    between atoms: N_20  and  C_25 
REMARK   10  A    between atoms: C_23  and  C_27 
REMARK   11  A    between atoms: C_25  and  C_26 
ROOT
HETATM    1  O           1     -27.296  -6.262 -20.013  0.00  0.00    -0.271 OA
HETATM    2  H           1     -26.025  -6.341 -17.146  0.00  0.00     0.163 HD
HETATM    3  N           1     -26.741  -6.216 -17.851  0.00  0.00    -0.345 N 
HETATM    4  C           1     -26.442  -6.409 -19.173  0.00  0.00     0.249 C 
ENDROOT
BRANCH   4   5
HETATM    5  C           1     -25.044  -6.808 -19.579  0.00  0.00     0.274 C 
BRANCH   5   6
HETATM    6  N           1     -24.347  -7.442 -18.412  0.00  0.00    -0.067 N 
HETATM    7  H           1     -24.478  -8.478 -18.448  0.00  0.00     0.275 HD
HETATM    8  H           1     -23.326  -7.221 -18.455  0.00  0.00     0.275 HD
HETATM    9  H           1     -24.748  -7.070 -17.522  0.00  0.00     0.275 HD
ENDBRANCH   5   6
BRANCH   5  10
HETATM   10  C           1     -25.113  -7.803 -20.730  0.00  0.00     0.044 C 
BRANCH  10  11
HETATM   11  C           1     -24.328  -7.261 -21.918  0.00  0.00     0.030 C 
BRANCH  11  12
HETATM   12  C           1     -23.336  -8.314 -22.393  0.00  0.00     0.230 C 
BRANCH  12  13
HETATM   13  N           1     -22.701  -8.976 -21.206  0.00  0.00    -0.079 N 
HETATM   14  H           1     -22.202  -8.258 -20.633  0.00  0.00     0.274 HD
HETATM   15  H           1     -23.440  -9.432 -20.624  0.00  0.00     0.274 HD
HETATM   16  H           1     -22.019  -9.697 -21.531  0.00  0.00     0.274 HD
ENDBRANCH  12  13
ENDBRANCH  11  12
ENDBRANCH  10  11
ENDBRANCH   5  10
ENDBRANCH   4   5
BRANCH   3  17
HETATM   17  C           1     -28.085  -5.834 -17.460  0.00  0.00     0.186 C 
BRANCH  17  18
HETATM   18  C           1     -28.015  -4.685 -16.484  0.00  0.00     0.196 C 
HETATM   19  O           1     -27.934  -3.511 -16.905  0.00  0.00    -0.646 OA
HETATM   20  O           1     -28.038  -4.908 -15.255  0.00  0.00    -0.646 OA
ENDBRANCH  17  18
BRANCH  17  21
HETATM   21  C           1     -28.777  -7.020 -16.801  0.00  0.00     0.045 C 
BRANCH  21  22
HETATM   22  C           1     -30.238  -7.058 -17.229  0.00  0.00     0.105 C 
BRANCH  22  23
HETATM   23  C           1     -30.366  -7.838 -18.515  0.00  0.00     0.215 C 
HETATM   24  O           1     -31.411  -7.835 -19.120  0.00  0.00    -0.274 OA
HETATM   25  N           1     -29.299  -8.548 -18.995  0.00  0.00    -0.370 N 
HETATM   26  H           1     -28.423  -8.550 -18.487  0.00  0.00     0.159 HD
HETATM   27  H           1     -29.385  -9.071 -19.856  0.00  0.00     0.159 HD
ENDBRANCH  22  23
ENDBRANCH  21  22
ENDBRANCH  17  21
ENDBRANCH   3  17
TORSDOF 11
ENDMDL
MODEL 4
REMARK VINA RESULT:      -6.0      1.429      1.757
REMARK  11 active torsions:
REMARK  status: ('A' for Active; 'I' for Inactive)
REMARK    1  A    between atoms: N_6  and  C_26 
REMARK    2  A    between atoms: N_7  and  C_8 
REMARK    3  A    between atoms: C_8  and  C_17 
REMARK       I    between atoms: C_9  and  N_10 
REMARK    4  A    between atoms: C_9  and  C_15 
REMARK    5  A    between atoms: C_11  and  C_23 
REMARK    6  A    between atoms: C_13  and  C_26 
REMARK    7  A    between atoms: C_13  and  C_17 
REMARK    8  A    between atoms: C_15  and  C_27 
REMARK    9  A    between atoms: N_20  and  C_23 
REMARK       I    between atoms: N_20  and  C_25 
REMARK   10  A    between atoms: C_23  and  C_27 
REMARK   11  A    between atoms: C_25  and  C_26 
ROOT
HETATM    1  O           1     -26.431  -7.412 -15.365  0.00  0.00    -0.271 OA
HETATM    2  H           1     -27.364  -6.136 -18.075  0.00  0.00     0.163 HD
HETATM    3  N           1     -27.450  -6.552 -17.157  0.00  0.00    -0.345 N 
HETATM    4  C           1     -26.328  -6.916 -16.462  0.00  0.00     0.249 C 
ENDROOT
BRANCH   4   5
HETATM    5  C           1     -24.963  -6.698 -17.066  0.00  0.00     0.274 C 
BRANCH   5   6
HETATM    6  N           1     -24.111  -7.909 -16.826  0.00  0.00    -0.067 N 
HETATM    7  H           1     -23.366  -7.961 -17.556  0.00  0.00     0.275 HD
HETATM    8  H           1     -23.667  -7.841 -15.882  0.00  0.00     0.275 HD
HETATM    9  H           1     -24.705  -8.767 -16.873  0.00  0.00     0.275 HD
ENDBRANCH   5   6
BRANCH   5  10
HETATM   10  C           1     -25.100  -6.463 -18.564  0.00  0.00     0.044 C 
BRANCH  10  11
HETATM   11  C           1     -24.262  -7.488 -19.318  0.00  0.00     0.030 C 
BRANCH  11  12
HETATM   12  C           1     -24.890  -7.756 -20.679  0.00  0.00     0.230 C 
BRANCH  12  13
HETATM   13  N           1     -26.380  -7.858 -20.531  0.00  0.00    -0.079 N 
HETATM   14  H           1     -26.631  -8.816 -20.193  0.00  0.00     0.274 HD
HETATM   15  H           1     -26.712  -7.148 -19.841  0.00  0.00     0.274 HD
HETATM   16  H           1     -26.835  -7.685 -21.456  0.00  0.00     0.274 HD
ENDBRANCH  12  13
ENDBRANCH  11  12
ENDBRANCH  10  11
ENDBRANCH   5  10
ENDBRANCH   4   5
BRANCH   3  17
HETATM   17  C           1     -28.762  -6.761 -16.576  0.00  0.00     0.186 C 
BRANCH  17  18
HETATM   18  C           1     -29.700  -7.290 -17.634  0.00  0.00     0.196 C 
HETATM   19  O           1     -29.251  -7.649 -18.744  0.00  0.00    -0.646 OA
HETATM   20  O           1     -30.925  -7.370 -17.400  0.00  0.00    -0.646 OA
ENDBRANCH  17  18
BRANCH  17  21
HETATM   21  C           1     -29.296  -5.439 -16.040  0.00  0.00     0.045 C 
BRANCH  21  22
HETATM   22  C           1     -29.575  -4.495 -17.202  0.00  0.00     0.105 C 
BRANCH  22  23
HETATM   23  C           1     -30.996  -3.995 -17.114  0.00  0.00     0.215 C 
HETATM   24  O           1     -31.327  -3.010 -17.730  0.00  0.00    -0.274 OA
HETATM   25  N           1     -31.909  -4.656 -16.338  0.00  0.00    -0.370 N 
HETATM   26  H           1     -31.631  -5.481 -15.823  0.00  0.00     0.159 HD
HETATM   27  H           1     -32.861  -4.320 -16.280  0.00  0.00     0.159 HD
ENDBRANCH  22  23
ENDBRANCH  21  22
ENDBRANCH  17  21
ENDBRANCH   3  17
TORSDOF 11
ENDMDL
MODEL 5
REMARK VINA RESULT:      -6.0      2.295      6.146
REMARK  11 active torsions:
REMARK  status: ('A' for Active; 'I' for Inactive)
REMARK    1  A    between atoms: N_6  and  C_26 
REMARK    2  A    between atoms: N_7  and  C_8 
REMARK    3  A    between atoms: C_8  and  C_17 
REMARK       I    between atoms: C_9  and  N_10 
REMARK    4  A    between atoms: C_9  and  C_15 
REMARK    5  A    between atoms: C_11  and  C_23 
REMARK    6  A    between atoms: C_13  and  C_26 
REMARK    7  A    between atoms: C_13  and  C_17 
REMARK    8  A    between atoms: C_15  and  C_27 
REMARK    9  A    between atoms: N_20  and  C_23 
REMARK       I    between atoms: N_20  and  C_25 
REMARK   10  A    between atoms: C_23  and  C_27 
REMARK   11  A    between atoms: C_25  and  C_26 
ROOT
HETATM    1  O           1     -28.440  -5.079 -19.254  0.00  0.00    -0.271 OA
HETATM    2  H           1     -27.819  -8.127 -18.845  0.00  0.00     0.163 HD
HETATM    3  N           1     -27.685  -7.179 -19.175  0.00  0.00    -0.345 N 
HETATM    4  C           1     -28.600  -6.210 -18.861  0.00  0.00     0.249 C 
ENDROOT
BRANCH   4   5
HETATM    5  C           1     -29.808  -6.555 -18.025  0.00  0.00     0.274 C 
BRANCH   5   6
HETATM    6  N           1     -29.630  -7.921 -17.431  0.00  0.00    -0.067 N 
HETATM    7  H           1     -30.567  -8.335 -17.223  0.00  0.00     0.275 HD
HETATM    8  H           1     -29.124  -8.533 -18.110  0.00  0.00     0.275 HD
HETATM    9  H           1     -29.079  -7.847 -16.547  0.00  0.00     0.275 HD
ENDBRANCH   5   6
BRANCH   5  10
HETATM   10  C           1     -29.961  -5.532 -16.907  0.00  0.00     0.044 C 
BRANCH  10  11
HETATM   11  C           1     -31.378  -4.971 -16.922  0.00  0.00     0.030 C 
BRANCH  11  12
HETATM   12  C           1     -31.387  -3.635 -17.653  0.00  0.00     0.230 C 
BRANCH  12  13
HETATM   13  N           1     -30.007  -3.048 -17.641  0.00  0.00    -0.079 N 
HETATM   14  H           1     -29.949  -2.311 -16.901  0.00  0.00     0.274 HD
HETATM   15  H           1     -29.309  -3.799 -17.438  0.00  0.00     0.274 HD
HETATM   16  H           1     -29.800  -2.622 -18.572  0.00  0.00     0.274 HD
ENDBRANCH  12  13
ENDBRANCH  11  12
ENDBRANCH  10  11
ENDBRANCH   5  10
ENDBRANCH   4   5
BRANCH   3  17
HETATM   17  C           1     -26.523  -6.848 -19.977  0.00  0.00     0.186 C 
BRANCH  17  18
HETATM   18  C           1     -26.323  -7.910 -21.031  0.00  0.00     0.196 C 
HETATM   19  O           1     -25.184  -8.113 -21.505  0.00  0.00    -0.646 OA
HETATM   20  O           1     -27.296  -8.585 -21.430  0.00  0.00    -0.646 OA
ENDBRANCH  17  18
BRANCH  17  21
HETATM   21  C           1     -25.292  -6.781 -19.083  0.00  0.00     0.045 C 
BRANCH  21  22
HETATM   22  C           1     -25.718  -6.473 -17.654  0.00  0.00     0.105 C 
BRANCH  22  23
HETATM   23  C           1     -24.822  -7.212 -16.691  0.00  0.00     0.215 C 
HETATM   24  O           1     -25.181  -7.396 -15.552  0.00  0.00    -0.274 OA
HETATM   25  N           1     -23.601  -7.673 -17.106  0.00  0.00    -0.370 N 
HETATM   26  H           1     -23.300  -7.518 -18.060  0.00  0.00     0.159 HD
HETATM   27  H           1     -23.001  -8.168 -16.460  0.00  0.00     0.159 HD
ENDBRANCH  22  23
ENDBRANCH  21  22
ENDBRANCH  17  21
ENDBRANCH   3  17
TORSDOF 11
ENDMDL
MODEL 6
REMARK VINA RESULT:      -5.7      2.302      6.769
REMARK  11 active torsions:
REMARK  status: ('A' for Active; 'I' for Inactive)
REMARK    1  A    between atoms: N_6  and  C_26 
REMARK    2  A    between atoms: N_7  and  C_8 
REMARK    3  A    between atoms: C_8  and  C_17 
REMARK       I    between atoms: C_9  and  N_10 
REMARK    4  A    between atoms: C_9  and  C_15 
REMARK    5  A    between atoms: C_11  and  C_23 
REMARK    6  A    between atoms: C_13  and  C_26 
REMARK    7  A    between atoms: C_13  and  C_17 
REMARK    8  A    between atoms: C_15  and  C_27 
REMARK    9  A    between atoms: N_20  and  C_23 
REMARK       I    between atoms: N_20  and  C_25 
REMARK   10  A    between atoms: C_23  and  C_27 
REMARK   11  A    between atoms: C_25  and  C_26 
ROOT
HETATM    1  O           1     -28.270  -7.035 -16.312  0.00  0.00    -0.271 OA
HETATM    2  H           1     -26.700  -4.892 -17.981  0.00  0.00     0.163 HD
HETATM    3  N           1     -26.892  -5.788 -17.549  0.00  0.00    -0.345 N 
HETATM    4  C           1     -28.041  -5.967 -16.827  0.00  0.00     0.249 C 
ENDROOT
BRANCH   4   5
HETATM    5  C           1     -29.022  -4.830 -16.675  0.00  0.00     0.274 C 
BRANCH   5   6
HETATM    6  N           1     -28.304  -3.525 -16.847  0.00  0.00    -0.067 N 
HETATM    7  H           1     -27.273  -3.682 -16.776  0.00  0.00     0.275 HD
HETATM    8  H           1     -28.530  -3.124 -17.785  0.00  0.00     0.275 HD
HETATM    9  H           1     -28.606  -2.860 -16.100  0.00  0.00     0.275 HD
ENDBRANCH   5   6
BRANCH   5  10
HETATM   10  C           1     -30.111  -4.953 -17.733  0.00  0.00     0.044 C 
BRANCH  10  11
HETATM   11  C           1     -31.083  -3.788 -17.599  0.00  0.00     0.030 C 
BRANCH  11  12
HETATM   12  C           1     -32.361  -4.268 -16.924  0.00  0.00     0.230 C 
BRANCH  12  13
HETATM   13  N           1     -33.476  -3.311 -17.226  0.00  0.00    -0.079 N 
HETATM   14  H           1     -34.371  -3.842 -17.332  0.00  0.00     0.274 HD
HETATM   15  H           1     -33.570  -2.626 -16.442  0.00  0.00     0.274 HD
HETATM   16  H           1     -33.267  -2.800 -18.112  0.00  0.00     0.274 HD
ENDBRANCH  12  13
ENDBRANCH  11  12
ENDBRANCH  10  11
ENDBRANCH   5  10
ENDBRANCH   4   5
BRANCH   3  17
HETATM   17  C           1     -25.949  -6.880 -17.696  0.00  0.00     0.186 C 
BRANCH  17  18
HETATM   18  C           1     -25.019  -6.903 -16.508  0.00  0.00     0.196 C 
HETATM   19  O           1     -24.423  -7.958 -16.201  0.00  0.00    -0.646 OA
HETATM   20  O           1     -24.843  -5.867 -15.832  0.00  0.00    -0.646 OA
ENDBRANCH  17  18
BRANCH  17  21
HETATM   21  C           1     -25.141  -6.684 -18.971  0.00  0.00     0.045 C 
BRANCH  21  22
HETATM   22  C           1     -26.066  -6.769 -20.178  0.00  0.00     0.105 C 
BRANCH  22  23
HETATM   23  C           1     -25.713  -7.984 -21.000  0.00  0.00     0.215 C 
HETATM   24  O           1     -26.588  -8.676 -21.461  0.00  0.00    -0.274 OA
HETATM   25  N           1     -24.400  -8.302 -21.223  0.00  0.00    -0.370 N 
HETATM   26  H           1     -23.666  -7.722 -20.836  0.00  0.00     0.159 HD
HETATM   27  H           1     -24.163  -9.117 -21.774  0.00  0.00     0.159 HD
ENDBRANCH  22  23
ENDBRANCH  21  22
ENDBRANCH  17  21
ENDBRANCH   3  17
TORSDOF 11
ENDMDL
MODEL 7
REMARK VINA RESULT:      -5.7     13.792     15.379
REMARK  11 active torsions:
REMARK  status: ('A' for Active; 'I' for Inactive)
REMARK    1  A    between atoms: N_6  and  C_26 
REMARK    2  A    between atoms: N_7  and  C_8 
REMARK    3  A    between atoms: C_8  and  C_17 
REMARK       I    between atoms: C_9  and  N_10 
REMARK    4  A    between atoms: C_9  and  C_15 
REMARK    5  A    between atoms: C_11  and  C_23 
REMARK    6  A    between atoms: C_13  and  C_26 
REMARK    7  A    between atoms: C_13  and  C_17 
REMARK    8  A    between atoms: C_15  and  C_27 
REMARK    9  A    between atoms: N_20  and  C_23 
REMARK       I    between atoms: N_20  and  C_25 
REMARK   10  A    between atoms: C_23  and  C_27 
REMARK   11  A    between atoms: C_25  and  C_26 
ROOT
HETATM    1  O           1     -19.708  -4.551  -5.678  0.00  0.00    -0.271 OA
HETATM    2  H           1     -22.538  -5.838  -6.103  0.00  0.00     0.163 HD
HETATM    3  N           1     -21.631  -5.686  -5.678  0.00  0.00    -0.345 N 
HETATM    4  C           1     -20.789  -4.734  -6.186  0.00  0.00     0.249 C 
ENDROOT
BRANCH   4   5
HETATM    5  C           1     -21.210  -3.912  -7.379  0.00  0.00     0.274 C 
BRANCH   5   6
HETATM    6  N           1     -20.229  -4.114  -8.496  0.00  0.00    -0.067 N 
HETATM    7  H           1     -19.256  -4.065  -8.118  0.00  0.00     0.275 HD
HETATM    8  H           1     -20.385  -5.051  -8.931  0.00  0.00     0.275 HD
HETATM    9  H           1     -20.361  -3.367  -9.215  0.00  0.00     0.275 HD
ENDBRANCH   5   6
BRANCH   5  10
HETATM   10  C           1     -22.595  -4.352  -7.836  0.00  0.00     0.044 C 
BRANCH  10  11
HETATM   11  C           1     -22.907  -3.724  -9.189  0.00  0.00     0.030 C 
BRANCH  11  12
HETATM   12  C           1     -24.103  -4.430  -9.813  0.00  0.00     0.230 C 
BRANCH  12  13
HETATM   13  N           1     -25.330  -3.584  -9.640  0.00  0.00    -0.079 N 
HETATM   14  H           1     -25.203  -2.951  -8.817  0.00  0.00     0.274 HD
HETATM   15  H           1     -25.483  -3.010 -10.500  0.00  0.00     0.274 HD
HETATM   16  H           1     -26.159  -4.200  -9.480  0.00  0.00     0.274 HD
ENDBRANCH  12  13
ENDBRANCH  11  12
ENDBRANCH  10  11
ENDBRANCH   5  10
ENDBRANCH   4   5
BRANCH   3  17
HETATM   17  C           1     -21.228  -6.475  -4.530  0.00  0.00     0.186 C 
BRANCH  17  18
HETATM   18  C           1     -20.915  -7.883  -4.975  0.00  0.00     0.196 C 
HETATM   19  O           1     -20.398  -8.691  -4.173  0.00  0.00    -0.646 OA
HETATM   20  O           1     -21.174  -8.241  -6.143  0.00  0.00    -0.646 OA
ENDBRANCH  17  18
BRANCH  17  21
HETATM   21  C           1     -22.359  -6.503  -3.511  0.00  0.00     0.045 C 
BRANCH  21  22
HETATM   22  C           1     -21.828  -6.069  -2.151  0.00  0.00     0.105 C 
BRANCH  22  23
HETATM   23  C           1     -22.005  -7.192  -1.159  0.00  0.00     0.215 C 
HETATM   24  O           1     -22.950  -7.189  -0.406  0.00  0.00    -0.274 OA
HETATM   25  N           1     -21.097  -8.215  -1.112  0.00  0.00    -0.370 N 
HETATM   26  H           1     -20.306  -8.218  -1.743  0.00  0.00     0.159 HD
HETATM   27  H           1     -21.216  -8.968  -0.447  0.00  0.00     0.159 HD
ENDBRANCH  22  23
ENDBRANCH  21  22
ENDBRANCH  17  21
ENDBRANCH   3  17
TORSDOF 11
ENDMDL
MODEL 8
REMARK VINA RESULT:      -5.6      2.162      6.486
REMARK  11 active torsions:
REMARK  status: ('A' for Active; 'I' for Inactive)
REMARK    1  A    between atoms: N_6  and  C_26 
REMARK    2  A    between atoms: N_7  and  C_8 
REMARK    3  A    between atoms: C_8  and  C_17 
REMARK       I    between atoms: C_9  and  N_10 
REMARK    4  A    between atoms: C_9  and  C_15 
REMARK    5  A    between atoms: C_11  and  C_23 
REMARK    6  A    between atoms: C_13  and  C_26 
REMARK    7  A    between atoms: C_13  and  C_17 
REMARK    8  A    between atoms: C_15  and  C_27 
REMARK    9  A    between atoms: N_20  and  C_23 
REMARK       I    between atoms: N_20  and  C_25 
REMARK   10  A    between atoms: C_23  and  C_27 
REMARK   11  A    between atoms: C_25  and  C_26 
ROOT
HETATM    1  O           1     -28.740  -5.129 -19.108  0.00  0.00    -0.271 OA
HETATM    2  H           1     -26.846  -7.505 -18.324  0.00  0.00     0.163 HD
HETATM    3  N           1     -27.307  -6.832 -18.924  0.00  0.00    -0.345 N 
HETATM    4  C           1     -28.192  -5.933 -18.392  0.00  0.00     0.249 C 
ENDROOT
BRANCH   4   5
HETATM    5  C           1     -28.482  -5.947 -16.911  0.00  0.00     0.274 C 
BRANCH   5   6
HETATM    6  N           1     -27.191  -5.972 -16.149  0.00  0.00    -0.067 N 
HETATM    7  H           1     -26.413  -6.251 -16.789  0.00  0.00     0.275 HD
HETATM    8  H           1     -26.996  -5.020 -15.763  0.00  0.00     0.275 HD
HETATM    9  H           1     -27.261  -6.660 -15.366  0.00  0.00     0.275 HD
ENDBRANCH   5   6
BRANCH   5  10
HETATM   10  C           1     -29.269  -4.697 -16.536  0.00  0.00     0.044 C 
BRANCH  10  11
HETATM   11  C           1     -30.736  -5.059 -16.342  0.00  0.00     0.030 C 
BRANCH  11  12
HETATM   12  C           1     -31.603  -4.130 -17.181  0.00  0.00     0.230 C 
BRANCH  12  13
HETATM   13  N           1     -30.771  -2.987 -17.684  0.00  0.00    -0.079 N 
HETATM   14  H           1     -31.300  -2.471 -18.424  0.00  0.00     0.274 HD
HETATM   15  H           1     -30.556  -2.338 -16.894  0.00  0.00     0.274 HD
HETATM   16  H           1     -29.880  -3.355 -18.085  0.00  0.00     0.274 HD
ENDBRANCH  12  13
ENDBRANCH  11  12
ENDBRANCH  10  11
ENDBRANCH   5  10
ENDBRANCH   4   5
BRANCH   3  17
HETATM   17  C           1     -27.026  -6.818 -20.347  0.00  0.00     0.186 C 
BRANCH  17  18
HETATM   18  C           1     -27.334  -8.175 -20.931  0.00  0.00     0.196 C 
HETATM   19  O           1     -28.419  -8.738 -20.666  0.00  0.00    -0.646 OA
HETATM   20  O           1     -26.505  -8.736 -21.679  0.00  0.00    -0.646 OA
ENDBRANCH  17  18
BRANCH  17  21
HETATM   21  C           1     -25.556  -6.491 -20.570  0.00  0.00     0.045 C 
BRANCH  21  22
HETATM   22  C           1     -24.751  -6.902 -19.344  0.00  0.00     0.105 C 
BRANCH  22  23
HETATM   23  C           1     -23.497  -7.617 -19.780  0.00  0.00     0.215 C 
HETATM   24  O           1     -22.443  -7.370 -19.243  0.00  0.00    -0.274 OA
HETATM   25  N           1     -23.552  -8.546 -20.784  0.00  0.00    -0.370 N 
HETATM   26  H           1     -24.434  -8.753 -21.234  0.00  0.00     0.159 HD
HETATM   27  H           1     -22.710  -9.026 -21.077  0.00  0.00     0.159 HD
ENDBRANCH  22  23
ENDBRANCH  21  22
ENDBRANCH  17  21
ENDBRANCH   3  17
TORSDOF 11
ENDMDL
MODEL 9
REMARK VINA RESULT:      -5.5      2.360      6.230
REMARK  11 active torsions:
REMARK  status: ('A' for Active; 'I' for Inactive)
REMARK    1  A    between atoms: N_6  and  C_26 
REMARK    2  A    between atoms: N_7  and  C_8 
REMARK    3  A    between atoms: C_8  and  C_17 
REMARK       I    between atoms: C_9  and  N_10 
REMARK    4  A    between atoms: C_9  and  C_15 
REMARK    5  A    between atoms: C_11  and  C_23 
REMARK    6  A    between atoms: C_13  and  C_26 
REMARK    7  A    between atoms: C_13  and  C_17 
REMARK    8  A    between atoms: C_15  and  C_27 
REMARK    9  A    between atoms: N_20  and  C_23 
REMARK       I    between atoms: N_20  and  C_25 
REMARK   10  A    between atoms: C_23  and  C_27 
REMARK   11  A    between atoms: C_25  and  C_26 
ROOT
HETATM    1  O           1     -28.999  -7.889 -17.032  0.00  0.00    -0.271 OA
HETATM    2  H           1     -27.629  -5.279 -18.107  0.00  0.00     0.163 HD
HETATM    3  N           1     -27.695  -6.227 -17.756  0.00  0.00    -0.345 N 
HETATM    4  C           1     -28.919  -6.758 -17.449  0.00  0.00     0.249 C 
ENDROOT
BRANCH   4   5
HETATM    5  C           1     -30.169  -5.932 -17.634  0.00  0.00     0.274 C 
BRANCH   5   6
HETATM    6  N           1     -30.761  -5.616 -16.293  0.00  0.00    -0.067 N 
HETATM    7  H           1     -31.726  -5.236 -16.419  0.00  0.00     0.275 HD
HETATM    8  H           1     -30.803  -6.486 -15.717  0.00  0.00     0.275 HD
HETATM    9  H           1     -30.168  -4.904 -15.809  0.00  0.00     0.275 HD
ENDBRANCH   5   6
BRANCH   5  10
HETATM   10  C           1     -29.820  -4.636 -18.353  0.00  0.00     0.044 C 
BRANCH  10  11
HETATM   11  C           1     -30.211  -3.450 -17.481  0.00  0.00     0.030 C 
BRANCH  11  12
HETATM   12  C           1     -28.977  -2.608 -17.184  0.00  0.00     0.230 C 
BRANCH  12  13
HETATM   13  N           1     -29.319  -1.154 -17.314  0.00  0.00    -0.079 N 
HETATM   14  H           1     -30.313  -1.057 -17.625  0.00  0.00     0.274 HD
HETATM   15  H           1     -29.196  -0.682 -16.390  0.00  0.00     0.274 HD
HETATM   16  H           1     -28.689  -0.709 -18.019  0.00  0.00     0.274 HD
ENDBRANCH  12  13
ENDBRANCH  11  12
ENDBRANCH  10  11
ENDBRANCH   5  10
ENDBRANCH   4   5
BRANCH   3  17
HETATM   17  C           1     -26.495  -7.020 -17.580  0.00  0.00     0.186 C 
BRANCH  17  18
HETATM   18  C           1     -25.857  -6.677 -16.256  0.00  0.00     0.196 C 
HETATM   19  O           1     -25.326  -5.557 -16.089  0.00  0.00    -0.646 OA
HETATM   20  O           1     -25.859  -7.512 -15.326  0.00  0.00    -0.646 OA
ENDBRANCH  17  18
BRANCH  17  21
HETATM   21  C           1     -25.518  -6.719 -18.708  0.00  0.00     0.045 C 
BRANCH  21  22
HETATM   22  C           1     -26.287  -6.519 -20.007  0.00  0.00     0.105 C 
BRANCH  22  23
HETATM   23  C           1     -26.330  -7.818 -20.773  0.00  0.00     0.215 C 
HETATM   24  O           1     -25.342  -8.214 -21.344  0.00  0.00    -0.274 OA
HETATM   25  N           1     -27.487  -8.548 -20.821  0.00  0.00    -0.370 N 
HETATM   26  H           1     -28.314  -8.216 -20.342  0.00  0.00     0.159 HD
HETATM   27  H           1     -27.515  -9.419 -21.334  0.00  0.00     0.159 HD
ENDBRANCH  22  23
ENDBRANCH  21  22
ENDBRANCH  17  21
ENDBRANCH   3  17
TORSDOF 11
ENDMDL
