MODEL 1
REMARK VINA RESULT:      -7.8      0.000      0.000
REMARK  7 active torsions:
REMARK  status: ('A' for Active; 'I' for Inactive)
REMARK    1  A    between atoms: C_2  and  C_12 
REMARK    2  A    between atoms: C_4  and  C_16 
REMARK    3  A    between atoms: C_4  and  N_21 
REMARK    4  A    between atoms: O_5  and  C_6 
REMARK    5  A    between atoms: C_10  and  C_11 
REMARK    6  A    between atoms: C_11  and  C_12 
REMARK    7  A    between atoms: C_11  and  N_17 
REMARK       I    between atoms: C_16  and  N_17 
ROOT
HETATM    1  C           1     -35.784  -1.197 -12.202  0.00  0.00     0.189 C 
ENDROOT
BRANCH   1   2
HETATM    2  C           1     -36.678  -0.502 -11.204  0.00  0.00     0.197 C 
HETATM    3  O           1     -37.808  -0.970 -10.945  0.00  0.00    -0.646 OA
HETATM    4  O           1     -36.290   0.542 -10.636  0.00  0.00    -0.646 OA
ENDBRANCH   1   2
BRANCH   1   5
HETATM    5  C           1     -34.423  -1.457 -11.569  0.00  0.00     0.074 C 
BRANCH   5   6
HETATM    6  C           1     -34.232  -2.930 -11.384  0.00  0.00    -0.056 A 
HETATM    7  C           1     -33.008  -3.520 -11.701  0.00  0.00     0.010 A 
HETATM    8  C           1     -32.831  -4.893 -11.529  0.00  0.00     0.037 A 
HETATM    9  C           1     -33.878  -5.676 -11.041  0.00  0.00     0.065 A 
HETATM   10  C           1     -35.102  -5.086 -10.726  0.00  0.00     0.037 A 
HETATM   11  C           1     -35.279  -3.712 -10.898  0.00  0.00     0.010 A 
BRANCH   9  12
HETATM   12  O           1     -33.706  -7.009 -10.875  0.00  0.00    -0.361 OA
HETATM   13  H           1     -34.531  -7.453 -11.134  0.00  0.00     0.217 HD
ENDBRANCH   9  12
ENDBRANCH   5   6
ENDBRANCH   1   5
BRANCH   1  14
HETATM   14  N           1     -35.620  -0.354 -13.371  0.00  0.00    -0.344 N 
HETATM   15  H           1     -34.773   0.186 -13.490  0.00  0.00     0.163 HD
HETATM   16  C           1     -36.611  -0.290 -14.313  0.00  0.00     0.248 C 
HETATM   17  O           1     -37.622  -0.936 -14.170  0.00  0.00    -0.271 OA
BRANCH  16  18
HETATM   18  C           1     -36.440   0.586 -15.529  0.00  0.00     0.270 C 
HETATM   19  C           1     -35.405   1.665 -15.238  0.00  0.00     0.050 C 
BRANCH  18  20
HETATM   20  N           1     -37.751   1.231 -15.868  0.00  0.00    -0.067 N 
HETATM   21  H           1     -38.059   1.832 -15.071  0.00  0.00     0.275 HD
HETATM   22  H           1     -37.638   1.819 -16.725  0.00  0.00     0.275 HD
HETATM   23  H           1     -38.468   0.492 -16.044  0.00  0.00     0.275 HD
ENDBRANCH  18  20
ENDBRANCH  16  18
ENDBRANCH   1  14
TORSDOF 7
ENDMDL
MODEL 2
REMARK VINA RESULT:      -7.2      9.444     11.652
REMARK  7 active torsions:
REMARK  status: ('A' for Active; 'I' for Inactive)
REMARK    1  A    between atoms: C_2  and  C_12 
REMARK    2  A    between atoms: C_4  and  C_16 
REMARK    3  A    between atoms: C_4  and  N_21 
REMARK    4  A    between atoms: O_5  and  C_6 
REMARK    5  A    between atoms: C_10  and  C_11 
REMARK    6  A    between atoms: C_11  and  C_12 
REMARK    7  A    between atoms: C_11  and  N_17 
REMARK       I    between atoms: C_16  and  N_17 
ROOT
HETATM    1  C           1     -26.796  -6.218 -17.353  0.00  0.00     0.189 C 
ENDROOT
BRANCH   1   2
HETATM    2  C           1     -26.280  -6.459 -15.956  0.00  0.00     0.197 C 
HETATM    3  O           1     -25.299  -5.811 -15.531  0.00  0.00    -0.646 OA
HETATM    4  O           1     -26.833  -7.307 -15.222  0.00  0.00    -0.646 OA
ENDBRANCH   1   2
BRANCH   1   5
HETATM    5  C           1     -28.153  -6.891 -17.517  0.00  0.00     0.074 C 
BRANCH   5   6
HETATM    6  C           1     -29.233  -5.855 -17.471  0.00  0.00    -0.056 A 
HETATM    7  C           1     -30.536  -6.220 -17.130  0.00  0.00     0.010 A 
HETATM    8  C           1     -31.541  -5.253 -17.089  0.00  0.00     0.037 A 
HETATM    9  C           1     -31.244  -3.924 -17.387  0.00  0.00     0.065 A 
HETATM   10  C           1     -29.942  -3.559 -17.728  0.00  0.00     0.037 A 
HETATM   11  C           1     -28.935  -4.526 -17.770  0.00  0.00     0.010 A 
BRANCH   9  12
HETATM   12  O           1     -32.221  -2.986 -17.347  0.00  0.00    -0.361 OA
HETATM   13  H           1     -32.421  -2.801 -16.414  0.00  0.00     0.217 HD
ENDBRANCH   9  12
ENDBRANCH   5   6
ENDBRANCH   1   5
BRANCH   1  14
HETATM   14  N           1     -25.863  -6.774 -18.314  0.00  0.00    -0.344 N 
HETATM   15  H           1     -25.051  -7.286 -17.993  0.00  0.00     0.163 HD
HETATM   16  C           1     -26.080  -6.608 -19.655  0.00  0.00     0.248 C 
HETATM   17  O           1     -27.050  -5.997 -20.038  0.00  0.00    -0.271 OA
BRANCH  16  18
HETATM   18  C           1     -25.110  -7.187 -20.654  0.00  0.00     0.270 C 
HETATM   19  C           1     -25.806  -8.267 -21.472  0.00  0.00     0.050 C 
BRANCH  18  20
HETATM   20  N           1     -23.942  -7.786 -19.928  0.00  0.00    -0.067 N 
HETATM   21  H           1     -23.666  -8.681 -20.393  0.00  0.00     0.275 HD
HETATM   22  H           1     -23.139  -7.119 -19.950  0.00  0.00     0.275 HD
HETATM   23  H           1     -24.210  -7.978 -18.936  0.00  0.00     0.275 HD
ENDBRANCH  18  20
ENDBRANCH  16  18
ENDBRANCH   1  14
TORSDOF 7
ENDMDL
MODEL 3
REMARK VINA RESULT:      -7.1     13.218     16.375
REMARK  7 active torsions:
REMARK  status: ('A' for Active; 'I' for Inactive)
REMARK    1  A    between atoms: C_2  and  C_12 
REMARK    2  A    between atoms: C_4  and  C_16 
REMARK    3  A    between atoms: C_4  and  N_21 
REMARK    4  A    between atoms: O_5  and  C_6 
REMARK    5  A    between atoms: C_10  and  C_11 
REMARK    6  A    between atoms: C_11  and  C_12 
REMARK    7  A    between atoms: C_11  and  N_17 
REMARK       I    between atoms: C_16  and  N_17 
ROOT
HETATM    1  C           1     -21.077  -5.249  -6.683  0.00  0.00     0.189 C 
ENDROOT
BRANCH   1   2
HETATM    2  C           1     -19.681  -5.507  -7.196  0.00  0.00     0.197 C 
HETATM    3  O           1     -19.313  -6.675  -7.446  0.00  0.00    -0.646 OA
HETATM    4  O           1     -18.892  -4.553  -7.370  0.00  0.00    -0.646 OA
ENDBRANCH   1   2
BRANCH   1   5
HETATM    5  C           1     -21.588  -3.929  -7.246  0.00  0.00     0.074 C 
BRANCH   5   6
HETATM    6  C           1     -22.140  -4.152  -8.619  0.00  0.00    -0.056 A 
HETATM    7  C           1     -21.289  -4.131  -9.725  0.00  0.00     0.010 A 
HETATM    8  C           1     -21.804  -4.339 -11.005  0.00  0.00     0.037 A 
HETATM    9  C           1     -23.169  -4.568 -11.179  0.00  0.00     0.065 A 
HETATM   10  C           1     -24.019  -4.589 -10.074  0.00  0.00     0.037 A 
HETATM   11  C           1     -23.505  -4.381  -8.793  0.00  0.00     0.010 A 
BRANCH   9  12
HETATM   12  O           1     -23.668  -4.770 -12.422  0.00  0.00    -0.361 OA
HETATM   13  H           1     -23.076  -5.384 -12.888  0.00  0.00     0.217 HD
ENDBRANCH   9  12
ENDBRANCH   5   6
ENDBRANCH   1   5
BRANCH   1  14
HETATM   14  N           1     -21.053  -5.180  -5.235  0.00  0.00    -0.344 N 
HETATM   15  H           1     -20.863  -4.299  -4.773  0.00  0.00     0.163 HD
HETATM   16  C           1     -21.288  -6.304  -4.491  0.00  0.00     0.248 C 
HETATM   17  O           1     -21.515  -7.356  -5.043  0.00  0.00    -0.271 OA
BRANCH  16  18
HETATM   18  C           1     -21.265  -6.232  -2.985  0.00  0.00     0.270 C 
HETATM   19  C           1     -20.845  -7.582  -2.417  0.00  0.00     0.050 C 
BRANCH  18  20
HETATM   20  N           1     -22.634  -5.883  -2.480  0.00  0.00    -0.067 N 
HETATM   21  H           1     -22.636  -5.911  -1.435  0.00  0.00     0.275 HD
HETATM   22  H           1     -22.890  -4.923  -2.803  0.00  0.00     0.275 HD
HETATM   23  H           1     -23.327  -6.572  -2.848  0.00  0.00     0.275 HD
ENDBRANCH  18  20
ENDBRANCH  16  18
ENDBRANCH   1  14
TORSDOF 7
ENDMDL
MODEL 4
REMARK VINA RESULT:      -6.8      9.629     11.576
REMARK  7 active torsions:
REMARK  status: ('A' for Active; 'I' for Inactive)
REMARK    1  A    between atoms: C_2  and  C_12 
REMARK    2  A    between atoms: C_4  and  C_16 
REMARK    3  A    between atoms: C_4  and  N_21 
REMARK    4  A    between atoms: O_5  and  C_6 
REMARK    5  A    between atoms: C_10  and  C_11 
REMARK    6  A    between atoms: C_11  and  C_12 
REMARK    7  A    between atoms: C_11  and  N_17 
REMARK       I    between atoms: C_16  and  N_17 
ROOT
HETATM    1  C           1     -27.536  -6.640 -17.014  0.00  0.00     0.189 C 
ENDROOT
BRANCH   1   2
HETATM    2  C           1     -27.205  -7.228 -15.665  0.00  0.00     0.197 C 
HETATM    3  O           1     -28.124  -7.562 -14.886  0.00  0.00    -0.646 OA
HETATM    4  O           1     -26.011  -7.380 -15.325  0.00  0.00    -0.646 OA
ENDBRANCH   1   2
BRANCH   1   5
HETATM    5  C           1     -26.306  -5.941 -17.580  0.00  0.00     0.074 C 
BRANCH   5   6
HETATM    6  C           1     -25.872  -6.633 -18.834  0.00  0.00    -0.056 A 
HETATM    7  C           1     -24.550  -7.058 -18.975  0.00  0.00     0.010 A 
HETATM    8  C           1     -24.146  -7.703 -20.145  0.00  0.00     0.037 A 
HETATM    9  C           1     -25.064  -7.922 -21.173  0.00  0.00     0.065 A 
HETATM   10  C           1     -26.384  -7.497 -21.032  0.00  0.00     0.037 A 
HETATM   11  C           1     -26.789  -6.852 -19.862  0.00  0.00     0.010 A 
BRANCH   9  12
HETATM   12  O           1     -24.671  -8.548 -22.309  0.00  0.00    -0.361 OA
HETATM   13  H           1     -23.702  -8.622 -22.291  0.00  0.00     0.217 HD
ENDBRANCH   9  12
ENDBRANCH   5   6
ENDBRANCH   1   5
BRANCH   1  14
HETATM   14  N           1     -28.613  -5.679 -16.871  0.00  0.00    -0.344 N 
HETATM   15  H           1     -28.493  -4.870 -16.275  0.00  0.00     0.163 HD
HETATM   16  C           1     -29.791  -5.866 -17.542  0.00  0.00     0.248 C 
HETATM   17  O           1     -29.934  -6.832 -18.254  0.00  0.00    -0.271 OA
BRANCH  16  18
HETATM   18  C           1     -30.911  -4.867 -17.393  0.00  0.00     0.270 C 
HETATM   19  C           1     -30.361  -3.457 -17.563  0.00  0.00     0.050 C 
BRANCH  18  20
HETATM   20  N           1     -31.524  -5.002 -16.030  0.00  0.00    -0.067 N 
HETATM   21  H           1     -31.941  -5.955 -15.930  0.00  0.00     0.275 HD
HETATM   22  H           1     -30.787  -4.865 -15.302  0.00  0.00     0.275 HD
HETATM   23  H           1     -32.271  -4.281 -15.911  0.00  0.00     0.275 HD
ENDBRANCH  18  20
ENDBRANCH  16  18
ENDBRANCH   1  14
TORSDOF 7
ENDMDL
MODEL 5
REMARK VINA RESULT:      -6.8      2.688      5.790
REMARK  7 active torsions:
REMARK  status: ('A' for Active; 'I' for Inactive)
REMARK    1  A    between atoms: C_2  and  C_12 
REMARK    2  A    between atoms: C_4  and  C_16 
REMARK    3  A    between atoms: C_4  and  N_21 
REMARK    4  A    between atoms: O_5  and  C_6 
REMARK    5  A    between atoms: C_10  and  C_11 
REMARK    6  A    between atoms: C_11  and  C_12 
REMARK    7  A    between atoms: C_11  and  N_17 
REMARK       I    between atoms: C_16  and  N_17 
ROOT
HETATM    1  C           1     -36.264  -0.659 -10.430  0.00  0.00     0.189 C 
ENDROOT
BRANCH   1   2
HETATM    2  C           1     -36.593  -0.269  -9.009  0.00  0.00     0.197 C 
HETATM    3  O           1     -37.771  -0.346  -8.597  0.00  0.00    -0.646 OA
HETATM    4  O           1     -35.689   0.131  -8.245  0.00  0.00    -0.646 OA
ENDBRANCH   1   2
BRANCH   1   5
HETATM    5  C           1     -37.510  -0.522 -11.296  0.00  0.00     0.074 C 
BRANCH   5   6
HETATM    6  C           1     -37.110  -0.144 -12.688  0.00  0.00    -0.056 A 
HETATM    7  C           1     -38.052  -0.170 -13.717  0.00  0.00     0.010 A 
HETATM    8  C           1     -37.678   0.182 -15.014  0.00  0.00     0.037 A 
HETATM    9  C           1     -36.362   0.559 -15.282  0.00  0.00     0.065 A 
HETATM   10  C           1     -35.420   0.585 -14.255  0.00  0.00     0.037 A 
HETATM   11  C           1     -35.794   0.233 -12.957  0.00  0.00     0.010 A 
BRANCH   9  12
HETATM   12  O           1     -36.000   0.901 -16.543  0.00  0.00    -0.361 OA
HETATM   13  H           1     -36.157   0.134 -17.119  0.00  0.00     0.217 HD
ENDBRANCH   9  12
ENDBRANCH   5   6
ENDBRANCH   1   5
BRANCH   1  14
HETATM   14  N           1     -35.806  -2.035 -10.458  0.00  0.00    -0.344 N 
HETATM   15  H           1     -36.472  -2.792 -10.364  0.00  0.00     0.163 HD
HETATM   16  C           1     -34.474  -2.311 -10.613  0.00  0.00     0.248 C 
HETATM   17  O           1     -33.680  -1.407 -10.725  0.00  0.00    -0.271 OA
BRANCH  16  18
HETATM   18  C           1     -33.998  -3.742 -10.643  0.00  0.00     0.270 C 
HETATM   19  C           1     -32.895  -3.889 -11.683  0.00  0.00     0.050 C 
BRANCH  18  20
HETATM   20  N           1     -35.144  -4.642 -11.002  0.00  0.00    -0.067 N 
HETATM   21  H           1     -35.120  -5.492 -10.394  0.00  0.00     0.275 HD
HETATM   22  H           1     -36.045  -4.134 -10.856  0.00  0.00     0.275 HD
HETATM   23  H           1     -35.063  -4.928 -12.003  0.00  0.00     0.275 HD
ENDBRANCH  18  20
ENDBRANCH  16  18
ENDBRANCH   1  14
TORSDOF 7
ENDMDL
MODEL 6
REMARK VINA RESULT:      -6.5      8.695     10.992
REMARK  7 active torsions:
REMARK  status: ('A' for Active; 'I' for Inactive)
REMARK    1  A    between atoms: C_2  and  C_12 
REMARK    2  A    between atoms: C_4  and  C_16 
REMARK    3  A    between atoms: C_4  and  N_21 
REMARK    4  A    between atoms: O_5  and  C_6 
REMARK    5  A    between atoms: C_10  and  C_11 
REMARK    6  A    between atoms: C_11  and  C_12 
REMARK    7  A    between atoms: C_11  and  N_17 
REMARK       I    between atoms: C_16  and  N_17 
ROOT
HETATM    1  C           1     -26.829  -5.968 -17.070  0.00  0.00     0.189 C 
ENDROOT
BRANCH   1   2
HETATM    2  C           1     -25.670  -6.774 -16.537  0.00  0.00     0.197 C 
HETATM    3  O           1     -25.794  -7.420 -15.474  0.00  0.00    -0.646 OA
HETATM    4  O           1     -24.585  -6.795 -17.158  0.00  0.00    -0.646 OA
ENDBRANCH   1   2
BRANCH   1   5
HETATM    5  C           1     -27.590  -5.342 -15.907  0.00  0.00     0.074 C 
BRANCH   5   6
HETATM    6  C           1     -28.873  -4.756 -16.408  0.00  0.00    -0.056 A 
HETATM    7  C           1     -30.087  -5.373 -16.105  0.00  0.00     0.010 A 
HETATM    8  C           1     -31.282  -4.826 -16.573  0.00  0.00     0.037 A 
HETATM    9  C           1     -31.263  -3.663 -17.343  0.00  0.00     0.065 A 
HETATM   10  C           1     -30.049  -3.047 -17.647  0.00  0.00     0.037 A 
HETATM   11  C           1     -28.853  -3.594 -17.179  0.00  0.00     0.010 A 
BRANCH   9  12
HETATM   12  O           1     -32.424  -3.133 -17.798  0.00  0.00    -0.361 OA
HETATM   13  H           1     -32.269  -2.794 -18.695  0.00  0.00     0.217 HD
ENDBRANCH   9  12
ENDBRANCH   5   6
ENDBRANCH   1   5
BRANCH   1  14
HETATM   14  N           1     -27.718  -6.837 -17.816  0.00  0.00    -0.344 N 
HETATM   15  H           1     -28.307  -7.499 -17.327  0.00  0.00     0.163 HD
HETATM   16  C           1     -27.762  -6.762 -19.182  0.00  0.00     0.248 C 
HETATM   17  O           1     -27.059  -5.971 -19.766  0.00  0.00    -0.271 OA
BRANCH  16  18
HETATM   18  C           1     -28.688  -7.665 -19.958  0.00  0.00     0.270 C 
HETATM   19  C           1     -29.720  -8.268 -19.014  0.00  0.00     0.050 C 
BRANCH  18  20
HETATM   20  N           1     -27.893  -8.766 -20.597  0.00  0.00    -0.067 N 
HETATM   21  H           1     -27.215  -8.354 -21.277  0.00  0.00     0.275 HD
HETATM   22  H           1     -27.371  -9.292 -19.859  0.00  0.00     0.275 HD
HETATM   23  H           1     -28.538  -9.416 -21.098  0.00  0.00     0.275 HD
ENDBRANCH  18  20
ENDBRANCH  16  18
ENDBRANCH   1  14
TORSDOF 7
ENDMDL
MODEL 7
REMARK VINA RESULT:      -6.4     13.971     16.743
REMARK  7 active torsions:
REMARK  status: ('A' for Active; 'I' for Inactive)
REMARK    1  A    between atoms: C_2  and  C_12 
REMARK    2  A    between atoms: C_4  and  C_16 
REMARK    3  A    between atoms: C_4  and  N_21 
REMARK    4  A    between atoms: O_5  and  C_6 
REMARK    5  A    between atoms: C_10  and  C_11 
REMARK    6  A    between atoms: C_11  and  C_12 
REMARK    7  A    between atoms: C_11  and  N_17 
REMARK       I    between atoms: C_16  and  N_17 
ROOT
HETATM    1  C           1     -21.038  -5.556  -6.741  0.00  0.00     0.189 C 
ENDROOT
BRANCH   1   2
HETATM    2  C           1     -19.894  -4.800  -6.112  0.00  0.00     0.197 C 
HETATM    3  O           1     -18.834  -4.625  -6.751  0.00  0.00    -0.646 OA
HETATM    4  O           1     -20.005  -4.349  -4.951  0.00  0.00    -0.646 OA
ENDBRANCH   1   2
BRANCH   1   5
HETATM    5  C           1     -22.104  -4.570  -7.205  0.00  0.00     0.074 C 
BRANCH   5   6
HETATM    6  C           1     -22.009  -4.396  -8.689  0.00  0.00    -0.056 A 
HETATM    7  C           1     -20.763  -4.418  -9.316  0.00  0.00     0.010 A 
HETATM    8  C           1     -20.676  -4.255 -10.699  0.00  0.00     0.037 A 
HETATM    9  C           1     -21.835  -4.069 -11.454  0.00  0.00     0.065 A 
HETATM   10  C           1     -23.080  -4.046 -10.827  0.00  0.00     0.037 A 
HETATM   11  C           1     -23.167  -4.209  -9.443  0.00  0.00     0.010 A 
BRANCH   9  12
HETATM   12  O           1     -21.749  -3.910 -12.797  0.00  0.00    -0.361 OA
HETATM   13  H           1     -22.505  -4.366 -13.202  0.00  0.00     0.217 HD
ENDBRANCH   9  12
ENDBRANCH   5   6
ENDBRANCH   1   5
BRANCH   1  14
HETATM   14  N           1     -21.612  -6.463  -5.765  0.00  0.00    -0.344 N 
HETATM   15  H           1     -22.479  -6.224  -5.302  0.00  0.00     0.163 HD
HETATM   16  C           1     -20.980  -7.641  -5.472  0.00  0.00     0.248 C 
HETATM   17  O           1     -19.944  -7.925  -6.025  0.00  0.00    -0.271 OA
BRANCH  16  18
HETATM   18  C           1     -21.577  -8.584  -4.458  0.00  0.00     0.270 C 
HETATM   19  C           1     -21.017  -8.269  -3.077  0.00  0.00     0.050 C 
BRANCH  18  20
HETATM   20  N           1     -21.230  -9.997  -4.825  0.00  0.00    -0.067 N 
HETATM   21  H           1     -20.776 -10.467  -4.009  0.00  0.00     0.275 HD
HETATM   22  H           1     -22.101 -10.513  -5.084  0.00  0.00     0.275 HD
HETATM   23  H           1     -20.572  -9.995  -5.636  0.00  0.00     0.275 HD
ENDBRANCH  18  20
ENDBRANCH  16  18
ENDBRANCH   1  14
TORSDOF 7
ENDMDL
MODEL 8
REMARK VINA RESULT:      -6.3      1.644      2.121
REMARK  7 active torsions:
REMARK  status: ('A' for Active; 'I' for Inactive)
REMARK    1  A    between atoms: C_2  and  C_12 
REMARK    2  A    between atoms: C_4  and  C_16 
REMARK    3  A    between atoms: C_4  and  N_21 
REMARK    4  A    between atoms: O_5  and  C_6 
REMARK    5  A    between atoms: C_10  and  C_11 
REMARK    6  A    between atoms: C_11  and  C_12 
REMARK    7  A    between atoms: C_11  and  N_17 
REMARK       I    between atoms: C_16  and  N_17 
ROOT
HETATM    1  C           1     -36.872  -0.900 -10.546  0.00  0.00     0.189 C 
ENDROOT
BRANCH   1   2
HETATM    2  C           1     -37.563   0.169  -9.736  0.00  0.00     0.197 C 
HETATM    3  O           1     -38.074  -0.115  -8.632  0.00  0.00    -0.646 OA
HETATM    4  O           1     -37.625   1.340 -10.171  0.00  0.00    -0.646 OA
ENDBRANCH   1   2
BRANCH   1   5
HETATM    5  C           1     -35.992  -1.742  -9.630  0.00  0.00     0.074 C 
BRANCH   5   6
HETATM    6  C           1     -35.031  -2.539 -10.456  0.00  0.00    -0.056 A 
HETATM    7  C           1     -35.475  -3.664 -11.151  0.00  0.00     0.010 A 
HETATM    8  C           1     -34.578  -4.407 -11.920  0.00  0.00     0.037 A 
HETATM    9  C           1     -33.239  -4.025 -11.992  0.00  0.00     0.065 A 
HETATM   10  C           1     -32.795  -2.901 -11.297  0.00  0.00     0.037 A 
HETATM   11  C           1     -33.692  -2.157 -10.527  0.00  0.00     0.010 A 
BRANCH   9  12
HETATM   12  O           1     -32.368  -4.747 -12.739  0.00  0.00    -0.361 OA
HETATM   13  H           1     -31.807  -5.259 -12.134  0.00  0.00     0.217 HD
ENDBRANCH   9  12
ENDBRANCH   5   6
ENDBRANCH   1   5
BRANCH   1  14
HETATM   14  N           1     -36.050  -0.277 -11.566  0.00  0.00    -0.344 N 
HETATM   15  H           1     -35.213   0.227 -11.302  0.00  0.00     0.163 HD
HETATM   16  C           1     -36.404  -0.373 -12.884  0.00  0.00     0.248 C 
HETATM   17  O           1     -37.404  -0.976 -13.198  0.00  0.00    -0.271 OA
BRANCH  16  18
HETATM   18  C           1     -35.549   0.274 -13.944  0.00  0.00     0.270 C 
HETATM   19  C           1     -34.649   1.323 -13.303  0.00  0.00     0.050 C 
BRANCH  18  20
HETATM   20  N           1     -36.430   0.930 -14.966  0.00  0.00    -0.067 N 
HETATM   21  H           1     -36.006   1.841 -15.256  0.00  0.00     0.275 HD
HETATM   22  H           1     -36.521   0.307 -15.800  0.00  0.00     0.275 HD
HETATM   23  H           1     -37.374   1.102 -14.554  0.00  0.00     0.275 HD
ENDBRANCH  18  20
ENDBRANCH  16  18
ENDBRANCH   1  14
TORSDOF 7
ENDMDL
MODEL 9
REMARK VINA RESULT:      -6.2     16.280     18.074
REMARK  7 active torsions:
REMARK  status: ('A' for Active; 'I' for Inactive)
REMARK    1  A    between atoms: C_2  and  C_12 
REMARK    2  A    between atoms: C_4  and  C_16 
REMARK    3  A    between atoms: C_4  and  N_21 
REMARK    4  A    between atoms: O_5  and  C_6 
REMARK    5  A    between atoms: C_10  and  C_11 
REMARK    6  A    between atoms: C_11  and  C_12 
REMARK    7  A    between atoms: C_11  and  N_17 
REMARK       I    between atoms: C_16  and  N_17 
ROOT
HETATM    1  C           1     -20.172  -7.742  -4.848  0.00  0.00     0.189 C 
ENDROOT
BRANCH   1   2
HETATM    2  C           1     -19.094  -8.791  -4.974  0.00  0.00     0.197 C 
HETATM    3  O           1     -18.851  -9.307  -6.087  0.00  0.00    -0.646 OA
HETATM    4  O           1     -18.444  -9.144  -3.967  0.00  0.00    -0.646 OA
ENDBRANCH   1   2
BRANCH   1   5
HETATM    5  C           1     -21.481  -8.406  -4.440  0.00  0.00     0.074 C 
BRANCH   5   6
HETATM    6  C           1     -21.687  -8.238  -2.967  0.00  0.00    -0.056 A 
HETATM    7  C           1     -21.657  -9.351  -2.126  0.00  0.00     0.010 A 
HETATM    8  C           1     -21.850  -9.193  -0.753  0.00  0.00     0.037 A 
HETATM    9  C           1     -22.073  -7.923  -0.222  0.00  0.00     0.065 A 
HETATM   10  C           1     -22.104  -6.810  -1.062  0.00  0.00     0.037 A 
HETATM   11  C           1     -21.911  -6.968  -2.435  0.00  0.00     0.010 A 
BRANCH   9  12
HETATM   12  O           1     -22.261  -7.770   1.111  0.00  0.00    -0.361 OA
HETATM   13  H           1     -21.954  -6.882   1.358  0.00  0.00     0.217 HD
ENDBRANCH   9  12
ENDBRANCH   5   6
ENDBRANCH   1   5
BRANCH   1  14
HETATM   14  N           1     -20.346  -7.074  -6.124  0.00  0.00    -0.344 N 
HETATM   15  H           1     -20.328  -7.610  -6.982  0.00  0.00     0.163 HD
HETATM   16  C           1     -20.537  -5.720  -6.167  0.00  0.00     0.248 C 
HETATM   17  O           1     -20.559  -5.080  -5.141  0.00  0.00    -0.271 OA
BRANCH  16  18
HETATM   18  C           1     -20.720  -5.025  -7.493  0.00  0.00     0.270 C 
HETATM   19  C           1     -19.416  -4.350  -7.898  0.00  0.00     0.050 C 
BRANCH  18  20
HETATM   20  N           1     -21.800  -3.991  -7.371  0.00  0.00    -0.067 N 
HETATM   21  H           1     -22.352  -3.960  -8.258  0.00  0.00     0.275 HD
HETATM   22  H           1     -22.431  -4.239  -6.576  0.00  0.00     0.275 HD
HETATM   23  H           1     -21.369  -3.056  -7.196  0.00  0.00     0.275 HD
ENDBRANCH  18  20
ENDBRANCH  16  18
ENDBRANCH   1  14
TORSDOF 7
ENDMDL
