MODEL 1
REMARK VINA RESULT:      -6.1      0.000      0.000
REMARK  9 active torsions:
REMARK  status: ('A' for Active; 'I' for Inactive)
REMARK    1  A    between atoms: C_3  and  C_4 
REMARK    2  A    between atoms: C_3  and  C_11 
REMARK    3  A    between atoms: N_6  and  C_21 
REMARK    4  A    between atoms: S_8  and  C_9 
REMARK    5  A    between atoms: C_9  and  C_12 
REMARK    6  A    between atoms: C_11  and  C_13 
REMARK    7  A    between atoms: C_11  and  N_19 
REMARK    8  A    between atoms: C_12  and  C_21 
REMARK       I    between atoms: N_19  and  C_20 
REMARK    9  A    between atoms: C_20  and  C_21 
ROOT
HETATM    1  O           1     -33.787  -1.932 -10.851  0.00  0.00    -0.271 OA
HETATM    2  H           1     -36.047  -2.196 -13.010  0.00  0.00     0.163 HD
HETATM    3  N           1     -35.451  -1.744 -12.328  0.00  0.00    -0.344 N 
HETATM    4  C           1     -34.498  -2.470 -11.666  0.00  0.00     0.249 C 
ENDROOT
BRANCH   4   5
HETATM    5  C           1     -34.336  -3.943 -11.953  0.00  0.00     0.275 C 
BRANCH   5   6
HETATM    6  N           1     -33.273  -4.134 -12.994  0.00  0.00    -0.066 N 
HETATM    7  H           1     -32.332  -4.095 -12.542  0.00  0.00     0.275 HD
HETATM    8  H           1     -33.346  -3.379 -13.711  0.00  0.00     0.275 HD
HETATM    9  H           1     -33.400  -5.065 -13.453  0.00  0.00     0.275 HD
ENDBRANCH   5   6
BRANCH   5  10
HETATM   10  C           1     -33.932  -4.668 -10.677  0.00  0.00     0.053 C 
BRANCH  10  11
HETATM   11  C           1     -33.776  -6.156 -10.964  0.00  0.00     0.076 C 
BRANCH  11  12
HETATM   12  S           1     -34.886  -7.101  -9.883  0.00  0.00    -0.173 SA
HETATM   13  C           1     -33.935  -8.646  -9.924  0.00  0.00     0.089 C 
ENDBRANCH  11  12
ENDBRANCH  10  11
ENDBRANCH   5  10
ENDBRANCH   4   5
BRANCH   3  14
HETATM   14  C           1     -35.606  -0.330 -12.053  0.00  0.00     0.189 C 
BRANCH  14  15
HETATM   15  C           1     -35.889   0.413 -13.353  0.00  0.00     0.014 C 
HETATM   16  C           1     -34.617   1.100 -13.831  0.00  0.00     0.012 C 
BRANCH  15  17
HETATM   17  C           1     -36.359  -0.578 -14.410  0.00  0.00     0.002 C 
HETATM   18  C           1     -35.607  -0.330 -15.711  0.00  0.00     0.005 C 
ENDBRANCH  15  17
ENDBRANCH  14  15
BRANCH  14  19
HETATM   19  C           1     -36.757  -0.127 -11.097  0.00  0.00     0.197 C 
HETATM   20  O           1     -37.806  -0.793 -11.233  0.00  0.00    -0.646 OA
HETATM   21  O           1     -36.661   0.705 -10.170  0.00  0.00    -0.646 OA
ENDBRANCH  14  19
ENDBRANCH   3  14
TORSDOF 9
ENDMDL
MODEL 2
REMARK VINA RESULT:      -5.4     14.043     16.767
REMARK  9 active torsions:
REMARK  status: ('A' for Active; 'I' for Inactive)
REMARK    1  A    between atoms: C_3  and  C_4 
REMARK    2  A    between atoms: C_3  and  C_11 
REMARK    3  A    between atoms: N_6  and  C_21 
REMARK    4  A    between atoms: S_8  and  C_9 
REMARK    5  A    between atoms: C_9  and  C_12 
REMARK    6  A    between atoms: C_11  and  C_13 
REMARK    7  A    between atoms: C_11  and  N_19 
REMARK    8  A    between atoms: C_12  and  C_21 
REMARK       I    between atoms: N_19  and  C_20 
REMARK    9  A    between atoms: C_20  and  C_21 
ROOT
HETATM    1  O           1     -19.979  -4.874  -5.928  0.00  0.00    -0.271 OA
HETATM    2  H           1     -22.454  -6.795  -5.773  0.00  0.00     0.163 HD
HETATM    3  N           1     -21.521  -6.452  -5.583  0.00  0.00    -0.344 N 
HETATM    4  C           1     -21.093  -5.284  -6.154  0.00  0.00     0.249 C 
ENDROOT
BRANCH   4   5
HETATM    5  C           1     -22.010  -4.508  -7.067  0.00  0.00     0.275 C 
BRANCH   5   6
HETATM    6  N           1     -21.588  -3.069  -7.094  0.00  0.00    -0.066 N 
HETATM    7  H           1     -20.844  -2.911  -6.377  0.00  0.00     0.275 HD
HETATM    8  H           1     -22.410  -2.461  -6.881  0.00  0.00     0.275 HD
HETATM    9  H           1     -21.215  -2.833  -8.041  0.00  0.00     0.275 HD
ENDBRANCH   5   6
BRANCH   5  10
HETATM   10  C           1     -21.934  -5.085  -8.474  0.00  0.00     0.053 C 
BRANCH  10  11
HETATM   11  C           1     -20.973  -4.253  -9.314  0.00  0.00     0.076 C 
BRANCH  11  12
HETATM   12  S           1     -21.824  -3.668 -10.806  0.00  0.00    -0.173 SA
HETATM   13  C           1     -23.320  -4.673 -10.589  0.00  0.00     0.089 C 
ENDBRANCH  11  12
ENDBRANCH  10  11
ENDBRANCH   5  10
ENDBRANCH   4   5
BRANCH   3  14
HETATM   14  C           1     -20.639  -7.196  -4.706  0.00  0.00     0.189 C 
BRANCH  14  15
HETATM   15  C           1     -21.375  -7.536  -3.416  0.00  0.00     0.014 C 
HETATM   16  C           1     -20.424  -8.245  -2.461  0.00  0.00     0.012 C 
BRANCH  15  17
HETATM   17  C           1     -21.881  -6.254  -2.769  0.00  0.00     0.002 C 
HETATM   18  C           1     -22.279  -6.534  -1.326  0.00  0.00     0.005 C 
ENDBRANCH  15  17
ENDBRANCH  14  15
BRANCH  14  19
HETATM   19  C           1     -20.209  -8.470  -5.390  0.00  0.00     0.197 C 
HETATM   20  O           1     -21.061  -9.329  -5.705  0.00  0.00    -0.646 OA
HETATM   21  O           1     -19.000  -8.667  -5.643  0.00  0.00    -0.646 OA
ENDBRANCH  14  19
ENDBRANCH   3  14
TORSDOF 9
ENDMDL
MODEL 3
REMARK VINA RESULT:      -5.4      3.276      5.887
REMARK  9 active torsions:
REMARK  status: ('A' for Active; 'I' for Inactive)
REMARK    1  A    between atoms: C_3  and  C_4 
REMARK    2  A    between atoms: C_3  and  C_11 
REMARK    3  A    between atoms: N_6  and  C_21 
REMARK    4  A    between atoms: S_8  and  C_9 
REMARK    5  A    between atoms: C_9  and  C_12 
REMARK    6  A    between atoms: C_11  and  C_13 
REMARK    7  A    between atoms: C_11  and  N_19 
REMARK    8  A    between atoms: C_12  and  C_21 
REMARK       I    between atoms: N_19  and  C_20 
REMARK    9  A    between atoms: C_20  and  C_21 
ROOT
HETATM    1  O           1     -34.723  -0.013 -11.919  0.00  0.00    -0.271 OA
HETATM    2  H           1     -36.163  -2.750 -11.392  0.00  0.00     0.163 HD
HETATM    3  N           1     -35.456  -2.115 -11.741  0.00  0.00    -0.344 N 
HETATM    4  C           1     -35.566  -0.772 -11.502  0.00  0.00     0.249 C 
ENDROOT
BRANCH   4   5
HETATM    5  C           1     -36.739  -0.238 -10.718  0.00  0.00     0.275 C 
BRANCH   5   6
HETATM    6  N           1     -38.015  -0.749 -11.319  0.00  0.00    -0.066 N 
HETATM    7  H           1     -38.828  -0.270 -10.871  0.00  0.00     0.275 HD
HETATM    8  H           1     -38.087  -1.779 -11.160  0.00  0.00     0.275 HD
HETATM    9  H           1     -38.018  -0.554 -12.346  0.00  0.00     0.275 HD
ENDBRANCH   5   6
BRANCH   5  10
HETATM   10  C           1     -36.639  -0.702  -9.272  0.00  0.00     0.053 C 
BRANCH  10  11
HETATM   11  C           1     -37.760  -0.072  -8.456  0.00  0.00     0.076 C 
BRANCH  11  12
HETATM   12  S           1     -37.141   1.416  -7.621  0.00  0.00    -0.173 SA
HETATM   13  C           1     -37.144   0.721  -5.945  0.00  0.00     0.089 C 
ENDBRANCH  11  12
ENDBRANCH  10  11
ENDBRANCH   5  10
ENDBRANCH   4   5
BRANCH   3  14
HETATM   14  C           1     -34.329  -2.628 -12.495  0.00  0.00     0.189 C 
BRANCH  14  15
HETATM   15  C           1     -33.969  -4.018 -11.986  0.00  0.00     0.014 C 
HETATM   16  C           1     -32.455  -4.148 -11.894  0.00  0.00     0.012 C 
BRANCH  15  17
HETATM   17  C           1     -34.582  -4.227 -10.608  0.00  0.00     0.002 C 
HETATM   18  C           1     -34.605  -5.715 -10.281  0.00  0.00     0.005 C 
ENDBRANCH  15  17
ENDBRANCH  14  15
BRANCH  14  19
HETATM   19  C           1     -34.696  -2.706 -13.957  0.00  0.00     0.197 C 
HETATM   20  O           1     -35.272  -1.744 -14.508  0.00  0.00    -0.646 OA
HETATM   21  O           1     -34.422  -3.732 -14.616  0.00  0.00    -0.646 OA
ENDBRANCH  14  19
ENDBRANCH   3  14
TORSDOF 9
ENDMDL
MODEL 4
REMARK VINA RESULT:      -5.3      2.810      6.319
REMARK  9 active torsions:
REMARK  status: ('A' for Active; 'I' for Inactive)
REMARK    1  A    between atoms: C_3  and  C_4 
REMARK    2  A    between atoms: C_3  and  C_11 
REMARK    3  A    between atoms: N_6  and  C_21 
REMARK    4  A    between atoms: S_8  and  C_9 
REMARK    5  A    between atoms: C_9  and  C_12 
REMARK    6  A    between atoms: C_11  and  C_13 
REMARK    7  A    between atoms: C_11  and  N_19 
REMARK    8  A    between atoms: C_12  and  C_21 
REMARK       I    between atoms: N_19  and  C_20 
REMARK    9  A    between atoms: C_20  and  C_21 
ROOT
HETATM    1  O           1     -34.604  -1.423  -9.929  0.00  0.00    -0.271 OA
HETATM    2  H           1     -36.217  -3.080 -12.048  0.00  0.00     0.163 HD
HETATM    3  N           1     -35.486  -2.873 -11.380  0.00  0.00    -0.344 N 
HETATM    4  C           1     -35.477  -1.670 -10.726  0.00  0.00     0.249 C 
ENDROOT
BRANCH   4   5
HETATM    5  C           1     -36.557  -0.653 -11.002  0.00  0.00     0.275 C 
BRANCH   5   6
HETATM    6  N           1     -36.319   0.567 -10.163  0.00  0.00    -0.066 N 
HETATM    7  H           1     -35.483   0.414  -9.555  0.00  0.00     0.275 HD
HETATM    8  H           1     -37.156   0.747  -9.564  0.00  0.00     0.275 HD
HETATM    9  H           1     -36.152   1.390 -10.785  0.00  0.00     0.275 HD
ENDBRANCH   5   6
BRANCH   5  10
HETATM   10  C           1     -36.530  -0.269 -12.474  0.00  0.00     0.053 C 
BRANCH  10  11
HETATM   11  C           1     -35.173   0.330 -12.819  0.00  0.00     0.076 C 
BRANCH  11  12
HETATM   12  S           1     -35.177   0.886 -14.547  0.00  0.00    -0.173 SA
HETATM   13  C           1     -36.736   0.081 -15.011  0.00  0.00     0.089 C 
ENDBRANCH  11  12
ENDBRANCH  10  11
ENDBRANCH   5  10
ENDBRANCH   4   5
BRANCH   3  14
HETATM   14  C           1     -34.448  -3.850 -11.114  0.00  0.00     0.189 C 
BRANCH  14  15
HETATM   15  C           1     -35.073  -5.235 -10.998  0.00  0.00     0.014 C 
HETATM   16  C           1     -35.057  -5.914 -12.361  0.00  0.00     0.012 C 
BRANCH  15  17
HETATM   17  C           1     -34.274  -6.069 -10.006  0.00  0.00     0.002 C 
HETATM   18  C           1     -34.841  -7.481  -9.955  0.00  0.00     0.005 C 
ENDBRANCH  15  17
ENDBRANCH  14  15
BRANCH  14  19
HETATM   19  C           1     -33.449  -3.841 -12.246  0.00  0.00     0.197 C 
HETATM   20  O           1     -33.791  -3.436 -13.377  0.00  0.00    -0.646 OA
HETATM   21  O           1     -32.280  -4.239 -12.050  0.00  0.00    -0.646 OA
ENDBRANCH  14  19
ENDBRANCH   3  14
TORSDOF 9
ENDMDL
MODEL 5
REMARK VINA RESULT:      -5.2     14.033     16.888
REMARK  9 active torsions:
REMARK  status: ('A' for Active; 'I' for Inactive)
REMARK    1  A    between atoms: C_3  and  C_4 
REMARK    2  A    between atoms: C_3  and  C_11 
REMARK    3  A    between atoms: N_6  and  C_21 
REMARK    4  A    between atoms: S_8  and  C_9 
REMARK    5  A    between atoms: C_9  and  C_12 
REMARK    6  A    between atoms: C_11  and  C_13 
REMARK    7  A    between atoms: C_11  and  N_19 
REMARK    8  A    between atoms: C_12  and  C_21 
REMARK       I    between atoms: N_19  and  C_20 
REMARK    9  A    between atoms: C_20  and  C_21 
ROOT
HETATM    1  O           1     -22.776  -5.924  -5.442  0.00  0.00    -0.271 OA
HETATM    2  H           1     -19.863  -6.798  -4.670  0.00  0.00     0.163 HD
HETATM    3  N           1     -20.874  -6.773  -4.634  0.00  0.00    -0.344 N 
HETATM    4  C           1     -21.569  -5.955  -5.485  0.00  0.00     0.249 C 
ENDROOT
BRANCH   4   5
HETATM    5  C           1     -20.827  -5.091  -6.475  0.00  0.00     0.275 C 
BRANCH   5   6
HETATM    6  N           1     -20.152  -5.965  -7.491  0.00  0.00    -0.066 N 
HETATM    7  H           1     -19.304  -5.478  -7.860  0.00  0.00     0.275 HD
HETATM    8  H           1     -20.811  -6.158  -8.278  0.00  0.00     0.275 HD
HETATM    9  H           1     -19.870  -6.866  -7.043  0.00  0.00     0.275 HD
ENDBRANCH   5   6
BRANCH   5  10
HETATM   10  C           1     -21.809  -4.163  -7.176  0.00  0.00     0.053 C 
BRANCH  10  11
HETATM   11  C           1     -22.028  -4.641  -8.606  0.00  0.00     0.076 C 
BRANCH  11  12
HETATM   12  S           1     -23.483  -3.810  -9.305  0.00  0.00    -0.173 SA
HETATM   13  C           1     -23.679  -4.918 -10.729  0.00  0.00     0.089 C 
ENDBRANCH  11  12
ENDBRANCH  10  11
ENDBRANCH   5  10
ENDBRANCH   4   5
BRANCH   3  14
HETATM   14  C           1     -21.588  -7.603  -3.683  0.00  0.00     0.189 C 
BRANCH  14  15
HETATM   15  C           1     -20.892  -8.954  -3.567  0.00  0.00     0.014 C 
HETATM   16  C           1     -21.794 -10.038  -4.142  0.00  0.00     0.012 C 
BRANCH  15  17
HETATM   17  C           1     -19.583  -8.918  -4.344  0.00  0.00     0.002 C 
HETATM   18  C           1     -18.438  -9.334  -3.430  0.00  0.00     0.005 C 
ENDBRANCH  15  17
ENDBRANCH  14  15
BRANCH  14  19
HETATM   19  C           1     -21.598  -6.925  -2.335  0.00  0.00     0.197 C 
HETATM   20  O           1     -22.282  -5.893  -2.160  0.00  0.00    -0.646 OA
HETATM   21  O           1     -20.925  -7.396  -1.393  0.00  0.00    -0.646 OA
ENDBRANCH  14  19
ENDBRANCH   3  14
TORSDOF 9
ENDMDL
MODEL 6
REMARK VINA RESULT:      -4.9     15.897     18.701
REMARK  9 active torsions:
REMARK  status: ('A' for Active; 'I' for Inactive)
REMARK    1  A    between atoms: C_3  and  C_4 
REMARK    2  A    between atoms: C_3  and  C_11 
REMARK    3  A    between atoms: N_6  and  C_21 
REMARK    4  A    between atoms: S_8  and  C_9 
REMARK    5  A    between atoms: C_9  and  C_12 
REMARK    6  A    between atoms: C_11  and  C_13 
REMARK    7  A    between atoms: C_11  and  N_19 
REMARK    8  A    between atoms: C_12  and  C_21 
REMARK       I    between atoms: N_19  and  C_20 
REMARK    9  A    between atoms: C_20  and  C_21 
ROOT
HETATM    1  O           1     -20.567  -7.126  -2.207  0.00  0.00    -0.271 OA
HETATM    2  H           1     -22.266  -9.705  -2.758  0.00  0.00     0.163 HD
HETATM    3  N           1     -21.668  -9.069  -2.247  0.00  0.00    -0.344 N 
HETATM    4  C           1     -21.283  -7.885  -2.817  0.00  0.00     0.249 C 
ENDROOT
BRANCH   4   5
HETATM    5  C           1     -21.749  -7.529  -4.207  0.00  0.00     0.275 C 
BRANCH   5   6
HETATM    6  N           1     -22.567  -6.273  -4.152  0.00  0.00    -0.066 N 
HETATM    7  H           1     -21.935  -5.443  -4.203  0.00  0.00     0.275 HD
HETATM    8  H           1     -23.105  -6.246  -3.257  0.00  0.00     0.275 HD
HETATM    9  H           1     -23.232  -6.256  -4.959  0.00  0.00     0.275 HD
ENDBRANCH   5   6
BRANCH   5  10
HETATM   10  C           1     -20.542  -7.309  -5.108  0.00  0.00     0.053 C 
BRANCH  10  11
HETATM   11  C           1     -20.455  -5.837  -5.492  0.00  0.00     0.076 C 
BRANCH  11  12
HETATM   12  S           1     -20.723  -5.661  -7.279  0.00  0.00    -0.173 SA
HETATM   13  C           1     -21.161  -3.900  -7.241  0.00  0.00     0.089 C 
ENDBRANCH  11  12
ENDBRANCH  10  11
ENDBRANCH   5  10
ENDBRANCH   4   5
BRANCH   3  14
HETATM   14  C           1     -21.219  -9.411  -0.912  0.00  0.00     0.189 C 
BRANCH  14  15
HETATM   15  C           1     -22.428  -9.644  -0.014  0.00  0.00     0.014 C 
HETATM   16  C           1     -23.058  -8.305   0.346  0.00  0.00     0.012 C 
BRANCH  15  17
HETATM   17  C           1     -23.447 -10.502  -0.751  0.00  0.00     0.002 C 
HETATM   18  C           1     -23.764 -11.740   0.077  0.00  0.00     0.005 C 
ENDBRANCH  15  17
ENDBRANCH  14  15
BRANCH  14  19
HETATM   19  C           1     -20.385 -10.667  -0.968  0.00  0.00     0.197 C 
HETATM   20  O           1     -19.882 -11.130   0.078  0.00  0.00    -0.646 OA
HETATM   21  O           1     -20.197 -11.244  -2.061  0.00  0.00    -0.646 OA
ENDBRANCH  14  19
ENDBRANCH   3  14
TORSDOF 9
ENDMDL
MODEL 7
REMARK VINA RESULT:      -4.9     15.112     18.023
REMARK  9 active torsions:
REMARK  status: ('A' for Active; 'I' for Inactive)
REMARK    1  A    between atoms: C_3  and  C_4 
REMARK    2  A    between atoms: C_3  and  C_11 
REMARK    3  A    between atoms: N_6  and  C_21 
REMARK    4  A    between atoms: S_8  and  C_9 
REMARK    5  A    between atoms: C_9  and  C_12 
REMARK    6  A    between atoms: C_11  and  C_13 
REMARK    7  A    between atoms: C_11  and  N_19 
REMARK    8  A    between atoms: C_12  and  C_21 
REMARK       I    between atoms: N_19  and  C_20 
REMARK    9  A    between atoms: C_20  and  C_21 
ROOT
HETATM    1  O           1     -19.568  -8.240  -4.479  0.00  0.00    -0.271 OA
HETATM    2  H           1     -22.338  -7.478  -3.221  0.00  0.00     0.163 HD
HETATM    3  N           1     -21.406  -7.869  -3.267  0.00  0.00    -0.344 N 
HETATM    4  C           1     -20.680  -7.771  -4.423  0.00  0.00     0.249 C 
ENDROOT
BRANCH   4   5
HETATM    5  C           1     -21.269  -7.080  -5.629  0.00  0.00     0.275 C 
BRANCH   5   6
HETATM    6  N           1     -22.349  -6.138  -5.186  0.00  0.00    -0.066 N 
HETATM    7  H           1     -23.279  -6.604  -5.283  0.00  0.00     0.275 HD
HETATM    8  H           1     -22.327  -5.279  -5.779  0.00  0.00     0.275 HD
HETATM    9  H           1     -22.193  -5.876  -4.186  0.00  0.00     0.275 HD
ENDBRANCH   5   6
BRANCH   5  10
HETATM   10  C           1     -20.179  -6.299  -6.350  0.00  0.00     0.053 C 
BRANCH  10  11
HETATM   11  C           1     -20.458  -4.807  -6.229  0.00  0.00     0.076 C 
BRANCH  11  12
HETATM   12  S           1     -20.370  -4.039  -7.872  0.00  0.00    -0.173 SA
HETATM   13  C           1     -22.162  -3.903  -8.124  0.00  0.00     0.089 C 
ENDBRANCH  11  12
ENDBRANCH  10  11
ENDBRANCH   5  10
ENDBRANCH   4   5
BRANCH   3  14
HETATM   14  C           1     -20.840  -8.533  -2.110  0.00  0.00     0.189 C 
BRANCH  14  15
HETATM   15  C           1     -21.275  -7.805  -0.844  0.00  0.00     0.014 C 
HETATM   16  C           1     -22.265  -6.706  -1.206  0.00  0.00     0.012 C 
BRANCH  15  17
HETATM   17  C           1     -21.938  -8.793   0.106  0.00  0.00     0.002 C 
HETATM   18  C           1     -23.240  -8.201   0.629  0.00  0.00     0.005 C 
ENDBRANCH  15  17
ENDBRANCH  14  15
BRANCH  14  19
HETATM   19  C           1     -21.328  -9.961  -2.061  0.00  0.00     0.197 C 
HETATM   20  O           1     -22.469 -10.246  -2.483  0.00  0.00    -0.646 OA
HETATM   21  O           1     -20.589 -10.858  -1.601  0.00  0.00    -0.646 OA
ENDBRANCH  14  19
ENDBRANCH   3  14
TORSDOF 9
ENDMDL
MODEL 8
REMARK VINA RESULT:      -4.8     13.136     15.649
REMARK  9 active torsions:
REMARK  status: ('A' for Active; 'I' for Inactive)
REMARK    1  A    between atoms: C_3  and  C_4 
REMARK    2  A    between atoms: C_3  and  C_11 
REMARK    3  A    between atoms: N_6  and  C_21 
REMARK    4  A    between atoms: S_8  and  C_9 
REMARK    5  A    between atoms: C_9  and  C_12 
REMARK    6  A    between atoms: C_11  and  C_13 
REMARK    7  A    between atoms: C_11  and  N_19 
REMARK    8  A    between atoms: C_12  and  C_21 
REMARK       I    between atoms: N_19  and  C_20 
REMARK    9  A    between atoms: C_20  and  C_21 
ROOT
HETATM    1  O           1     -22.058  -3.304  -7.534  0.00  0.00    -0.271 OA
HETATM    2  H           1     -22.947  -6.276  -7.066  0.00  0.00     0.163 HD
HETATM    3  N           1     -22.453  -5.409  -6.899  0.00  0.00    -0.344 N 
HETATM    4  C           1     -22.648  -4.340  -7.732  0.00  0.00     0.249 C 
ENDROOT
BRANCH   4   5
HETATM    5  C           1     -23.600  -4.454  -8.897  0.00  0.00     0.275 C 
BRANCH   5   6
HETATM    6  N           1     -24.395  -3.188  -9.018  0.00  0.00    -0.066 N 
HETATM    7  H           1     -25.128  -3.306  -9.753  0.00  0.00     0.275 HD
HETATM    8  H           1     -23.761  -2.402  -9.283  0.00  0.00     0.275 HD
HETATM    9  H           1     -24.850  -2.975  -8.102  0.00  0.00     0.275 HD
ENDBRANCH   5   6
BRANCH   5  10
HETATM   10  C           1     -22.809  -4.680 -10.178  0.00  0.00     0.053 C 
BRANCH  10  11
HETATM   11  C           1     -22.613  -3.352 -10.897  0.00  0.00     0.076 C 
BRANCH  11  12
HETATM   12  S           1     -20.858  -3.136 -11.305  0.00  0.00    -0.173 SA
HETATM   13  C           1     -20.282  -4.668 -10.520  0.00  0.00     0.089 C 
ENDBRANCH  11  12
ENDBRANCH  10  11
ENDBRANCH   5  10
ENDBRANCH   4   5
BRANCH   3  14
HETATM   14  C           1     -21.539  -5.299  -5.780  0.00  0.00     0.189 C 
BRANCH  14  15
HETATM   15  C           1     -21.889  -6.350  -4.734  0.00  0.00     0.014 C 
HETATM   16  C           1     -21.500  -7.728  -5.250  0.00  0.00     0.012 C 
BRANCH  15  17
HETATM   17  C           1     -21.130  -6.056  -3.447  0.00  0.00     0.002 C 
HETATM   18  C           1     -22.032  -6.325  -2.250  0.00  0.00     0.005 C 
ENDBRANCH  15  17
ENDBRANCH  14  15
BRANCH  14  19
HETATM   19  C           1     -20.126  -5.519  -6.261  0.00  0.00     0.197 C 
HETATM   20  O           1     -19.211  -4.757  -5.883  0.00  0.00    -0.646 OA
HETATM   21  O           1     -19.871  -6.465  -7.038  0.00  0.00    -0.646 OA
ENDBRANCH  14  19
ENDBRANCH   3  14
TORSDOF 9
ENDMDL
MODEL 9
REMARK VINA RESULT:      -4.7     17.367     19.213
REMARK  9 active torsions:
REMARK  status: ('A' for Active; 'I' for Inactive)
REMARK    1  A    between atoms: C_3  and  C_4 
REMARK    2  A    between atoms: C_3  and  C_11 
REMARK    3  A    between atoms: N_6  and  C_21 
REMARK    4  A    between atoms: S_8  and  C_9 
REMARK    5  A    between atoms: C_9  and  C_12 
REMARK    6  A    between atoms: C_11  and  C_13 
REMARK    7  A    between atoms: C_11  and  N_19 
REMARK    8  A    between atoms: C_12  and  C_21 
REMARK       I    between atoms: N_19  and  C_20 
REMARK    9  A    between atoms: C_20  and  C_21 
ROOT
HETATM    1  O           1     -21.626  -9.544  -4.056  0.00  0.00    -0.271 OA
HETATM    2  H           1     -19.685  -8.020  -2.118  0.00  0.00     0.163 HD
HETATM    3  N           1     -20.565  -8.312  -2.525  0.00  0.00    -0.344 N 
HETATM    4  C           1     -20.576  -9.196  -3.570  0.00  0.00     0.249 C 
ENDROOT
BRANCH   4   5
HETATM    5  C           1     -19.277  -9.736  -4.116  0.00  0.00     0.275 C 
BRANCH   5   6
HETATM    6  N           1     -19.024  -9.148  -5.473  0.00  0.00    -0.066 N 
HETATM    7  H           1     -19.701  -8.372  -5.648  0.00  0.00     0.275 HD
HETATM    8  H           1     -19.145  -9.887  -6.201  0.00  0.00     0.275 HD
HETATM    9  H           1     -18.048  -8.775  -5.513  0.00  0.00     0.275 HD
ENDBRANCH   5   6
BRANCH   5  10
HETATM   10  C           1     -18.136  -9.360  -3.180  0.00  0.00     0.053 C 
BRANCH  10  11
HETATM   11  C           1     -17.687 -10.593  -2.405  0.00  0.00     0.076 C 
BRANCH  11  12
HETATM   12  S           1     -15.874 -10.678  -2.403  0.00  0.00    -0.173 SA
HETATM   13  C           1     -15.683 -10.919  -4.192  0.00  0.00     0.089 C 
ENDBRANCH  11  12
ENDBRANCH  10  11
ENDBRANCH   5  10
ENDBRANCH   4   5
BRANCH   3  14
HETATM   14  C           1     -21.813  -7.794  -2.001  0.00  0.00     0.189 C 
BRANCH  14  15
HETATM   15  C           1     -21.743  -7.744  -0.479  0.00  0.00     0.014 C 
HETATM   16  C           1     -23.143  -7.905   0.098  0.00  0.00     0.012 C 
BRANCH  15  17
HETATM   17  C           1     -20.853  -8.873   0.023  0.00  0.00     0.002 C 
HETATM   18  C           1     -20.871  -8.896   1.546  0.00  0.00     0.005 C 
ENDBRANCH  15  17
ENDBRANCH  14  15
BRANCH  14  19
HETATM   19  C           1     -22.045  -6.403  -2.540  0.00  0.00     0.197 C 
HETATM   20  O           1     -22.329  -6.240  -3.746  0.00  0.00    -0.646 OA
HETATM   21  O           1     -21.955  -5.415  -1.779  0.00  0.00    -0.646 OA
ENDBRANCH  14  19
ENDBRANCH   3  14
TORSDOF 9
ENDMDL
