MODEL 1
REMARK VINA RESULT:      -7.1      0.000      0.000
REMARK  8 active torsions:
REMARK  status: ('A' for Active; 'I' for Inactive)
REMARK    1  A    between atoms: N_2  and  C_13 
REMARK       I    between atoms: N_4  and  C_15 
REMARK    2  A    between atoms: N_11  and  C_24 
REMARK       I    between atoms: N_11  and  C_12 
REMARK    3  A    between atoms: C_12  and  C_13 
REMARK    4  A    between atoms: C_13  and  C_14 
REMARK    5  A    between atoms: C_14  and  C_15 
REMARK    6  A    between atoms: C_20  and  C_24 
REMARK    7  A    between atoms: C_24  and  C_25 
REMARK    8  A    between atoms: C_25  and  C_26 
ROOT
HETATM    1  H           1     -33.820  -1.704 -12.896  0.00  0.00     0.163 HD
HETATM    2  N           1     -34.699  -1.441 -12.469  0.00  0.00    -0.344 N 
HETATM    3  C           1     -35.366  -0.328 -12.908  0.00  0.00     0.249 C 
HETATM    4  O           1     -35.147   0.747 -12.401  0.00  0.00    -0.271 OA
ENDROOT
BRANCH   2   5
HETATM    5  C           1     -35.252  -2.242 -11.395  0.00  0.00     0.191 C 
BRANCH   5   6
HETATM    6  C           1     -36.220  -1.408 -10.594  0.00  0.00     0.197 C 
HETATM    7  O           1     -35.809  -0.723  -9.631  0.00  0.00    -0.646 OA
HETATM    8  O           1     -37.434  -1.400 -10.891  0.00  0.00    -0.646 OA
ENDBRANCH   5   6
BRANCH   5   9
HETATM    9  C           1     -34.125  -2.723 -10.490  0.00  0.00     0.094 C 
BRANCH   9  10
HETATM   10  C           1     -33.824  -4.159 -10.787  0.00  0.00     0.028 A 
HETATM   11  N           1     -34.505  -5.223 -10.257  0.00  0.00    -0.354 N 
HETATM   12  C           1     -33.933  -6.290 -10.767  0.00  0.00     0.180 A 
ATOM     13  HN          1     -35.289  -5.194  -9.605  1.00  0.00     0.166 HD
HETATM   14  N           1     -32.907  -5.954 -11.605  0.00  0.00    -0.360 N 
HETATM   15  H           1     -32.295  -6.623 -12.134  0.00  0.00     0.166 HD
HETATM   16  C           1     -32.825  -4.590 -11.628  0.00  0.00     0.114 A 
ENDBRANCH   9  10
ENDBRANCH   5   9
ENDBRANCH   2   5
BRANCH   3  17
HETATM   17  C           1     -36.377  -0.445 -14.022  0.00  0.00     0.283 C 
BRANCH  17  18
HETATM   18  N           1     -37.642   0.258 -13.626  0.00  0.00    -0.066 N 
HETATM   19  H           1     -37.568   1.272 -13.868  0.00  0.00     0.275 HD
HETATM   20  H           1     -38.449  -0.164 -14.137  0.00  0.00     0.275 HD
HETATM   21  H           1     -37.788   0.155 -12.596  0.00  0.00     0.275 HD
ENDBRANCH  17  18
BRANCH  17  22
HETATM   22  C           1     -35.816   0.194 -15.286  0.00  0.00     0.145 C 
BRANCH  22  23
HETATM   23  C           1     -35.885  -0.795 -16.423  0.00  0.00     0.217 C 
HETATM   24  O           1     -36.822  -0.775 -17.185  0.00  0.00    -0.274 OA
HETATM   25  N           1     -34.885  -1.716 -16.592  0.00  0.00    -0.370 N 
HETATM   26  H           1     -34.931  -2.380 -17.355  0.00  0.00     0.159 HD
HETATM   27  H           1     -34.100  -1.732 -15.954  0.00  0.00     0.159 HD
ENDBRANCH  22  23
ENDBRANCH  17  22
ENDBRANCH   3  17
TORSDOF 8
ENDMDL
MODEL 2
REMARK VINA RESULT:      -6.9      2.344      3.407
REMARK  8 active torsions:
REMARK  status: ('A' for Active; 'I' for Inactive)
REMARK    1  A    between atoms: N_2  and  C_13 
REMARK       I    between atoms: N_4  and  C_15 
REMARK    2  A    between atoms: N_11  and  C_24 
REMARK       I    between atoms: N_11  and  C_12 
REMARK    3  A    between atoms: C_12  and  C_13 
REMARK    4  A    between atoms: C_13  and  C_14 
REMARK    5  A    between atoms: C_14  and  C_15 
REMARK    6  A    between atoms: C_20  and  C_24 
REMARK    7  A    between atoms: C_24  and  C_25 
REMARK    8  A    between atoms: C_25  and  C_26 
ROOT
HETATM    1  H           1     -32.564  -2.474 -12.226  0.00  0.00     0.163 HD
HETATM    2  N           1     -33.347  -2.855 -11.712  0.00  0.00    -0.344 N 
HETATM    3  C           1     -34.109  -2.038 -10.921  0.00  0.00     0.249 C 
HETATM    4  O           1     -33.817  -1.876  -9.760  0.00  0.00    -0.271 OA
ENDROOT
BRANCH   2   5
HETATM    5  C           1     -33.661  -4.266 -11.812  0.00  0.00     0.191 C 
BRANCH   5   6
HETATM    6  C           1     -34.448  -4.517 -13.074  0.00  0.00     0.197 C 
HETATM    7  O           1     -34.369  -3.715 -14.031  0.00  0.00    -0.646 OA
HETATM    8  O           1     -35.180  -5.527 -13.165  0.00  0.00    -0.646 OA
ENDBRANCH   5   6
BRANCH   5   9
HETATM    9  C           1     -34.488  -4.690 -10.605  0.00  0.00     0.094 C 
BRANCH   9  10
HETATM   10  C           1     -34.319  -6.159 -10.373  0.00  0.00     0.028 A 
HETATM   11  N           1     -33.311  -6.920 -10.904  0.00  0.00    -0.354 N 
HETATM   12  C           1     -33.525  -8.137 -10.460  0.00  0.00     0.180 A 
ATOM     13  HN          1     -32.555  -6.608 -11.514  1.00  0.00     0.166 HD
HETATM   14  N           1     -34.635  -8.191  -9.663  0.00  0.00    -0.360 N 
HETATM   15  H           1     -35.017  -9.046  -9.189  0.00  0.00     0.166 HD
HETATM   16  C           1     -35.155  -6.928  -9.598  0.00  0.00     0.114 A 
ENDBRANCH   9  10
ENDBRANCH   5   9
ENDBRANCH   2   5
BRANCH   3  17
HETATM   17  C           1     -35.317  -1.341 -11.498  0.00  0.00     0.283 C 
BRANCH  17  18
HETATM   18  N           1     -35.991  -0.538 -10.426  0.00  0.00    -0.066 N 
HETATM   19  H           1     -36.153   0.436 -10.770  0.00  0.00     0.275 HD
HETATM   20  H           1     -36.908  -0.978 -10.185  0.00  0.00     0.275 HD
HETATM   21  H           1     -35.382  -0.512  -9.577  0.00  0.00     0.275 HD
ENDBRANCH  17  18
BRANCH  17  22
HETATM   22  C           1     -34.879  -0.417 -12.626  0.00  0.00     0.145 C 
BRANCH  22  23
HETATM   23  C           1     -36.046  -0.159 -13.548  0.00  0.00     0.217 C 
HETATM   24  O           1     -37.038  -0.845 -13.473  0.00  0.00    -0.274 OA
HETATM   25  N           1     -35.980   0.851 -14.470  0.00  0.00    -0.370 N 
HETATM   26  H           1     -36.763   1.024 -15.088  0.00  0.00     0.159 HD
HETATM   27  H           1     -35.149   1.425 -14.533  0.00  0.00     0.159 HD
ENDBRANCH  22  23
ENDBRANCH  17  22
ENDBRANCH   3  17
TORSDOF 8
ENDMDL
MODEL 3
REMARK VINA RESULT:      -6.2     13.766     16.490
REMARK  8 active torsions:
REMARK  status: ('A' for Active; 'I' for Inactive)
REMARK    1  A    between atoms: N_2  and  C_13 
REMARK       I    between atoms: N_4  and  C_15 
REMARK    2  A    between atoms: N_11  and  C_24 
REMARK       I    between atoms: N_11  and  C_12 
REMARK    3  A    between atoms: C_12  and  C_13 
REMARK    4  A    between atoms: C_13  and  C_14 
REMARK    5  A    between atoms: C_14  and  C_15 
REMARK    6  A    between atoms: C_20  and  C_24 
REMARK    7  A    between atoms: C_24  and  C_25 
REMARK    8  A    between atoms: C_25  and  C_26 
ROOT
HETATM    1  H           1     -22.998  -4.474  -5.925  0.00  0.00     0.163 HD
HETATM    2  N           1     -22.183  -4.996  -6.223  0.00  0.00    -0.344 N 
HETATM    3  C           1     -21.387  -5.610  -5.293  0.00  0.00     0.249 C 
HETATM    4  O           1     -20.454  -5.015  -4.809  0.00  0.00    -0.271 OA
ENDROOT
BRANCH   2   5
HETATM    5  C           1     -21.859  -5.092  -7.632  0.00  0.00     0.191 C 
BRANCH   5   6
HETATM    6  C           1     -20.361  -5.063  -7.807  0.00  0.00     0.197 C 
HETATM    7  O           1     -19.718  -6.134  -7.866  0.00  0.00    -0.646 OA
HETATM    8  O           1     -19.763  -3.969  -7.893  0.00  0.00    -0.646 OA
ENDBRANCH   5   6
BRANCH   5   9
HETATM    9  C           1     -22.481  -3.918  -8.377  0.00  0.00     0.094 C 
BRANCH   9  10
HETATM   10  C           1     -22.435  -4.179  -9.850  0.00  0.00     0.028 A 
HETATM   11  N           1     -21.415  -3.791 -10.679  0.00  0.00    -0.354 N 
HETATM   12  C           1     -21.761  -4.210 -11.874  0.00  0.00     0.180 A 
ATOM     13  HN          1     -20.568  -3.285 -10.421  1.00  0.00     0.166 HD
HETATM   14  N           1     -22.967  -4.853 -11.850  0.00  0.00    -0.360 N 
HETATM   15  H           1     -23.461  -5.277 -12.673  0.00  0.00     0.166 HD
HETATM   16  C           1     -23.412  -4.841 -10.557  0.00  0.00     0.114 A 
ENDBRANCH   9  10
ENDBRANCH   5   9
ENDBRANCH   2   5
BRANCH   3  17
HETATM   17  C           1     -21.674  -7.031  -4.875  0.00  0.00     0.283 C 
BRANCH  17  18
HETATM   18  N           1     -21.264  -7.968  -5.972  0.00  0.00    -0.066 N 
HETATM   19  H           1     -20.227  -8.095  -5.953  0.00  0.00     0.275 HD
HETATM   20  H           1     -21.731  -8.892  -5.833  0.00  0.00     0.275 HD
HETATM   21  H           1     -21.549  -7.568  -6.895  0.00  0.00     0.275 HD
ENDBRANCH  17  18
BRANCH  17  22
HETATM   22  C           1     -20.891  -7.357  -3.610  0.00  0.00     0.145 C 
BRANCH  22  23
HETATM   23  C           1     -21.763  -7.116  -2.402  0.00  0.00     0.217 C 
HETATM   24  O           1     -21.994  -8.020  -1.635  0.00  0.00    -0.274 OA
HETATM   25  N           1     -22.292  -5.873  -2.176  0.00  0.00    -0.370 N 
HETATM   26  H           1     -22.878  -5.712  -1.366  0.00  0.00     0.159 HD
HETATM   27  H           1     -22.099  -5.116  -2.819  0.00  0.00     0.159 HD
ENDBRANCH  22  23
ENDBRANCH  17  22
ENDBRANCH   3  17
TORSDOF 8
ENDMDL
MODEL 4
REMARK VINA RESULT:      -6.1     13.735     16.837
REMARK  8 active torsions:
REMARK  status: ('A' for Active; 'I' for Inactive)
REMARK    1  A    between atoms: N_2  and  C_13 
REMARK       I    between atoms: N_4  and  C_15 
REMARK    2  A    between atoms: N_11  and  C_24 
REMARK       I    between atoms: N_11  and  C_12 
REMARK    3  A    between atoms: C_12  and  C_13 
REMARK    4  A    between atoms: C_13  and  C_14 
REMARK    5  A    between atoms: C_14  and  C_15 
REMARK    6  A    between atoms: C_20  and  C_24 
REMARK    7  A    between atoms: C_24  and  C_25 
REMARK    8  A    between atoms: C_25  and  C_26 
ROOT
HETATM    1  H           1     -21.911  -7.834  -6.587  0.00  0.00     0.163 HD
HETATM    2  N           1     -21.823  -6.865  -6.311  0.00  0.00    -0.344 N 
HETATM    3  C           1     -22.287  -6.457  -5.089  0.00  0.00     0.249 C 
HETATM    4  O           1     -23.425  -6.070  -4.972  0.00  0.00    -0.271 OA
ENDROOT
BRANCH   2   5
HETATM    5  C           1     -21.207  -5.909  -7.209  0.00  0.00     0.191 C 
BRANCH   5   6
HETATM    6  C           1     -19.721  -5.862  -6.951  0.00  0.00     0.197 C 
HETATM    7  O           1     -19.083  -6.923  -6.776  0.00  0.00    -0.646 OA
HETATM    8  O           1     -19.128  -4.763  -6.912  0.00  0.00    -0.646 OA
ENDBRANCH   5   6
BRANCH   5   9
HETATM    9  C           1     -21.808  -4.529  -6.972  0.00  0.00     0.094 C 
BRANCH   9  10
HETATM   10  C           1     -22.591  -4.111  -8.178  0.00  0.00     0.028 A 
HETATM   11  N           1     -23.959  -4.034  -8.230  0.00  0.00    -0.354 N 
HETATM   12  C           1     -24.237  -3.634  -9.449  0.00  0.00     0.180 A 
ATOM     13  HN          1     -24.619  -4.244  -7.481  1.00  0.00     0.166 HD
HETATM   14  N           1     -23.101  -3.451 -10.187  0.00  0.00    -0.360 N 
HETATM   15  H           1     -23.055  -3.136 -11.187  0.00  0.00     0.166 HD
HETATM   16  C           1     -22.037  -3.753  -9.384  0.00  0.00     0.114 A 
ENDBRANCH   9  10
ENDBRANCH   5   9
ENDBRANCH   2   5
BRANCH   3  17
HETATM   17  C           1     -21.374  -6.487  -3.887  0.00  0.00     0.283 C 
BRANCH  17  18
HETATM   18  N           1     -22.165  -6.184  -2.650  0.00  0.00    -0.066 N 
HETATM   19  H           1     -23.181  -6.344  -2.838  0.00  0.00     0.275 HD
HETATM   20  H           1     -21.852  -6.809  -1.874  0.00  0.00     0.275 HD
HETATM   21  H           1     -22.014  -5.186  -2.377  0.00  0.00     0.275 HD
ENDBRANCH  17  18
BRANCH  17  22
HETATM   22  C           1     -20.745  -7.868  -3.762  0.00  0.00     0.145 C 
BRANCH  22  23
HETATM   23  C           1     -20.971  -8.400  -2.369  0.00  0.00     0.217 C 
HETATM   24  O           1     -20.320  -7.972  -1.445  0.00  0.00    -0.274 OA
HETATM   25  N           1     -21.915  -9.369  -2.150  0.00  0.00    -0.370 N 
HETATM   26  H           1     -22.067  -9.726  -1.215  0.00  0.00     0.159 HD
HETATM   27  H           1     -22.460  -9.727  -2.923  0.00  0.00     0.159 HD
ENDBRANCH  22  23
ENDBRANCH  17  22
ENDBRANCH   3  17
TORSDOF 8
ENDMDL
MODEL 5
REMARK VINA RESULT:      -6.0     15.559     17.513
REMARK  8 active torsions:
REMARK  status: ('A' for Active; 'I' for Inactive)
REMARK    1  A    between atoms: N_2  and  C_13 
REMARK       I    between atoms: N_4  and  C_15 
REMARK    2  A    between atoms: N_11  and  C_24 
REMARK       I    between atoms: N_11  and  C_12 
REMARK    3  A    between atoms: C_12  and  C_13 
REMARK    4  A    between atoms: C_13  and  C_14 
REMARK    5  A    between atoms: C_14  and  C_15 
REMARK    6  A    between atoms: C_20  and  C_24 
REMARK    7  A    between atoms: C_24  and  C_25 
REMARK    8  A    between atoms: C_25  and  C_26 
ROOT
HETATM    1  H           1     -21.261  -5.619  -2.532  0.00  0.00     0.163 HD
HETATM    2  N           1     -21.425  -6.413  -3.138  0.00  0.00    -0.344 N 
HETATM    3  C           1     -21.663  -6.217  -4.473  0.00  0.00     0.249 C 
HETATM    4  O           1     -22.794  -6.066  -4.869  0.00  0.00    -0.271 OA
ENDROOT
BRANCH   2   5
HETATM    5  C           1     -21.408  -7.756  -2.594  0.00  0.00     0.191 C 
BRANCH   5   6
HETATM    6  C           1     -22.050  -7.753  -1.229  0.00  0.00     0.197 C 
HETATM    7  O           1     -22.705  -6.758  -0.848  0.00  0.00    -0.646 OA
HETATM    8  O           1     -21.927  -8.745  -0.478  0.00  0.00    -0.646 OA
ENDBRANCH   5   6
BRANCH   5   9
HETATM    9  C           1     -19.968  -8.239  -2.479  0.00  0.00     0.094 C 
BRANCH   9  10
HETATM   10  C           1     -19.647  -9.136  -3.633  0.00  0.00     0.028 A 
HETATM   11  N           1     -20.581  -9.782  -4.400  0.00  0.00    -0.354 N 
HETATM   12  C           1     -19.891 -10.456  -5.292  0.00  0.00     0.180 A 
ATOM     13  HN          1     -21.596  -9.747  -4.300  1.00  0.00     0.166 HD
HETATM   14  N           1     -18.547 -10.270  -5.128  0.00  0.00    -0.360 N 
HETATM   15  H           1     -17.786 -10.699  -5.711  0.00  0.00     0.166 HD
HETATM   16  C           1     -18.375  -9.426  -4.067  0.00  0.00     0.114 A 
ENDBRANCH   9  10
ENDBRANCH   5   9
ENDBRANCH   2   5
BRANCH   3  17
HETATM   17  C           1     -20.512  -6.192  -5.449  0.00  0.00     0.283 C 
BRANCH  17  18
HETATM   18  N           1     -20.890  -6.948  -6.687  0.00  0.00    -0.066 N 
HETATM   19  H           1     -20.587  -6.410  -7.531  0.00  0.00     0.275 HD
HETATM   20  H           1     -20.420  -7.881  -6.682  0.00  0.00     0.275 HD
HETATM   21  H           1     -21.927  -7.079  -6.711  0.00  0.00     0.275 HD
ENDBRANCH  17  18
BRANCH  17  22
HETATM   22  C           1     -20.187  -4.750  -5.814  0.00  0.00     0.145 C 
BRANCH  22  23
HETATM   23  C           1     -20.825  -4.409  -7.138  0.00  0.00     0.217 C 
HETATM   24  O           1     -20.239  -4.642  -8.168  0.00  0.00    -0.274 OA
HETATM   25  N           1     -22.068  -3.836  -7.172  0.00  0.00    -0.370 N 
HETATM   26  H           1     -22.496  -3.607  -8.060  0.00  0.00     0.159 HD
HETATM   27  H           1     -22.559  -3.641  -6.309  0.00  0.00     0.159 HD
ENDBRANCH  22  23
ENDBRANCH  17  22
ENDBRANCH   3  17
TORSDOF 8
ENDMDL
MODEL 6
REMARK VINA RESULT:      -5.9     16.366     18.069
REMARK  8 active torsions:
REMARK  status: ('A' for Active; 'I' for Inactive)
REMARK    1  A    between atoms: N_2  and  C_13 
REMARK       I    between atoms: N_4  and  C_15 
REMARK    2  A    between atoms: N_11  and  C_24 
REMARK       I    between atoms: N_11  and  C_12 
REMARK    3  A    between atoms: C_12  and  C_13 
REMARK    4  A    between atoms: C_13  and  C_14 
REMARK    5  A    between atoms: C_14  and  C_15 
REMARK    6  A    between atoms: C_20  and  C_24 
REMARK    7  A    between atoms: C_24  and  C_25 
REMARK    8  A    between atoms: C_25  and  C_26 
ROOT
HETATM    1  H           1     -20.013  -7.082  -1.911  0.00  0.00     0.163 HD
HETATM    2  N           1     -20.936  -7.386  -2.194  0.00  0.00    -0.344 N 
HETATM    3  C           1     -21.743  -6.544  -2.913  0.00  0.00     0.249 C 
HETATM    4  O           1     -22.498  -5.795  -2.340  0.00  0.00    -0.271 OA
ENDROOT
BRANCH   2   5
HETATM    5  C           1     -21.403  -8.711  -1.839  0.00  0.00     0.191 C 
BRANCH   5   6
HETATM    6  C           1     -21.782  -8.736  -0.380  0.00  0.00     0.197 C 
HETATM    7  O           1     -22.880  -8.264  -0.011  0.00  0.00    -0.646 OA
HETATM    8  O           1     -21.000  -9.228   0.462  0.00  0.00    -0.646 OA
ENDBRANCH   5   6
BRANCH   5   9
HETATM    9  C           1     -20.295  -9.724  -2.094  0.00  0.00     0.094 C 
BRANCH   9  10
HETATM   10  C           1     -19.873  -9.654  -3.529  0.00  0.00     0.028 A 
HETATM   11  N           1     -18.653  -9.201  -3.960  0.00  0.00    -0.354 N 
HETATM   12  C           1     -18.689  -9.304  -5.269  0.00  0.00     0.180 A 
ATOM     13  HN          1     -17.882  -8.858  -3.387  1.00  0.00     0.166 HD
HETATM   14  N           1     -19.886  -9.804  -5.699  0.00  0.00    -0.360 N 
HETATM   15  H           1     -20.162  -9.979  -6.697  0.00  0.00     0.166 HD
HETATM   16  C           1     -20.656 -10.034  -4.593  0.00  0.00     0.114 A 
ENDBRANCH   9  10
ENDBRANCH   5   9
ENDBRANCH   2   5
BRANCH   3  17
HETATM   17  C           1     -21.691  -6.555  -4.421  0.00  0.00     0.283 C 
BRANCH  17  18
HETATM   18  N           1     -23.036  -6.182  -4.970  0.00  0.00    -0.066 N 
HETATM   19  H           1     -23.776  -6.418  -4.271  0.00  0.00     0.275 HD
HETATM   20  H           1     -23.059  -5.156  -5.169  0.00  0.00     0.275 HD
HETATM   21  H           1     -23.210  -6.712  -5.854  0.00  0.00     0.275 HD
ENDBRANCH  17  18
BRANCH  17  22
HETATM   22  C           1     -20.651  -5.552  -4.901  0.00  0.00     0.145 C 
BRANCH  22  23
HETATM   23  C           1     -20.262  -5.871  -6.324  0.00  0.00     0.217 C 
HETATM   24  O           1     -20.650  -6.892  -6.841  0.00  0.00    -0.274 OA
HETATM   25  N           1     -19.470  -5.004  -7.028  0.00  0.00    -0.370 N 
HETATM   26  H           1     -19.210  -5.218  -7.983  0.00  0.00     0.159 HD
HETATM   27  H           1     -19.146  -4.149  -6.595  0.00  0.00     0.159 HD
ENDBRANCH  22  23
ENDBRANCH  17  22
ENDBRANCH   3  17
TORSDOF 8
ENDMDL
MODEL 7
REMARK VINA RESULT:      -5.8     16.595     18.147
REMARK  8 active torsions:
REMARK  status: ('A' for Active; 'I' for Inactive)
REMARK    1  A    between atoms: N_2  and  C_13 
REMARK       I    between atoms: N_4  and  C_15 
REMARK    2  A    between atoms: N_11  and  C_24 
REMARK       I    between atoms: N_11  and  C_12 
REMARK    3  A    between atoms: C_12  and  C_13 
REMARK    4  A    between atoms: C_13  and  C_14 
REMARK    5  A    between atoms: C_14  and  C_15 
REMARK    6  A    between atoms: C_20  and  C_24 
REMARK    7  A    between atoms: C_24  and  C_25 
REMARK    8  A    between atoms: C_25  and  C_26 
ROOT
HETATM    1  H           1     -20.163  -7.710  -1.737  0.00  0.00     0.163 HD
HETATM    2  N           1     -21.160  -7.710  -1.910  0.00  0.00    -0.344 N 
HETATM    3  C           1     -21.697  -6.829  -2.811  0.00  0.00     0.249 C 
HETATM    4  O           1     -22.067  -5.739  -2.444  0.00  0.00    -0.271 OA
ENDROOT
BRANCH   2   5
HETATM    5  C           1     -22.018  -8.640  -1.205  0.00  0.00     0.191 C 
BRANCH   5   6
HETATM    6  C           1     -22.341  -8.089   0.162  0.00  0.00     0.197 C 
HETATM    7  O           1     -21.493  -8.156   1.079  0.00  0.00    -0.646 OA
HETATM    8  O           1     -23.454  -7.565   0.379  0.00  0.00    -0.646 OA
ENDBRANCH   5   6
BRANCH   5   9
HETATM    9  C           1     -21.305  -9.978  -1.059  0.00  0.00     0.094 C 
BRANCH   9  10
HETATM   10  C           1     -22.302 -11.042  -0.722  0.00  0.00     0.028 A 
HETATM   11  N           1     -22.269 -11.810   0.412  0.00  0.00    -0.354 N 
HETATM   12  C           1     -23.308 -12.609   0.321  0.00  0.00     0.180 A 
ATOM     13  HN          1     -21.584 -11.770   1.167  1.00  0.00     0.166 HD
HETATM   14  N           1     -24.010 -12.386  -0.831  0.00  0.00    -0.360 N 
HETATM   15  H           1     -24.876 -12.894  -1.137  0.00  0.00     0.166 HD
HETATM   16  C           1     -23.376 -11.384  -1.511  0.00  0.00     0.114 A 
ENDBRANCH   9  10
ENDBRANCH   5   9
ENDBRANCH   2   5
BRANCH   3  17
HETATM   17  C           1     -21.829  -7.221  -4.262  0.00  0.00     0.283 C 
BRANCH  17  18
HETATM   18  N           1     -22.704  -6.229  -4.971  0.00  0.00    -0.066 N 
HETATM   19  H           1     -23.386  -5.819  -4.293  0.00  0.00     0.275 HD
HETATM   20  H           1     -22.112  -5.468  -5.373  0.00  0.00     0.275 HD
HETATM   21  H           1     -23.223  -6.711  -5.740  0.00  0.00     0.275 HD
ENDBRANCH  17  18
BRANCH  17  22
HETATM   22  C           1     -20.452  -7.239  -4.911  0.00  0.00     0.145 C 
BRANCH  22  23
HETATM   23  C           1     -20.321  -6.063  -5.848  0.00  0.00     0.217 C 
HETATM   24  O           1     -20.253  -4.942  -5.403  0.00  0.00    -0.274 OA
HETATM   25  N           1     -20.281  -6.266  -7.201  0.00  0.00    -0.370 N 
HETATM   26  H           1     -20.193  -5.477  -7.830  0.00  0.00     0.159 HD
HETATM   27  H           1     -20.338  -7.205  -7.574  0.00  0.00     0.159 HD
ENDBRANCH  22  23
ENDBRANCH  17  22
ENDBRANCH   3  17
TORSDOF 8
ENDMDL
MODEL 8
REMARK VINA RESULT:      -5.8     13.240     16.011
REMARK  8 active torsions:
REMARK  status: ('A' for Active; 'I' for Inactive)
REMARK    1  A    between atoms: N_2  and  C_13 
REMARK       I    between atoms: N_4  and  C_15 
REMARK    2  A    between atoms: N_11  and  C_24 
REMARK       I    between atoms: N_11  and  C_12 
REMARK    3  A    between atoms: C_12  and  C_13 
REMARK    4  A    between atoms: C_13  and  C_14 
REMARK    5  A    between atoms: C_14  and  C_15 
REMARK    6  A    between atoms: C_20  and  C_24 
REMARK    7  A    between atoms: C_24  and  C_25 
REMARK    8  A    between atoms: C_25  and  C_26 
ROOT
HETATM    1  H           1     -21.423  -3.427  -5.707  0.00  0.00     0.163 HD
HETATM    2  N           1     -21.133  -4.032  -6.465  0.00  0.00    -0.344 N 
HETATM    3  C           1     -20.172  -4.984  -6.250  0.00  0.00     0.249 C 
HETATM    4  O           1     -19.007  -4.716  -6.424  0.00  0.00    -0.271 OA
ENDROOT
BRANCH   2   5
HETATM    5  C           1     -21.736  -3.893  -7.775  0.00  0.00     0.191 C 
BRANCH   5   6
HETATM    6  C           1     -23.213  -4.182  -7.682  0.00  0.00     0.197 C 
HETATM    7  O           1     -23.963  -3.926  -8.651  0.00  0.00    -0.646 OA
HETATM    8  O           1     -23.689  -4.679  -6.639  0.00  0.00    -0.646 OA
ENDBRANCH   5   6
BRANCH   5   9
HETATM    9  C           1     -21.084  -4.875  -8.740  0.00  0.00     0.094 C 
BRANCH   9  10
HETATM   10  C           1     -21.273  -4.394 -10.146  0.00  0.00     0.028 A 
HETATM   11  N           1     -22.327  -4.736 -10.951  0.00  0.00    -0.354 N 
HETATM   12  C           1     -22.114  -4.110 -12.086  0.00  0.00     0.180 A 
ATOM     13  HN          1     -23.110  -5.348 -10.719  1.00  0.00     0.166 HD
HETATM   14  N           1     -20.961  -3.377 -12.044  0.00  0.00    -0.360 N 
HETATM   15  H           1     -20.571  -2.790 -12.821  0.00  0.00     0.166 HD
HETATM   16  C           1     -20.410  -3.550 -10.804  0.00  0.00     0.114 A 
ENDBRANCH   9  10
ENDBRANCH   5   9
ENDBRANCH   2   5
BRANCH   3  17
HETATM   17  C           1     -20.568  -6.369  -5.799  0.00  0.00     0.283 C 
BRANCH  17  18
HETATM   18  N           1     -19.589  -7.369  -6.338  0.00  0.00    -0.066 N 
HETATM   19  H           1     -19.554  -8.199  -5.704  0.00  0.00     0.275 HD
HETATM   20  H           1     -19.890  -7.672  -7.292  0.00  0.00     0.275 HD
HETATM   21  H           1     -18.641  -6.932  -6.394  0.00  0.00     0.275 HD
ENDBRANCH  17  18
BRANCH  17  22
HETATM   22  C           1     -20.569  -6.427  -4.278  0.00  0.00     0.145 C 
BRANCH  22  23
HETATM   23  C           1     -21.982  -6.281  -3.769  0.00  0.00     0.217 C 
HETATM   24  O           1     -22.180  -5.975  -2.617  0.00  0.00    -0.274 OA
HETATM   25  N           1     -23.039  -6.497  -4.612  0.00  0.00    -0.370 N 
HETATM   26  H           1     -23.987  -6.399  -4.271  0.00  0.00     0.159 HD
HETATM   27  H           1     -22.873  -6.753  -5.577  0.00  0.00     0.159 HD
ENDBRANCH  22  23
ENDBRANCH  17  22
ENDBRANCH   3  17
TORSDOF 8
ENDMDL
MODEL 9
REMARK VINA RESULT:      -5.7     16.436     18.838
REMARK  8 active torsions:
REMARK  status: ('A' for Active; 'I' for Inactive)
REMARK    1  A    between atoms: N_2  and  C_13 
REMARK       I    between atoms: N_4  and  C_15 
REMARK    2  A    between atoms: N_11  and  C_24 
REMARK       I    between atoms: N_11  and  C_12 
REMARK    3  A    between atoms: C_12  and  C_13 
REMARK    4  A    between atoms: C_13  and  C_14 
REMARK    5  A    between atoms: C_14  and  C_15 
REMARK    6  A    between atoms: C_20  and  C_24 
REMARK    7  A    between atoms: C_24  and  C_25 
REMARK    8  A    between atoms: C_25  and  C_26 
ROOT
HETATM    1  H           1     -19.244  -9.782  -2.851  0.00  0.00     0.163 HD
HETATM    2  N           1     -20.194  -9.907  -3.174  0.00  0.00    -0.344 N 
HETATM    3  C           1     -21.153 -10.373  -2.316  0.00  0.00     0.249 C 
HETATM    4  O           1     -21.353 -11.561  -2.219  0.00  0.00    -0.271 OA
ENDROOT
BRANCH   2   5
HETATM    5  C           1     -20.540  -9.592  -4.546  0.00  0.00     0.191 C 
BRANCH   5   6
HETATM    6  C           1     -20.258 -10.787  -5.422  0.00  0.00     0.197 C 
HETATM    7  O           1     -20.910 -10.957  -6.477  0.00  0.00    -0.646 OA
HETATM    8  O           1     -19.374 -11.608  -5.096  0.00  0.00    -0.646 OA
ENDBRANCH   5   6
BRANCH   5   9
HETATM    9  C           1     -19.708  -8.407  -5.020  0.00  0.00     0.094 C 
BRANCH   9  10
HETATM   10  C           1     -20.607  -7.241  -5.291  0.00  0.00     0.028 A 
HETATM   11  N           1     -20.199  -6.056  -5.845  0.00  0.00    -0.354 N 
HETATM   12  C           1     -21.281  -5.314  -5.911  0.00  0.00     0.180 A 
ATOM     13  HN          1     -19.257  -5.804  -6.143  1.00  0.00     0.166 HD
HETATM   14  N           1     -22.371  -5.975  -5.419  0.00  0.00    -0.360 N 
HETATM   15  H           1     -23.350  -5.600  -5.360  0.00  0.00     0.166 HD
HETATM   16  C           1     -21.954  -7.214  -5.017  0.00  0.00     0.114 A 
ENDBRANCH   9  10
ENDBRANCH   5   9
ENDBRANCH   2   5
BRANCH   3  17
HETATM   17  C           1     -21.964  -9.403  -1.491  0.00  0.00     0.283 C 
BRANCH  17  18
HETATM   18  N           1     -22.117  -9.937  -0.098  0.00  0.00    -0.066 N 
HETATM   19  H           1     -21.253  -9.728   0.452  0.00  0.00     0.275 HD
HETATM   20  H           1     -22.939  -9.483   0.361  0.00  0.00     0.275 HD
HETATM   21  H           1     -22.265 -10.971  -0.136  0.00  0.00     0.275 HD
ENDBRANCH  17  18
BRANCH  17  22
HETATM   22  C           1     -21.253  -8.058  -1.445  0.00  0.00     0.145 C 
BRANCH  22  23
HETATM   23  C           1     -22.251  -6.971  -1.127  0.00  0.00     0.217 C 
HETATM   24  O           1     -23.046  -7.126  -0.231  0.00  0.00    -0.274 OA
HETATM   25  N           1     -22.256  -5.811  -1.855  0.00  0.00    -0.370 N 
HETATM   26  H           1     -22.925  -5.082  -1.641  0.00  0.00     0.159 HD
HETATM   27  H           1     -21.590  -5.682  -2.605  0.00  0.00     0.159 HD
ENDBRANCH  22  23
ENDBRANCH  17  22
ENDBRANCH   3  17
TORSDOF 8
ENDMDL
