MODEL 1
REMARK VINA RESULT:      -6.5      0.000      0.000
REMARK  10 active torsions:
REMARK  status: ('A' for Active; 'I' for Inactive)
REMARK    1  A    between atoms: C_5  and  C_6 
REMARK    2  A    between atoms: C_5  and  C_24 
REMARK    3  A    between atoms: C_6  and  C_7 
REMARK    4  A    between atoms: C_7  and  N_8 
REMARK    5  A    between atoms: C_9  and  C_26 
REMARK    6  A    between atoms: C_9  and  C_17 
REMARK    7  A    between atoms: N_14  and  C_26 
REMARK    8  A    between atoms: C_19  and  C_24 
REMARK    9  A    between atoms: C_24  and  N_28 
REMARK       I    between atoms: C_25  and  N_28 
REMARK   10  A    between atoms: C_25  and  C_26 
ROOT
HETATM    1  O           1     -24.481  -6.574 -18.489  0.00  0.00    -0.271 OA
HETATM    2  H           1     -27.602  -6.901 -18.549  0.00  0.00     0.163 HD
HETATM    3  C           1     -25.563  -6.910 -18.909  0.00  0.00     0.249 C 
HETATM    4  N           1     -26.696  -6.620 -18.197  0.00  0.00    -0.345 N 
ENDROOT
BRANCH   3   5
HETATM    5  C           1     -25.666  -7.649 -20.220  0.00  0.00     0.280 C 
BRANCH   5   6
HETATM    6  C           1     -24.791  -6.963 -21.261  0.00  0.00     0.101 C 
BRANCH   6   7
HETATM    7  C           1     -23.651  -7.861 -21.627  0.00  0.00     0.028 A 
HETATM    8  N           1     -22.725  -8.345 -20.739  0.00  0.00    -0.355 N 
HETATM    9  C           1     -21.908  -9.082 -21.457  0.00  0.00     0.180 A 
ATOM     10  HN          1     -22.679  -8.170 -19.735  1.00  0.00     0.166 HD
HETATM   11  N           1     -22.272  -9.093 -22.773  0.00  0.00    -0.360 N 
HETATM   12  C           1     -23.389  -8.314 -22.898  0.00  0.00     0.114 A 
HETATM   13  H           1     -21.783  -9.606 -23.547  0.00  0.00     0.166 HD
ENDBRANCH   6   7
ENDBRANCH   5   6
BRANCH   5  14
HETATM   14  N           1     -27.092  -7.644 -20.686  0.00  0.00    -0.066 N 
HETATM   15  H           1     -27.252  -8.452 -21.329  0.00  0.00     0.275 HD
HETATM   16  H           1     -27.728  -7.726 -19.860  0.00  0.00     0.275 HD
HETATM   17  H           1     -27.291  -6.752 -21.192  0.00  0.00     0.275 HD
ENDBRANCH   5  14
ENDBRANCH   3   5
BRANCH   4  18
HETATM   18  C           1     -26.596  -5.910 -16.937  0.00  0.00     0.185 C 
BRANCH  18  19
HETATM   19  C           1     -27.797  -4.987 -16.777  0.00  0.00     0.038 C 
BRANCH  19  20
HETATM   20  C           1     -28.736  -5.164 -17.963  0.00  0.00     0.030 C 
BRANCH  20  21
HETATM   21  C           1     -30.152  -5.410 -17.459  0.00  0.00     0.230 C 
BRANCH  21  22
HETATM   22  N           1     -30.117  -5.684 -15.985  0.00  0.00    -0.079 N 
HETATM   23  H           1     -30.237  -6.710 -15.819  0.00  0.00     0.274 HD
HETATM   24  H           1     -29.200  -5.373 -15.595  0.00  0.00     0.274 HD
HETATM   25  H           1     -30.891  -5.163 -15.515  0.00  0.00     0.274 HD
ENDBRANCH  21  22
ENDBRANCH  20  21
ENDBRANCH  19  20
ENDBRANCH  18  19
BRANCH  18  26
HETATM   26  C           1     -26.572  -6.903 -15.801  0.00  0.00     0.196 C 
HETATM   27  O           1     -27.644  -7.350 -15.338  0.00  0.00    -0.646 OA
HETATM   28  O           1     -25.480  -7.279 -15.322  0.00  0.00    -0.646 OA
ENDBRANCH  18  26
ENDBRANCH   4  18
TORSDOF 10
ENDMDL
MODEL 2
REMARK VINA RESULT:      -6.3     11.098     12.932
REMARK  10 active torsions:
REMARK  status: ('A' for Active; 'I' for Inactive)
REMARK    1  A    between atoms: C_5  and  C_6 
REMARK    2  A    between atoms: C_5  and  C_24 
REMARK    3  A    between atoms: C_6  and  C_7 
REMARK    4  A    between atoms: C_7  and  N_8 
REMARK    5  A    between atoms: C_9  and  C_26 
REMARK    6  A    between atoms: C_9  and  C_17 
REMARK    7  A    between atoms: N_14  and  C_26 
REMARK    8  A    between atoms: C_19  and  C_24 
REMARK    9  A    between atoms: C_24  and  N_28 
REMARK       I    between atoms: C_25  and  N_28 
REMARK   10  A    between atoms: C_25  and  C_26 
ROOT
HETATM    1  O           1     -33.890  -1.193 -11.189  0.00  0.00    -0.271 OA
HETATM    2  H           1     -36.153  -3.163 -12.109  0.00  0.00     0.163 HD
HETATM    3  C           1     -34.961  -1.540 -11.627  0.00  0.00     0.249 C 
HETATM    4  N           1     -35.256  -2.872 -11.742  0.00  0.00    -0.345 N 
ENDROOT
BRANCH   3   5
HETATM    5  C           1     -35.975  -0.505 -12.049  0.00  0.00     0.280 C 
BRANCH   5   6
HETATM    6  C           1     -35.364   0.404 -13.107  0.00  0.00     0.101 C 
BRANCH   6   7
HETATM    7  C           1     -35.791  -0.054 -14.466  0.00  0.00     0.028 A 
HETATM    8  N           1     -35.014  -0.797 -15.318  0.00  0.00    -0.355 N 
HETATM    9  C           1     -35.753  -0.981 -16.388  0.00  0.00     0.180 A 
ATOM     10  HN          1     -34.066  -1.135 -15.155  1.00  0.00     0.166 HD
HETATM   11  N           1     -36.975  -0.387 -16.260  0.00  0.00    -0.360 N 
HETATM   12  C           1     -37.015   0.213 -15.032  0.00  0.00     0.114 A 
HETATM   13  H           1     -37.744  -0.389 -16.976  0.00  0.00     0.166 HD
ENDBRANCH   6   7
ENDBRANCH   5   6
BRANCH   5  14
HETATM   14  N           1     -36.375   0.315 -10.858  0.00  0.00    -0.066 N 
HETATM   15  H           1     -37.226   0.875 -11.091  0.00  0.00     0.275 HD
HETATM   16  H           1     -36.586  -0.319 -10.054  0.00  0.00     0.275 HD
HETATM   17  H           1     -35.594   0.959 -10.599  0.00  0.00     0.275 HD
ENDBRANCH   5  14
ENDBRANCH   3   5
BRANCH   4  18
HETATM   18  C           1     -34.281  -3.867 -11.338  0.00  0.00     0.185 C 
BRANCH  18  19
HETATM   19  C           1     -34.992  -5.176 -11.022  0.00  0.00     0.038 C 
BRANCH  19  20
HETATM   20  C           1     -33.965  -6.230 -10.627  0.00  0.00     0.030 C 
BRANCH  20  21
HETATM   21  C           1     -34.680  -7.516 -10.238  0.00  0.00     0.230 C 
BRANCH  21  22
HETATM   22  N           1     -33.704  -8.654 -10.248  0.00  0.00    -0.079 N 
HETATM   23  H           1     -34.113  -9.470  -9.736  0.00  0.00     0.274 HD
HETATM   24  H           1     -33.501  -8.930 -11.235  0.00  0.00     0.274 HD
HETATM   25  H           1     -32.818  -8.359  -9.779  0.00  0.00     0.274 HD
ENDBRANCH  21  22
ENDBRANCH  20  21
ENDBRANCH  19  20
ENDBRANCH  18  19
BRANCH  18  26
HETATM   26  C           1     -33.295  -4.088 -12.459  0.00  0.00     0.196 C 
HETATM   27  O           1     -33.666  -3.980 -13.648  0.00  0.00    -0.646 OA
HETATM   28  O           1     -32.108  -4.382 -12.199  0.00  0.00    -0.646 OA
ENDBRANCH  18  26
ENDBRANCH   4  18
TORSDOF 10
ENDMDL
MODEL 3
REMARK VINA RESULT:      -6.2     11.166     14.734
REMARK  10 active torsions:
REMARK  status: ('A' for Active; 'I' for Inactive)
REMARK    1  A    between atoms: C_5  and  C_6 
REMARK    2  A    between atoms: C_5  and  C_24 
REMARK    3  A    between atoms: C_6  and  C_7 
REMARK    4  A    between atoms: C_7  and  N_8 
REMARK    5  A    between atoms: C_9  and  C_26 
REMARK    6  A    between atoms: C_9  and  C_17 
REMARK    7  A    between atoms: N_14  and  C_26 
REMARK    8  A    between atoms: C_19  and  C_24 
REMARK    9  A    between atoms: C_24  and  N_28 
REMARK       I    between atoms: C_25  and  N_28 
REMARK   10  A    between atoms: C_25  and  C_26 
ROOT
HETATM    1  O           1     -34.643  -0.523 -13.365  0.00  0.00    -0.271 OA
HETATM    2  H           1     -35.557  -2.711 -11.309  0.00  0.00     0.163 HD
HETATM    3  C           1     -35.300  -1.026 -12.484  0.00  0.00     0.249 C 
HETATM    4  N           1     -35.007  -2.289 -12.046  0.00  0.00    -0.345 N 
ENDROOT
BRANCH   3   5
HETATM    5  C           1     -36.444  -0.261 -11.866  0.00  0.00     0.280 C 
BRANCH   5   6
HETATM    6  C           1     -36.878  -0.948 -10.578  0.00  0.00     0.101 C 
BRANCH   6   7
HETATM    7  C           1     -36.938   0.058  -9.471  0.00  0.00     0.028 A 
HETATM    8  N           1     -36.135   0.042  -8.359  0.00  0.00    -0.355 N 
HETATM    9  C           1     -36.507   1.082  -7.648  0.00  0.00     0.180 A 
ATOM     10  HN          1     -35.405  -0.633  -8.133  1.00  0.00     0.166 HD
HETATM   11  N           1     -37.518   1.768  -8.258  0.00  0.00    -0.360 N 
HETATM   12  C           1     -37.806   1.123  -9.428  0.00  0.00     0.114 A 
HETATM   13  H           1     -37.988   2.633  -7.893  0.00  0.00     0.166 HD
ENDBRANCH   6   7
ENDBRANCH   5   6
BRANCH   5  14
HETATM   14  N           1     -37.597  -0.225 -12.826  0.00  0.00    -0.066 N 
HETATM   15  H           1     -38.294   0.485 -12.507  0.00  0.00     0.275 HD
HETATM   16  H           1     -37.250   0.031 -13.777  0.00  0.00     0.275 HD
HETATM   17  H           1     -38.050  -1.166 -12.861  0.00  0.00     0.275 HD
ENDBRANCH   5  14
ENDBRANCH   3   5
BRANCH   4  18
HETATM   18  C           1     -33.907  -3.024 -12.641  0.00  0.00     0.185 C 
BRANCH  18  19
HETATM   19  C           1     -33.219  -3.863 -11.572  0.00  0.00     0.038 C 
BRANCH  19  20
HETATM   20  C           1     -34.183  -4.106 -10.418  0.00  0.00     0.030 C 
BRANCH  20  21
HETATM   21  C           1     -34.348  -5.605 -10.201  0.00  0.00     0.230 C 
BRANCH  21  22
HETATM   22  N           1     -33.514  -6.350 -11.200  0.00  0.00    -0.079 N 
HETATM   23  H           1     -32.885  -7.018 -10.699  0.00  0.00     0.274 HD
HETATM   24  H           1     -34.139  -6.880 -11.848  0.00  0.00     0.274 HD
HETATM   25  H           1     -32.937  -5.672 -11.747  0.00  0.00     0.274 HD
ENDBRANCH  21  22
ENDBRANCH  20  21
ENDBRANCH  19  20
ENDBRANCH  18  19
BRANCH  18  26
HETATM   26  C           1     -34.437  -3.931 -13.725  0.00  0.00     0.196 C 
HETATM   27  O           1     -34.994  -5.008 -13.423  0.00  0.00    -0.646 OA
HETATM   28  O           1     -34.320  -3.604 -14.927  0.00  0.00    -0.646 OA
ENDBRANCH  18  26
ENDBRANCH   4  18
TORSDOF 10
ENDMDL
MODEL 4
REMARK VINA RESULT:      -5.9      1.797      2.375
REMARK  10 active torsions:
REMARK  status: ('A' for Active; 'I' for Inactive)
REMARK    1  A    between atoms: C_5  and  C_6 
REMARK    2  A    between atoms: C_5  and  C_24 
REMARK    3  A    between atoms: C_6  and  C_7 
REMARK    4  A    between atoms: C_7  and  N_8 
REMARK    5  A    between atoms: C_9  and  C_26 
REMARK    6  A    between atoms: C_9  and  C_17 
REMARK    7  A    between atoms: N_14  and  C_26 
REMARK    8  A    between atoms: C_19  and  C_24 
REMARK    9  A    between atoms: C_24  and  N_28 
REMARK       I    between atoms: C_25  and  N_28 
REMARK   10  A    between atoms: C_25  and  C_26 
ROOT
HETATM    1  O           1     -26.149  -5.657 -17.014  0.00  0.00    -0.271 OA
HETATM    2  H           1     -27.721  -6.984 -19.384  0.00  0.00     0.163 HD
HETATM    3  C           1     -26.315  -6.249 -18.054  0.00  0.00     0.249 C 
HETATM    4  N           1     -27.582  -6.488 -18.513  0.00  0.00    -0.345 N 
ENDROOT
BRANCH   3   5
HETATM    5  C           1     -25.123  -6.723 -18.849  0.00  0.00     0.280 C 
BRANCH   5   6
HETATM    6  C           1     -25.603  -7.460 -20.092  0.00  0.00     0.101 C 
BRANCH   6   7
HETATM    7  C           1     -24.426  -7.827 -20.942  0.00  0.00     0.028 A 
HETATM    8  N           1     -23.269  -8.389 -20.469  0.00  0.00    -0.355 N 
HETATM    9  C           1     -22.504  -8.549 -21.524  0.00  0.00     0.180 A 
ATOM     10  HN          1     -23.048  -8.633 -19.503  1.00  0.00     0.166 HD
HETATM   11  N           1     -23.123  -8.111 -22.660  0.00  0.00    -0.360 N 
HETATM   12  C           1     -24.357  -7.644 -22.303  0.00  0.00     0.114 A 
HETATM   13  H           1     -22.723  -8.129 -23.631  0.00  0.00     0.166 HD
ENDBRANCH   6   7
ENDBRANCH   5   6
BRANCH   5  14
HETATM   14  N           1     -24.298  -7.651 -18.006  0.00  0.00    -0.066 N 
HETATM   15  H           1     -23.468  -7.972 -18.553  0.00  0.00     0.275 HD
HETATM   16  H           1     -23.977  -7.147 -17.149  0.00  0.00     0.275 HD
HETATM   17  H           1     -24.875  -8.477 -17.731  0.00  0.00     0.275 HD
ENDBRANCH   5  14
ENDBRANCH   3   5
BRANCH   4  18
HETATM   18  C           1     -28.727  -6.033 -17.748  0.00  0.00     0.185 C 
BRANCH  18  19
HETATM   19  C           1     -29.399  -4.877 -18.478  0.00  0.00     0.038 C 
BRANCH  19  20
HETATM   20  C           1     -29.773  -3.792 -17.477  0.00  0.00     0.030 C 
BRANCH  20  21
HETATM   21  C           1     -31.284  -3.599 -17.477  0.00  0.00     0.230 C 
BRANCH  21  22
HETATM   22  N           1     -31.902  -4.487 -16.438  0.00  0.00    -0.079 N 
HETATM   23  H           1     -32.073  -5.435 -16.846  0.00  0.00     0.274 HD
HETATM   24  H           1     -31.254  -4.570 -15.623  0.00  0.00     0.274 HD
HETATM   25  H           1     -32.809  -4.075 -16.122  0.00  0.00     0.274 HD
ENDBRANCH  21  22
ENDBRANCH  20  21
ENDBRANCH  19  20
ENDBRANCH  18  19
BRANCH  18  26
HETATM   26  C           1     -29.710  -7.167 -17.591  0.00  0.00     0.196 C 
HETATM   27  O           1     -30.902  -7.013 -17.936  0.00  0.00    -0.646 OA
HETATM   28  O           1     -29.333  -8.260 -17.116  0.00  0.00    -0.646 OA
ENDBRANCH  18  26
ENDBRANCH   4  18
TORSDOF 10
ENDMDL
MODEL 5
REMARK VINA RESULT:      -5.7     11.744     14.179
REMARK  10 active torsions:
REMARK  status: ('A' for Active; 'I' for Inactive)
REMARK    1  A    between atoms: C_5  and  C_6 
REMARK    2  A    between atoms: C_5  and  C_24 
REMARK    3  A    between atoms: C_6  and  C_7 
REMARK    4  A    between atoms: C_7  and  N_8 
REMARK    5  A    between atoms: C_9  and  C_26 
REMARK    6  A    between atoms: C_9  and  C_17 
REMARK    7  A    between atoms: N_14  and  C_26 
REMARK    8  A    between atoms: C_19  and  C_24 
REMARK    9  A    between atoms: C_24  and  N_28 
REMARK       I    between atoms: C_25  and  N_28 
REMARK   10  A    between atoms: C_25  and  C_26 
ROOT
HETATM    1  O           1     -20.005  -4.441  -5.263  0.00  0.00    -0.271 OA
HETATM    2  H           1     -21.914  -6.583  -6.534  0.00  0.00     0.163 HD
HETATM    3  C           1     -20.728  -4.945  -6.089  0.00  0.00     0.249 C 
HETATM    4  N           1     -21.309  -6.160  -5.842  0.00  0.00    -0.345 N 
ENDROOT
BRANCH   3   5
HETATM    5  C           1     -20.991  -4.235  -7.394  0.00  0.00     0.280 C 
BRANCH   5   6
HETATM    6  C           1     -21.715  -5.177  -8.348  0.00  0.00     0.101 C 
BRANCH   6   7
HETATM    7  C           1     -22.810  -4.434  -9.047  0.00  0.00     0.028 A 
HETATM    8  N           1     -23.896  -3.875  -8.423  0.00  0.00    -0.355 N 
HETATM    9  C           1     -24.605  -3.327  -9.383  0.00  0.00     0.180 A 
ATOM     10  HN          1     -24.108  -3.883  -7.425  1.00  0.00     0.166 HD
HETATM   11  N           1     -24.019  -3.510 -10.603  0.00  0.00    -0.360 N 
HETATM   12  C           1     -22.867  -4.220 -10.404  0.00  0.00     0.114 A 
HETATM   13  H           1     -24.387  -3.169 -11.525  0.00  0.00     0.166 HD
ENDBRANCH   6   7
ENDBRANCH   5   6
BRANCH   5  14
HETATM   14  N           1     -19.687  -3.813  -8.005  0.00  0.00    -0.066 N 
HETATM   15  H           1     -19.205  -3.141  -7.366  0.00  0.00     0.275 HD
HETATM   16  H           1     -19.082  -4.653  -8.147  0.00  0.00     0.275 HD
HETATM   17  H           1     -19.867  -3.351  -8.924  0.00  0.00     0.275 HD
ENDBRANCH   5  14
ENDBRANCH   3   5
BRANCH   4  18
HETATM   18  C           1     -21.055  -6.842  -4.588  0.00  0.00     0.185 C 
BRANCH  18  19
HETATM   19  C           1     -22.222  -6.611  -3.638  0.00  0.00     0.038 C 
BRANCH  19  20
HETATM   20  C           1     -21.700  -6.073  -2.312  0.00  0.00     0.030 C 
BRANCH  20  21
HETATM   21  C           1     -22.313  -6.865  -1.165  0.00  0.00     0.230 C 
BRANCH  21  22
HETATM   22  N           1     -21.912  -8.306  -1.281  0.00  0.00    -0.079 N 
HETATM   23  H           1     -22.327  -8.714  -2.151  0.00  0.00     0.274 HD
HETATM   24  H           1     -20.871  -8.374  -1.328  0.00  0.00     0.274 HD
HETATM   25  H           1     -22.260  -8.833  -0.449  0.00  0.00     0.274 HD
ENDBRANCH  21  22
ENDBRANCH  20  21
ENDBRANCH  19  20
ENDBRANCH  18  19
BRANCH  18  26
HETATM   26  C           1     -20.901  -8.322  -4.843  0.00  0.00     0.196 C 
HETATM   27  O           1     -20.061  -8.729  -5.674  0.00  0.00    -0.646 OA
HETATM   28  O           1     -21.615  -9.141  -4.224  0.00  0.00    -0.646 OA
ENDBRANCH  18  26
ENDBRANCH   4  18
TORSDOF 10
ENDMDL
MODEL 6
REMARK VINA RESULT:      -5.7     11.914     13.384
REMARK  10 active torsions:
REMARK  status: ('A' for Active; 'I' for Inactive)
REMARK    1  A    between atoms: C_5  and  C_6 
REMARK    2  A    between atoms: C_5  and  C_24 
REMARK    3  A    between atoms: C_6  and  C_7 
REMARK    4  A    between atoms: C_7  and  N_8 
REMARK    5  A    between atoms: C_9  and  C_26 
REMARK    6  A    between atoms: C_9  and  C_17 
REMARK    7  A    between atoms: N_14  and  C_26 
REMARK    8  A    between atoms: C_19  and  C_24 
REMARK    9  A    between atoms: C_24  and  N_28 
REMARK       I    between atoms: C_25  and  N_28 
REMARK   10  A    between atoms: C_25  and  C_26 
ROOT
HETATM    1  O           1     -34.159  -2.241 -12.672  0.00  0.00    -0.271 OA
HETATM    2  H           1     -36.755  -2.591 -10.944  0.00  0.00     0.163 HD
HETATM    3  C           1     -35.016  -2.816 -12.045  0.00  0.00     0.249 C 
HETATM    4  N           1     -36.037  -2.109 -11.470  0.00  0.00    -0.345 N 
ENDROOT
BRANCH   3   5
HETATM    5  C           1     -34.961  -4.317 -11.894  0.00  0.00     0.280 C 
BRANCH   5   6
HETATM    6  C           1     -33.988  -4.680 -10.781  0.00  0.00     0.101 C 
BRANCH   6   7
HETATM    7  C           1     -34.181  -6.114 -10.397  0.00  0.00     0.028 A 
HETATM    8  N           1     -33.358  -7.141 -10.783  0.00  0.00    -0.355 N 
HETATM    9  C           1     -33.873  -8.221 -10.241  0.00  0.00     0.180 A 
ATOM     10  HN          1     -32.525  -7.081 -11.367  1.00  0.00     0.166 HD
HETATM   11  N           1     -34.996  -7.930  -9.519  0.00  0.00    -0.360 N 
HETATM   12  C           1     -35.206  -6.582  -9.610  0.00  0.00     0.114 A 
HETATM   13  H           1     -35.588  -8.617  -8.991  0.00  0.00     0.166 HD
ENDBRANCH   6   7
ENDBRANCH   5   6
BRANCH   5  14
HETATM   14  N           1     -34.498  -4.931 -13.182  0.00  0.00    -0.066 N 
HETATM   15  H           1     -33.506  -4.656 -13.362  0.00  0.00     0.275 HD
HETATM   16  H           1     -34.563  -5.972 -13.114  0.00  0.00     0.275 HD
HETATM   17  H           1     -35.101  -4.593 -13.966  0.00  0.00     0.275 HD
ENDBRANCH   5  14
ENDBRANCH   3   5
BRANCH   4  18
HETATM   18  C           1     -36.090  -0.667 -11.614  0.00  0.00     0.185 C 
BRANCH  18  19
HETATM   19  C           1     -37.021  -0.304 -12.764  0.00  0.00     0.038 C 
BRANCH  19  20
HETATM   20  C           1     -36.204   0.247 -13.925  0.00  0.00     0.030 C 
BRANCH  20  21
HETATM   21  C           1     -37.041   0.211 -15.197  0.00  0.00     0.230 C 
BRANCH  21  22
HETATM   22  N           1     -36.191  -0.254 -16.342  0.00  0.00    -0.079 N 
HETATM   23  H           1     -36.570  -1.156 -16.714  0.00  0.00     0.274 HD
HETATM   24  H           1     -36.202   0.466 -17.099  0.00  0.00     0.274 HD
HETATM   25  H           1     -35.210  -0.399 -16.012  0.00  0.00     0.274 HD
ENDBRANCH  21  22
ENDBRANCH  20  21
ENDBRANCH  19  20
ENDBRANCH  18  19
BRANCH  18  26
HETATM   26  C           1     -36.607  -0.052 -10.336  0.00  0.00     0.196 C 
HETATM   27  O           1     -37.542   0.777 -10.375  0.00  0.00    -0.646 OA
HETATM   28  O           1     -36.100  -0.372  -9.239  0.00  0.00    -0.646 OA
ENDBRANCH  18  26
ENDBRANCH   4  18
TORSDOF 10
ENDMDL
MODEL 7
REMARK VINA RESULT:      -5.6     10.567     13.402
REMARK  10 active torsions:
REMARK  status: ('A' for Active; 'I' for Inactive)
REMARK    1  A    between atoms: C_5  and  C_6 
REMARK    2  A    between atoms: C_5  and  C_24 
REMARK    3  A    between atoms: C_6  and  C_7 
REMARK    4  A    between atoms: C_7  and  N_8 
REMARK    5  A    between atoms: C_9  and  C_26 
REMARK    6  A    between atoms: C_9  and  C_17 
REMARK    7  A    between atoms: N_14  and  C_26 
REMARK    8  A    between atoms: C_19  and  C_24 
REMARK    9  A    between atoms: C_24  and  N_28 
REMARK       I    between atoms: C_25  and  N_28 
REMARK   10  A    between atoms: C_25  and  C_26 
ROOT
HETATM    1  O           1     -21.419  -3.501  -7.648  0.00  0.00    -0.271 OA
HETATM    2  H           1     -24.125  -4.972  -8.246  0.00  0.00     0.163 HD
HETATM    3  C           1     -22.367  -4.222  -7.450  0.00  0.00     0.249 C 
HETATM    4  N           1     -23.331  -4.368  -8.412  0.00  0.00    -0.345 N 
ENDROOT
BRANCH   3   5
HETATM    5  C           1     -22.490  -4.965  -6.142  0.00  0.00     0.280 C 
BRANCH   5   6
HETATM    6  C           1     -21.564  -6.173  -6.155  0.00  0.00     0.101 C 
BRANCH   6   7
HETATM    7  C           1     -21.481  -6.754  -4.778  0.00  0.00     0.028 A 
HETATM    8  N           1     -21.548  -6.024  -3.618  0.00  0.00    -0.355 N 
HETATM    9  C           1     -21.437  -6.903  -2.649  0.00  0.00     0.180 A 
ATOM     10  HN          1     -21.660  -5.015  -3.528  1.00  0.00     0.166 HD
HETATM   11  N           1     -21.302  -8.171  -3.137  0.00  0.00    -0.360 N 
HETATM   12  C           1     -21.328  -8.092  -4.501  0.00  0.00     0.114 A 
HETATM   13  H           1     -21.196  -9.047  -2.567  0.00  0.00     0.166 HD
ENDBRANCH   6   7
ENDBRANCH   5   6
BRANCH   5  14
HETATM   14  N           1     -23.907  -5.424  -5.960  0.00  0.00    -0.066 N 
HETATM   15  H           1     -23.962  -6.455  -6.121  0.00  0.00     0.275 HD
HETATM   16  H           1     -24.220  -5.207  -4.987  0.00  0.00     0.275 HD
HETATM   17  H           1     -24.524  -4.931  -6.644  0.00  0.00     0.275 HD
ENDBRANCH   5  14
ENDBRANCH   3   5
BRANCH   4  18
HETATM   18  C           1     -23.213  -3.654  -9.668  0.00  0.00     0.185 C 
BRANCH  18  19
HETATM   19  C           1     -22.457  -4.513 -10.673  0.00  0.00     0.038 C 
BRANCH  19  20
HETATM   20  C           1     -21.525  -3.633 -11.496  0.00  0.00     0.030 C 
BRANCH  20  21
HETATM   21  C           1     -20.081  -3.911 -11.101  0.00  0.00     0.230 C 
BRANCH  21  22
HETATM   22  N           1     -20.052  -4.917  -9.989  0.00  0.00    -0.079 N 
HETATM   23  H           1     -20.878  -5.553 -10.073  0.00  0.00     0.274 HD
HETATM   24  H           1     -19.173  -5.479 -10.052  0.00  0.00     0.274 HD
HETATM   25  H           1     -20.085  -4.423  -9.069  0.00  0.00     0.274 HD
ENDBRANCH  21  22
ENDBRANCH  20  21
ENDBRANCH  19  20
ENDBRANCH  18  19
BRANCH  18  26
HETATM   26  C           1     -24.590  -3.350 -10.205  0.00  0.00     0.196 C 
HETATM   27  O           1     -25.422  -2.752  -9.488  0.00  0.00    -0.646 OA
HETATM   28  O           1     -24.900  -3.696 -11.365  0.00  0.00    -0.646 OA
ENDBRANCH  18  26
ENDBRANCH   4  18
TORSDOF 10
ENDMDL
MODEL 8
REMARK VINA RESULT:      -5.4     12.062     14.267
REMARK  10 active torsions:
REMARK  status: ('A' for Active; 'I' for Inactive)
REMARK    1  A    between atoms: C_5  and  C_6 
REMARK    2  A    between atoms: C_5  and  C_24 
REMARK    3  A    between atoms: C_6  and  C_7 
REMARK    4  A    between atoms: C_7  and  N_8 
REMARK    5  A    between atoms: C_9  and  C_26 
REMARK    6  A    between atoms: C_9  and  C_17 
REMARK    7  A    between atoms: N_14  and  C_26 
REMARK    8  A    between atoms: C_19  and  C_24 
REMARK    9  A    between atoms: C_24  and  N_28 
REMARK       I    between atoms: C_25  and  N_28 
REMARK   10  A    between atoms: C_25  and  C_26 
ROOT
HETATM    1  O           1     -20.347  -5.336  -6.045  0.00  0.00    -0.271 OA
HETATM    2  H           1     -23.140  -6.215  -4.918  0.00  0.00     0.163 HD
HETATM    3  C           1     -21.546  -5.474  -6.011  0.00  0.00     0.249 C 
HETATM    4  N           1     -22.135  -6.099  -4.946  0.00  0.00    -0.345 N 
ENDROOT
BRANCH   3   5
HETATM    5  C           1     -22.397  -4.957  -7.146  0.00  0.00     0.280 C 
BRANCH   5   6
HETATM    6  C           1     -21.744  -3.720  -7.748  0.00  0.00     0.101 C 
BRANCH   6   7
HETATM    7  C           1     -21.433  -3.972  -9.191  0.00  0.00     0.028 A 
HETATM    8  N           1     -20.205  -4.349  -9.669  0.00  0.00    -0.355 N 
HETATM    9  C           1     -20.358  -4.462 -10.969  0.00  0.00     0.180 A 
ATOM     10  HN          1     -19.353  -4.509  -9.131  1.00  0.00     0.166 HD
HETATM   11  N           1     -21.638  -4.173 -11.347  0.00  0.00    -0.360 N 
HETATM   12  C           1     -22.340  -3.855 -10.218  0.00  0.00     0.114 A 
HETATM   13  H           1     -22.013  -4.189 -12.328  0.00  0.00     0.166 HD
ENDBRANCH   6   7
ENDBRANCH   5   6
BRANCH   5  14
HETATM   14  N           1     -23.758  -4.599  -6.626  0.00  0.00    -0.066 N 
HETATM   15  H           1     -24.415  -4.472  -7.428  0.00  0.00     0.275 HD
HETATM   16  H           1     -24.107  -5.366  -6.008  0.00  0.00     0.275 HD
HETATM   17  H           1     -23.700  -3.709  -6.080  0.00  0.00     0.275 HD
ENDBRANCH   5  14
ENDBRANCH   3   5
BRANCH   4  18
HETATM   18  C           1     -21.317  -6.597  -3.856  0.00  0.00     0.185 C 
BRANCH  18  19
HETATM   19  C           1     -22.099  -6.509  -2.552  0.00  0.00     0.038 C 
BRANCH  19  20
HETATM   20  C           1     -21.311  -7.188  -1.440  0.00  0.00     0.030 C 
BRANCH  20  21
HETATM   21  C           1     -22.262  -7.982  -0.555  0.00  0.00     0.230 C 
BRANCH  21  22
HETATM   22  N           1     -22.402  -9.375  -1.094  0.00  0.00    -0.079 N 
HETATM   23  H           1     -23.340  -9.757  -0.832  0.00  0.00     0.274 HD
HETATM   24  H           1     -22.313  -9.355  -2.134  0.00  0.00     0.274 HD
HETATM   25  H           1     -21.654  -9.982  -0.691  0.00  0.00     0.274 HD
ENDBRANCH  21  22
ENDBRANCH  20  21
ENDBRANCH  19  20
ENDBRANCH  18  19
BRANCH  18  26
HETATM   26  C           1     -20.946  -8.035  -4.123  0.00  0.00     0.196 C 
HETATM   27  O           1     -19.753  -8.345  -4.327  0.00  0.00    -0.646 OA
HETATM   28  O           1     -21.832  -8.917  -4.140  0.00  0.00    -0.646 OA
ENDBRANCH  18  26
ENDBRANCH   4  18
TORSDOF 10
ENDMDL
MODEL 9
REMARK VINA RESULT:      -5.2     12.596     15.447
REMARK  10 active torsions:
REMARK  status: ('A' for Active; 'I' for Inactive)
REMARK    1  A    between atoms: C_5  and  C_6 
REMARK    2  A    between atoms: C_5  and  C_24 
REMARK    3  A    between atoms: C_6  and  C_7 
REMARK    4  A    between atoms: C_7  and  N_8 
REMARK    5  A    between atoms: C_9  and  C_26 
REMARK    6  A    between atoms: C_9  and  C_17 
REMARK    7  A    between atoms: N_14  and  C_26 
REMARK    8  A    between atoms: C_19  and  C_24 
REMARK    9  A    between atoms: C_24  and  N_28 
REMARK       I    between atoms: C_25  and  N_28 
REMARK   10  A    between atoms: C_25  and  C_26 
ROOT
HETATM    1  O           1     -21.047  -7.616  -6.448  0.00  0.00    -0.271 OA
HETATM    2  H           1     -22.259  -4.882  -5.497  0.00  0.00     0.163 HD
HETATM    3  C           1     -21.585  -6.828  -5.707  0.00  0.00     0.249 C 
HETATM    4  N           1     -21.809  -5.542  -6.118  0.00  0.00    -0.345 N 
ENDROOT
BRANCH   3   5
HETATM    5  C           1     -22.010  -7.262  -4.325  0.00  0.00     0.280 C 
BRANCH   5   6
HETATM    6  C           1     -21.184  -6.521  -3.283  0.00  0.00     0.101 C 
BRANCH   6   7
HETATM    7  C           1     -21.428  -7.121  -1.933  0.00  0.00     0.028 A 
HETATM    8  N           1     -22.508  -6.837  -1.138  0.00  0.00    -0.355 N 
HETATM    9  C           1     -22.342  -7.563  -0.056  0.00  0.00     0.180 A 
ATOM     10  HN          1     -23.277  -6.200  -1.343  1.00  0.00     0.166 HD
HETATM   11  N           1     -21.197  -8.304  -0.122  0.00  0.00    -0.360 N 
HETATM   12  C           1     -20.598  -8.030  -1.321  0.00  0.00     0.114 A 
HETATM   13  H           1     -20.840  -8.961   0.614  0.00  0.00     0.166 HD
ENDBRANCH   6   7
ENDBRANCH   5   6
BRANCH   5  14
HETATM   14  N           1     -21.792  -8.739  -4.177  0.00  0.00    -0.066 N 
HETATM   15  H           1     -22.138  -9.230  -5.032  0.00  0.00     0.275 HD
HETATM   16  H           1     -20.772  -8.929  -4.054  0.00  0.00     0.275 HD
HETATM   17  H           1     -22.315  -9.086  -3.341  0.00  0.00     0.275 HD
ENDBRANCH   5  14
ENDBRANCH   3   5
BRANCH   4  18
HETATM   18  C           1     -21.399  -5.125  -7.445  0.00  0.00     0.185 C 
BRANCH  18  19
HETATM   19  C           1     -22.444  -4.182  -8.027  0.00  0.00     0.038 C 
BRANCH  19  20
HETATM   20  C           1     -22.722  -4.563  -9.476  0.00  0.00     0.030 C 
BRANCH  20  21
HETATM   21  C           1     -24.211  -4.418  -9.763  0.00  0.00     0.230 C 
BRANCH  21  22
HETATM   22  N           1     -24.725  -3.166  -9.118  0.00  0.00    -0.079 N 
HETATM   23  H           1     -25.008  -3.372  -8.132  0.00  0.00     0.274 HD
HETATM   24  H           1     -23.973  -2.440  -9.119  0.00  0.00     0.274 HD
HETATM   25  H           1     -25.552  -2.813  -9.650  0.00  0.00     0.274 HD
ENDBRANCH  21  22
ENDBRANCH  20  21
ENDBRANCH  19  20
ENDBRANCH  18  19
BRANCH  18  26
HETATM   26  C           1     -20.071  -4.412  -7.360  0.00  0.00     0.196 C 
HETATM   27  O           1     -19.650  -3.758  -8.338  0.00  0.00    -0.646 OA
HETATM   28  O           1     -19.393  -4.476  -6.312  0.00  0.00    -0.646 OA
ENDBRANCH  18  26
ENDBRANCH   4  18
TORSDOF 10
ENDMDL
