MODEL 1
REMARK VINA RESULT:      -7.4      0.000      0.000
REMARK  6 active torsions:
REMARK  status: ('A' for Active; 'I' for Inactive)
REMARK    1  A    between atoms: C_2  and  C_17 
REMARK       I    between atoms: C_4  and  N_11 
REMARK    2  A    between atoms: C_4  and  C_5 
REMARK    3  A    between atoms: C_5  and  C_13 
REMARK    4  A    between atoms: C_5  and  N_19 
REMARK    5  A    between atoms: N_11  and  C_17 
REMARK    6  A    between atoms: C_13  and  C_16 
ROOT
HETATM    1  C           1     -35.933  -0.507 -11.300  0.00  0.00     0.278 C 
ENDROOT
BRANCH   1   2
HETATM    2  C           1     -36.694  -0.351 -12.593  0.00  0.00     0.249 C 
HETATM    3  N           1     -36.065   0.145 -13.704  0.00  0.00    -0.349 N 
HETATM    4  H           1     -35.089   0.408 -13.657  0.00  0.00     0.163 HD
HETATM    5  O           1     -37.860  -0.665 -12.650  0.00  0.00    -0.271 OA
BRANCH   3   6
HETATM    6  C           1     -36.797   0.293 -14.946  0.00  0.00     0.235 C 
BRANCH   6   7
HETATM    7  C           1     -36.254  -0.674 -15.969  0.00  0.00     0.191 C 
HETATM    8  O           1     -36.749  -0.714 -17.116  0.00  0.00    -0.647 OA
HETATM    9  O           1     -35.308  -1.435 -15.669  0.00  0.00    -0.647 OA
ENDBRANCH   6   7
ENDBRANCH   3   6
ENDBRANCH   1   2
BRANCH   1  10
HETATM   10  C           1     -36.295  -1.837 -10.653  0.00  0.00     0.081 C 
BRANCH  10  11
HETATM   11  C           1     -35.206  -2.831 -10.911  0.00  0.00    -0.056 A 
HETATM   12  C           1     -33.911  -2.391 -11.187  0.00  0.00     0.007 A 
HETATM   13  C           1     -32.897  -3.319 -11.429  0.00  0.00     0.001 A 
HETATM   14  C           1     -33.177  -4.685 -11.394  0.00  0.00     0.000 A 
HETATM   15  C           1     -34.472  -5.123 -11.118  0.00  0.00     0.001 A 
HETATM   16  C           1     -35.487  -4.197 -10.877  0.00  0.00     0.007 A 
ENDBRANCH  10  11
ENDBRANCH   1  10
BRANCH   1  17
HETATM   17  N           1     -36.292   0.615 -10.372  0.00  0.00    -0.066 N 
HETATM   18  H           1     -35.460   0.865  -9.791  0.00  0.00     0.275 HD
HETATM   19  H           1     -37.075   0.314  -9.748  0.00  0.00     0.275 HD
HETATM   20  H           1     -36.591   1.447 -10.928  0.00  0.00     0.275 HD
ENDBRANCH   1  17
TORSDOF 6
ENDMDL
MODEL 2
REMARK VINA RESULT:      -6.6     14.603     16.623
REMARK  6 active torsions:
REMARK  status: ('A' for Active; 'I' for Inactive)
REMARK    1  A    between atoms: C_2  and  C_17 
REMARK       I    between atoms: C_4  and  N_11 
REMARK    2  A    between atoms: C_4  and  C_5 
REMARK    3  A    between atoms: C_5  and  C_13 
REMARK    4  A    between atoms: C_5  and  N_19 
REMARK    5  A    between atoms: N_11  and  C_17 
REMARK    6  A    between atoms: C_13  and  C_16 
ROOT
HETATM    1  C           1     -22.271  -5.206  -6.775  0.00  0.00     0.278 C 
ENDROOT
BRANCH   1   2
HETATM    2  C           1     -21.413  -5.668  -5.624  0.00  0.00     0.249 C 
HETATM    3  N           1     -21.816  -6.724  -4.850  0.00  0.00    -0.349 N 
HETATM    4  H           1     -22.690  -7.193  -5.050  0.00  0.00     0.163 HD
HETATM    5  O           1     -20.370  -5.107  -5.385  0.00  0.00    -0.271 OA
BRANCH   3   6
HETATM    6  C           1     -20.990  -7.168  -3.744  0.00  0.00     0.235 C 
BRANCH   6   7
HETATM    7  C           1     -21.680  -6.848  -2.441  0.00  0.00     0.191 C 
HETATM    8  O           1     -21.441  -7.533  -1.423  0.00  0.00    -0.647 OA
HETATM    9  O           1     -22.491  -5.898  -2.380  0.00  0.00    -0.647 OA
ENDBRANCH   6   7
ENDBRANCH   3   6
ENDBRANCH   1   2
BRANCH   1  10
HETATM   10  C           1     -21.679  -3.937  -7.374  0.00  0.00     0.081 C 
BRANCH  10  11
HETATM   11  C           1     -21.634  -4.062  -8.865  0.00  0.00    -0.056 A 
HETATM   12  C           1     -22.820  -4.125  -9.596  0.00  0.00     0.007 A 
HETATM   13  C           1     -22.777  -4.243 -10.985  0.00  0.00     0.001 A 
HETATM   14  C           1     -21.549  -4.295 -11.644  0.00  0.00     0.000 A 
HETATM   15  C           1     -20.363  -4.232 -10.912  0.00  0.00     0.001 A 
HETATM   16  C           1     -20.405  -4.115  -9.523  0.00  0.00     0.007 A 
ENDBRANCH  10  11
ENDBRANCH   1  10
BRANCH   1  17
HETATM   17  N           1     -23.660  -4.924  -6.281  0.00  0.00    -0.066 N 
HETATM   18  H           1     -23.730  -3.921  -5.997  0.00  0.00     0.275 HD
HETATM   19  H           1     -23.868  -5.535  -5.460  0.00  0.00     0.275 HD
HETATM   20  H           1     -24.347  -5.119  -7.043  0.00  0.00     0.275 HD
ENDBRANCH   1  17
TORSDOF 6
ENDMDL
MODEL 3
REMARK VINA RESULT:      -6.4     13.521     15.287
REMARK  6 active torsions:
REMARK  status: ('A' for Active; 'I' for Inactive)
REMARK    1  A    between atoms: C_2  and  C_17 
REMARK       I    between atoms: C_4  and  N_11 
REMARK    2  A    between atoms: C_4  and  C_5 
REMARK    3  A    between atoms: C_5  and  C_13 
REMARK    4  A    between atoms: C_5  and  N_19 
REMARK    5  A    between atoms: N_11  and  C_17 
REMARK    6  A    between atoms: C_13  and  C_16 
ROOT
HETATM    1  C           1     -20.972  -5.157  -7.155  0.00  0.00     0.278 C 
ENDROOT
BRANCH   1   2
HETATM    2  C           1     -22.342  -4.613  -7.475  0.00  0.00     0.249 C 
HETATM    3  N           1     -22.587  -4.050  -8.699  0.00  0.00    -0.349 N 
HETATM    4  H           1     -21.848  -3.999  -9.389  0.00  0.00     0.163 HD
HETATM    5  O           1     -23.224  -4.673  -6.651  0.00  0.00    -0.271 OA
BRANCH   3   6
HETATM    6  C           1     -23.904  -3.527  -9.007  0.00  0.00     0.235 C 
BRANCH   6   7
HETATM    7  C           1     -24.167  -3.665 -10.486  0.00  0.00     0.191 C 
HETATM    8  O           1     -25.208  -3.185 -10.983  0.00  0.00    -0.647 OA
HETATM    9  O           1     -23.343  -4.261 -11.215  0.00  0.00    -0.647 OA
ENDBRANCH   6   7
ENDBRANCH   3   6
ENDBRANCH   1   2
BRANCH   1  10
HETATM   10  C           1     -20.646  -4.886  -5.692  0.00  0.00     0.081 C 
BRANCH  10  11
HETATM   11  C           1     -20.902  -6.121  -4.886  0.00  0.00    -0.056 A 
HETATM   12  C           1     -21.248  -6.016  -3.538  0.00  0.00     0.007 A 
HETATM   13  C           1     -21.485  -7.167  -2.787  0.00  0.00     0.001 A 
HETATM   14  C           1     -21.378  -8.424  -3.383  0.00  0.00     0.000 A 
HETATM   15  C           1     -21.032  -8.528  -4.731  0.00  0.00     0.001 A 
HETATM   16  C           1     -20.794  -7.378  -5.482  0.00  0.00     0.007 A 
ENDBRANCH  10  11
ENDBRANCH   1  10
BRANCH   1  17
HETATM   17  N           1     -19.952  -4.487  -8.026  0.00  0.00    -0.066 N 
HETATM   18  H           1     -19.212  -4.057  -7.427  0.00  0.00     0.275 HD
HETATM   19  H           1     -20.415  -3.743  -8.596  0.00  0.00     0.275 HD
HETATM   20  H           1     -19.519  -5.193  -8.662  0.00  0.00     0.275 HD
ENDBRANCH   1  17
TORSDOF 6
ENDMDL
MODEL 4
REMARK VINA RESULT:      -6.1     16.167     18.122
REMARK  6 active torsions:
REMARK  status: ('A' for Active; 'I' for Inactive)
REMARK    1  A    between atoms: C_2  and  C_17 
REMARK       I    between atoms: C_4  and  N_11 
REMARK    2  A    between atoms: C_4  and  C_5 
REMARK    3  A    between atoms: C_5  and  C_13 
REMARK    4  A    between atoms: C_5  and  N_19 
REMARK    5  A    between atoms: N_11  and  C_17 
REMARK    6  A    between atoms: C_13  and  C_16 
ROOT
HETATM    1  C           1     -21.320  -7.125  -4.341  0.00  0.00     0.278 C 
ENDROOT
BRANCH   1   2
HETATM    2  C           1     -21.621  -6.947  -2.874  0.00  0.00     0.249 C 
HETATM    3  N           1     -21.252  -7.914  -1.977  0.00  0.00    -0.349 N 
HETATM    4  H           1     -20.777  -8.748  -2.298  0.00  0.00     0.163 HD
HETATM    5  O           1     -22.188  -5.951  -2.490  0.00  0.00    -0.271 OA
BRANCH   3   6
HETATM    6  C           1     -21.541  -7.742  -0.566  0.00  0.00     0.235 C 
BRANCH   6   7
HETATM    7  C           1     -22.711  -8.614  -0.183  0.00  0.00     0.191 C 
HETATM    8  O           1     -22.866  -9.727  -0.729  0.00  0.00    -0.647 OA
HETATM    9  O           1     -23.526  -8.222   0.681  0.00  0.00    -0.647 OA
ENDBRANCH   6   7
ENDBRANCH   3   6
ENDBRANCH   1   2
BRANCH   1  10
HETATM   10  C           1     -22.278  -6.274  -5.164  0.00  0.00     0.081 C 
BRANCH  10  11
HETATM   11  C           1     -21.503  -5.468  -6.159  0.00  0.00    -0.056 A 
HETATM   12  C           1     -22.175  -4.654  -7.071  0.00  0.00     0.007 A 
HETATM   13  C           1     -21.451  -3.904  -7.999  0.00  0.00     0.001 A 
HETATM   14  C           1     -20.058  -3.967  -8.014  0.00  0.00     0.000 A 
HETATM   15  C           1     -19.388  -4.782  -7.102  0.00  0.00     0.001 A 
HETATM   16  C           1     -20.110  -5.532  -6.174  0.00  0.00     0.007 A 
ENDBRANCH  10  11
ENDBRANCH   1  10
BRANCH   1  17
HETATM   17  N           1     -21.487  -8.568  -4.714  0.00  0.00    -0.066 N 
HETATM   18  H           1     -21.354  -8.678  -5.744  0.00  0.00     0.275 HD
HETATM   19  H           1     -22.446  -8.887  -4.450  0.00  0.00     0.275 HD
HETATM   20  H           1     -20.777  -9.144  -4.207  0.00  0.00     0.275 HD
ENDBRANCH   1  17
TORSDOF 6
ENDMDL
MODEL 5
REMARK VINA RESULT:      -6.0     15.085     16.901
REMARK  6 active torsions:
REMARK  status: ('A' for Active; 'I' for Inactive)
REMARK    1  A    between atoms: C_2  and  C_17 
REMARK       I    between atoms: C_4  and  N_11 
REMARK    2  A    between atoms: C_4  and  C_5 
REMARK    3  A    between atoms: C_5  and  C_13 
REMARK    4  A    between atoms: C_5  and  N_19 
REMARK    5  A    between atoms: N_11  and  C_17 
REMARK    6  A    between atoms: C_13  and  C_16 
ROOT
HETATM    1  C           1     -21.664  -7.396  -4.669  0.00  0.00     0.278 C 
ENDROOT
BRANCH   1   2
HETATM    2  C           1     -22.315  -6.268  -5.430  0.00  0.00     0.249 C 
HETATM    3  N           1     -21.622  -5.616  -6.415  0.00  0.00    -0.349 N 
HETATM    4  H           1     -20.672  -5.891  -6.632  0.00  0.00     0.163 HD
HETATM    5  O           1     -23.449  -5.939  -5.171  0.00  0.00    -0.271 OA
BRANCH   3   6
HETATM    6  C           1     -22.248  -4.533  -7.147  0.00  0.00     0.235 C 
BRANCH   6   7
HETATM    7  C           1     -21.807  -4.578  -8.589  0.00  0.00     0.191 C 
HETATM    8  O           1     -20.620  -4.326  -8.888  0.00  0.00    -0.647 OA
HETATM    9  O           1     -22.629  -4.868  -9.486  0.00  0.00    -0.647 OA
ENDBRANCH   6   7
ENDBRANCH   3   6
ENDBRANCH   1   2
BRANCH   1  10
HETATM   10  C           1     -21.026  -6.850  -3.398  0.00  0.00     0.081 C 
BRANCH  10  11
HETATM   11  C           1     -21.607  -7.546  -2.208  0.00  0.00    -0.056 A 
HETATM   12  C           1     -22.237  -6.807  -1.206  0.00  0.00     0.007 A 
HETATM   13  C           1     -22.778  -7.457  -0.096  0.00  0.00     0.001 A 
HETATM   14  C           1     -22.691  -8.845   0.012  0.00  0.00     0.000 A 
HETATM   15  C           1     -22.060  -9.583  -0.990  0.00  0.00     0.001 A 
HETATM   16  C           1     -21.519  -8.934  -2.100  0.00  0.00     0.007 A 
ENDBRANCH  10  11
ENDBRANCH   1  10
BRANCH   1  17
HETATM   17  N           1     -20.609  -8.032  -5.524  0.00  0.00    -0.066 N 
HETATM   18  H           1     -19.991  -8.627  -4.928  0.00  0.00     0.275 HD
HETATM   19  H           1     -20.038  -7.288  -5.984  0.00  0.00     0.275 HD
HETATM   20  H           1     -21.063  -8.625  -6.255  0.00  0.00     0.275 HD
ENDBRANCH   1  17
TORSDOF 6
ENDMDL
MODEL 6
REMARK VINA RESULT:      -5.9     14.377     16.118
REMARK  6 active torsions:
REMARK  status: ('A' for Active; 'I' for Inactive)
REMARK    1  A    between atoms: C_2  and  C_17 
REMARK       I    between atoms: C_4  and  N_11 
REMARK    2  A    between atoms: C_4  and  C_5 
REMARK    3  A    between atoms: C_5  and  C_13 
REMARK    4  A    between atoms: C_5  and  N_19 
REMARK    5  A    between atoms: N_11  and  C_17 
REMARK    6  A    between atoms: C_13  and  C_16 
ROOT
HETATM    1  C           1     -21.298  -5.553  -6.411  0.00  0.00     0.278 C 
ENDROOT
BRANCH   1   2
HETATM    2  C           1     -22.076  -4.857  -7.500  0.00  0.00     0.249 C 
HETATM    3  N           1     -21.568  -4.793  -8.770  0.00  0.00    -0.349 N 
HETATM    4  H           1     -20.671  -5.212  -8.978  0.00  0.00     0.163 HD
HETATM    5  O           1     -23.147  -4.356  -7.252  0.00  0.00    -0.271 OA
BRANCH   3   6
HETATM    6  C           1     -22.317  -4.125  -9.817  0.00  0.00     0.235 C 
BRANCH   6   7
HETATM    7  C           1     -21.366  -3.638 -10.883  0.00  0.00     0.191 C 
HETATM    8  O           1     -21.675  -2.660 -11.597  0.00  0.00    -0.647 OA
HETATM    9  O           1     -20.269  -4.214 -11.052  0.00  0.00    -0.647 OA
ENDBRANCH   6   7
ENDBRANCH   3   6
ENDBRANCH   1   2
BRANCH   1  10
HETATM   10  C           1     -22.264  -6.121  -5.379  0.00  0.00     0.081 C 
BRANCH  10  11
HETATM   11  C           1     -21.505  -6.931  -4.376  0.00  0.00    -0.056 A 
HETATM   12  C           1     -20.615  -7.916  -4.805  0.00  0.00     0.007 A 
HETATM   13  C           1     -19.908  -8.672  -3.869  0.00  0.00     0.001 A 
HETATM   14  C           1     -20.089  -8.442  -2.506  0.00  0.00     0.000 A 
HETATM   15  C           1     -20.979  -7.456  -2.078  0.00  0.00     0.001 A 
HETATM   16  C           1     -21.686  -6.701  -3.012  0.00  0.00     0.007 A 
ENDBRANCH  10  11
ENDBRANCH   1  10
BRANCH   1  17
HETATM   17  N           1     -20.380  -4.570  -5.747  0.00  0.00    -0.066 N 
HETATM   18  H           1     -20.919  -4.004  -5.053  0.00  0.00     0.275 HD
HETATM   19  H           1     -19.968  -3.936  -6.468  0.00  0.00     0.275 HD
HETATM   20  H           1     -19.613  -5.084  -5.257  0.00  0.00     0.275 HD
ENDBRANCH   1  17
TORSDOF 6
ENDMDL
MODEL 7
REMARK VINA RESULT:      -5.8     16.210     18.170
REMARK  6 active torsions:
REMARK  status: ('A' for Active; 'I' for Inactive)
REMARK    1  A    between atoms: C_2  and  C_17 
REMARK       I    between atoms: C_4  and  N_11 
REMARK    2  A    between atoms: C_4  and  C_5 
REMARK    3  A    between atoms: C_5  and  C_13 
REMARK    4  A    between atoms: C_5  and  N_19 
REMARK    5  A    between atoms: N_11  and  C_17 
REMARK    6  A    between atoms: C_13  and  C_16 
ROOT
HETATM    1  C           1     -20.606  -8.534  -3.658  0.00  0.00     0.278 C 
ENDROOT
BRANCH   1   2
HETATM    2  C           1     -21.047  -7.755  -4.872  0.00  0.00     0.249 C 
HETATM    3  N           1     -21.458  -6.455  -4.740  0.00  0.00    -0.349 N 
HETATM    4  H           1     -21.466  -6.018  -3.828  0.00  0.00     0.163 HD
HETATM    5  O           1     -21.037  -8.277  -5.962  0.00  0.00    -0.271 OA
BRANCH   3   6
HETATM    6  C           1     -21.881  -5.707  -5.908  0.00  0.00     0.235 C 
BRANCH   6   7
HETATM    7  C           1     -20.812  -4.711  -6.282  0.00  0.00     0.191 C 
HETATM    8  O           1     -19.838  -4.524  -5.521  0.00  0.00    -0.647 OA
HETATM    9  O           1     -20.899  -4.073  -7.354  0.00  0.00    -0.647 OA
ENDBRANCH   6   7
ENDBRANCH   3   6
ENDBRANCH   1   2
BRANCH   1  10
HETATM   10  C           1     -20.728  -7.657  -2.419  0.00  0.00     0.081 C 
BRANCH  10  11
HETATM   11  C           1     -21.705  -8.273  -1.466  0.00  0.00    -0.056 A 
HETATM   12  C           1     -22.095  -9.602  -1.629  0.00  0.00     0.007 A 
HETATM   13  C           1     -23.006 -10.175  -0.741  0.00  0.00     0.001 A 
HETATM   14  C           1     -23.526  -9.420   0.310  0.00  0.00     0.000 A 
HETATM   15  C           1     -23.136  -8.090   0.472  0.00  0.00     0.001 A 
HETATM   16  C           1     -22.226  -7.517  -0.416  0.00  0.00     0.007 A 
ENDBRANCH  10  11
ENDBRANCH   1  10
BRANCH   1  17
HETATM   17  N           1     -19.177  -8.959  -3.830  0.00  0.00    -0.066 N 
HETATM   18  H           1     -18.751  -9.130  -2.891  0.00  0.00     0.275 HD
HETATM   19  H           1     -18.646  -8.206  -4.322  0.00  0.00     0.275 HD
HETATM   20  H           1     -19.140  -9.837  -4.395  0.00  0.00     0.275 HD
ENDBRANCH   1  17
TORSDOF 6
ENDMDL
MODEL 8
REMARK VINA RESULT:      -5.8     14.774     16.938
REMARK  6 active torsions:
REMARK  status: ('A' for Active; 'I' for Inactive)
REMARK    1  A    between atoms: C_2  and  C_17 
REMARK       I    between atoms: C_4  and  N_11 
REMARK    2  A    between atoms: C_4  and  C_5 
REMARK    3  A    between atoms: C_5  and  C_13 
REMARK    4  A    between atoms: C_5  and  N_19 
REMARK    5  A    between atoms: N_11  and  C_17 
REMARK    6  A    between atoms: C_13  and  C_16 
ROOT
HETATM    1  C           1     -20.547  -5.114  -6.590  0.00  0.00     0.278 C 
ENDROOT
BRANCH   1   2
HETATM    2  C           1     -21.432  -5.600  -5.470  0.00  0.00     0.249 C 
HETATM    3  N           1     -20.881  -5.970  -4.272  0.00  0.00    -0.349 N 
HETATM    4  H           1     -19.879  -5.916  -4.139  0.00  0.00     0.163 HD
HETATM    5  O           1     -22.628  -5.665  -5.630  0.00  0.00    -0.271 OA
BRANCH   3   6
HETATM    6  C           1     -21.732  -6.437  -3.196  0.00  0.00     0.235 C 
BRANCH   6   7
HETATM    7  C           1     -21.203  -7.748  -2.669  0.00  0.00     0.191 C 
HETATM    8  O           1     -21.456  -8.812  -3.273  0.00  0.00    -0.647 OA
HETATM    9  O           1     -20.512  -7.769  -1.626  0.00  0.00    -0.647 OA
ENDBRANCH   6   7
ENDBRANCH   3   6
ENDBRANCH   1   2
BRANCH   1  10
HETATM   10  C           1     -21.146  -3.854  -7.202  0.00  0.00     0.081 C 
BRANCH  10  11
HETATM   11  C           1     -21.375  -4.069  -8.665  0.00  0.00    -0.056 A 
HETATM   12  C           1     -20.314  -3.948  -9.563  0.00  0.00     0.007 A 
HETATM   13  C           1     -20.529  -4.148 -10.926  0.00  0.00     0.001 A 
HETATM   14  C           1     -21.803  -4.469 -11.393  0.00  0.00     0.000 A 
HETATM   15  C           1     -22.864  -4.590 -10.495  0.00  0.00     0.001 A 
HETATM   16  C           1     -22.650  -4.390  -9.132  0.00  0.00     0.007 A 
ENDBRANCH  10  11
ENDBRANCH   1  10
BRANCH   1  17
HETATM   17  N           1     -20.442  -6.178  -7.642  0.00  0.00    -0.066 N 
HETATM   18  H           1     -20.948  -5.868  -8.502  0.00  0.00     0.275 HD
HETATM   19  H           1     -20.870  -7.063  -7.287  0.00  0.00     0.275 HD
HETATM   20  H           1     -19.436  -6.345  -7.870  0.00  0.00     0.275 HD
ENDBRANCH   1  17
TORSDOF 6
ENDMDL
MODEL 9
REMARK VINA RESULT:      -5.7     16.045     18.282
REMARK  6 active torsions:
REMARK  status: ('A' for Active; 'I' for Inactive)
REMARK    1  A    between atoms: C_2  and  C_17 
REMARK       I    between atoms: C_4  and  N_11 
REMARK    2  A    between atoms: C_4  and  C_5 
REMARK    3  A    between atoms: C_5  and  C_13 
REMARK    4  A    between atoms: C_5  and  N_19 
REMARK    5  A    between atoms: N_11  and  C_17 
REMARK    6  A    between atoms: C_13  and  C_16 
ROOT
HETATM    1  C           1     -21.550  -6.219  -4.948  0.00  0.00     0.278 C 
ENDROOT
BRANCH   1   2
HETATM    2  C           1     -20.908  -7.563  -5.183  0.00  0.00     0.249 C 
HETATM    3  N           1     -19.971  -8.038  -4.304  0.00  0.00    -0.349 N 
HETATM    4  H           1     -19.710  -7.487  -3.497  0.00  0.00     0.163 HD
HETATM    5  O           1     -21.219  -8.221  -6.148  0.00  0.00    -0.271 OA
BRANCH   3   6
HETATM    6  C           1     -19.354  -9.331  -4.531  0.00  0.00     0.235 C 
BRANCH   6   7
HETATM    7  C           1     -18.588  -9.745  -3.299  0.00  0.00     0.191 C 
HETATM    8  O           1     -17.447  -9.283  -3.087  0.00  0.00    -0.647 OA
HETATM    9  O           1     -19.095 -10.553  -2.490  0.00  0.00    -0.647 OA
ENDBRANCH   6   7
ENDBRANCH   3   6
ENDBRANCH   1   2
BRANCH   1  10
HETATM   10  C           1     -20.601  -5.115  -5.396  0.00  0.00     0.081 C 
BRANCH  10  11
HETATM   11  C           1     -20.869  -4.776  -6.828  0.00  0.00    -0.056 A 
HETATM   12  C           1     -22.160  -4.438  -7.235  0.00  0.00     0.007 A 
HETATM   13  C           1     -22.409  -4.123  -8.571  0.00  0.00     0.001 A 
HETATM   14  C           1     -21.369  -4.145  -9.500  0.00  0.00     0.000 A 
HETATM   15  C           1     -20.079  -4.484  -9.092  0.00  0.00     0.001 A 
HETATM   16  C           1     -19.829  -4.800  -7.757  0.00  0.00     0.007 A 
ENDBRANCH  10  11
ENDBRANCH   1  10
BRANCH   1  17
HETATM   17  N           1     -21.850  -6.058  -3.487  0.00  0.00    -0.066 N 
HETATM   18  H           1     -22.016  -5.048  -3.276  0.00  0.00     0.275 HD
HETATM   19  H           1     -21.040  -6.403  -2.925  0.00  0.00     0.275 HD
HETATM   20  H           1     -22.703  -6.610  -3.243  0.00  0.00     0.275 HD
ENDBRANCH   1  17
TORSDOF 6
ENDMDL
