MODEL 1
REMARK VINA RESULT:      -6.0      0.000      0.000
REMARK  9 active torsions:
REMARK  status: ('A' for Active; 'I' for Inactive)
REMARK    1  A    between atoms: C_2  and  C_21 
REMARK    2  A    between atoms: C_2  and  C_3 
REMARK    3  A    between atoms: C_2  and  N_8 
REMARK    4  A    between atoms: C_4  and  C_19 
REMARK    5  A    between atoms: P_5  and  O_6 
REMARK    6  A    between atoms: P_5  and  O_10 
REMARK    7  A    between atoms: O_6  and  C_23 
REMARK    8  A    between atoms: N_13  and  C_19 
REMARK       I    between atoms: N_13  and  C_21 
REMARK    9  A    between atoms: C_19  and  C_23 
ROOT
HETATM    1  O           1     -20.549  -7.930  -5.875  0.00  0.00    -0.271 OA
HETATM    2  N           1     -21.693  -6.022  -5.687  0.00  0.00    -0.343 N 
HETATM    3  H           1     -22.332  -5.455  -5.145  0.00  0.00     0.163 HD
HETATM    4  C           1     -21.312  -7.253  -5.227  0.00  0.00     0.249 C 
ENDROOT
BRANCH   2   5
HETATM    5  C           1     -21.179  -5.528  -6.950  0.00  0.00     0.210 C 
BRANCH   5   6
HETATM    6  C           1     -19.895  -4.772  -6.710  0.00  0.00     0.198 C 
HETATM    7  O           1     -19.580  -4.430  -5.549  0.00  0.00    -0.646 OA
HETATM    8  O           1     -19.147  -4.489  -7.670  0.00  0.00    -0.646 OA
ENDBRANCH   5   6
BRANCH   5   9
HETATM    9  C           1     -22.204  -4.599  -7.586  0.00  0.00     0.217 C 
BRANCH   9  10
HETATM   10  O           1     -22.095  -4.667  -8.982  0.00  0.00    -0.287 OA
BRANCH  10  11
HETATM   11  P           1     -23.378  -4.151  -9.818  0.00  0.00     0.406 P 
HETATM   12  O           1     -24.008  -5.296 -10.511  0.00  0.00    -0.624 OA
HETATM   13  O           1     -22.945  -3.147 -10.816  0.00  0.00    -0.624 OA
BRANCH  11  14
HETATM   14  O           1     -24.444  -3.481  -8.806  0.00  0.00    -0.300 OA
HETATM   15  H           1     -24.636  -2.637  -9.179  0.00  0.00     0.223 HD
ENDBRANCH  11  14
ENDBRANCH  10  11
ENDBRANCH   9  10
ENDBRANCH   5   9
ENDBRANCH   2   5
BRANCH   4  16
HETATM   16  C           1     -21.847  -7.767  -3.913  0.00  0.00     0.278 C 
BRANCH  16  17
HETATM   17  C           1     -21.159  -7.040  -2.765  0.00  0.00     0.017 C 
HETATM   18  C           1     -22.195  -6.270  -1.958  0.00  0.00     0.012 C 
HETATM   19  C           1     -20.465  -8.054  -1.866  0.00  0.00     0.012 C 
ENDBRANCH  16  17
BRANCH  16  20
HETATM   20  N           1     -21.577  -9.239  -3.805  0.00  0.00    -0.066 N 
HETATM   21  H           1     -22.316  -9.687  -3.218  0.00  0.00     0.275 HD
HETATM   22  H           1     -21.585  -9.664  -4.759  0.00  0.00     0.275 HD
HETATM   23  H           1     -20.642  -9.389  -3.362  0.00  0.00     0.275 HD
ENDBRANCH  16  20
ENDBRANCH   4  16
TORSDOF 9
ENDMDL
MODEL 2
REMARK VINA RESULT:      -5.6      2.840      4.336
REMARK  9 active torsions:
REMARK  status: ('A' for Active; 'I' for Inactive)
REMARK    1  A    between atoms: C_2  and  C_21 
REMARK    2  A    between atoms: C_2  and  C_3 
REMARK    3  A    between atoms: C_2  and  N_8 
REMARK    4  A    between atoms: C_4  and  C_19 
REMARK    5  A    between atoms: P_5  and  O_6 
REMARK    6  A    between atoms: P_5  and  O_10 
REMARK    7  A    between atoms: O_6  and  C_23 
REMARK    8  A    between atoms: N_13  and  C_19 
REMARK       I    between atoms: N_13  and  C_21 
REMARK    9  A    between atoms: C_19  and  C_23 
ROOT
HETATM    1  O           1     -21.783  -9.706  -2.203  0.00  0.00    -0.271 OA
HETATM    2  N           1     -20.684  -8.062  -3.240  0.00  0.00    -0.343 N 
HETATM    3  H           1     -20.291  -7.131  -3.194  0.00  0.00     0.163 HD
HETATM    4  C           1     -21.314  -8.594  -2.148  0.00  0.00     0.249 C 
ENDROOT
BRANCH   2   5
HETATM    5  C           1     -20.578  -8.833  -4.464  0.00  0.00     0.210 C 
BRANCH   5   6
HETATM    6  C           1     -19.124  -8.998  -4.830  0.00  0.00     0.198 C 
HETATM    7  O           1     -18.770  -8.938  -6.027  0.00  0.00    -0.646 OA
HETATM    8  O           1     -18.273  -9.195  -3.936  0.00  0.00    -0.646 OA
ENDBRANCH   5   6
BRANCH   5   9
HETATM    9  C           1     -21.306  -8.105  -5.586  0.00  0.00     0.217 C 
BRANCH   9  10
HETATM   10  O           1     -21.548  -6.778  -5.203  0.00  0.00    -0.287 OA
BRANCH  10  11
HETATM   11  P           1     -21.029  -5.640  -6.226  0.00  0.00     0.406 P 
HETATM   12  O           1     -20.292  -6.277  -7.340  0.00  0.00    -0.624 OA
HETATM   13  O           1     -20.132  -4.706  -5.511  0.00  0.00    -0.624 OA
BRANCH  11  14
HETATM   14  O           1     -22.297  -4.829  -6.813  0.00  0.00    -0.300 OA
HETATM   15  H           1     -22.385  -5.127  -7.703  0.00  0.00     0.223 HD
ENDBRANCH  11  14
ENDBRANCH  10  11
ENDBRANCH   9  10
ENDBRANCH   5   9
ENDBRANCH   2   5
BRANCH   4  16
HETATM   16  C           1     -21.424  -7.792  -0.875  0.00  0.00     0.278 C 
BRANCH  16  17
HETATM   17  C           1     -22.003  -8.667   0.229  0.00  0.00     0.017 C 
HETATM   18  C           1     -21.041  -8.700   1.409  0.00  0.00     0.012 C 
HETATM   19  C           1     -23.340  -8.095   0.680  0.00  0.00     0.012 C 
ENDBRANCH  16  17
BRANCH  16  20
HETATM   20  N           1     -22.326  -6.614  -1.103  0.00  0.00    -0.066 N 
HETATM   21  H           1     -23.304  -6.948  -1.252  0.00  0.00     0.275 HD
HETATM   22  H           1     -22.296  -5.988  -0.267  0.00  0.00     0.275 HD
HETATM   23  H           1     -22.004  -6.088  -1.946  0.00  0.00     0.275 HD
ENDBRANCH  16  20
ENDBRANCH   4  16
TORSDOF 9
ENDMDL
MODEL 3
REMARK VINA RESULT:      -5.5      2.730      4.128
REMARK  9 active torsions:
REMARK  status: ('A' for Active; 'I' for Inactive)
REMARK    1  A    between atoms: C_2  and  C_21 
REMARK    2  A    between atoms: C_2  and  C_3 
REMARK    3  A    between atoms: C_2  and  N_8 
REMARK    4  A    between atoms: C_4  and  C_19 
REMARK    5  A    between atoms: P_5  and  O_6 
REMARK    6  A    between atoms: P_5  and  O_10 
REMARK    7  A    between atoms: O_6  and  C_23 
REMARK    8  A    between atoms: N_13  and  C_19 
REMARK       I    between atoms: N_13  and  C_21 
REMARK    9  A    between atoms: C_19  and  C_23 
ROOT
HETATM    1  O           1     -22.302 -10.233  -3.109  0.00  0.00    -0.271 OA
HETATM    2  N           1     -21.324  -8.300  -2.566  0.00  0.00    -0.343 N 
HETATM    3  H           1     -20.989  -7.684  -1.836  0.00  0.00     0.163 HD
HETATM    4  C           1     -21.902  -9.497  -2.238  0.00  0.00     0.249 C 
ENDROOT
BRANCH   2   5
HETATM    5  C           1     -21.189  -7.917  -3.958  0.00  0.00     0.210 C 
BRANCH   5   6
HETATM    6  C           1     -19.864  -8.408  -4.488  0.00  0.00     0.198 C 
HETATM    7  O           1     -18.994  -8.834  -3.698  0.00  0.00    -0.646 OA
HETATM    8  O           1     -19.637  -8.390  -5.717  0.00  0.00    -0.646 OA
ENDBRANCH   5   6
BRANCH   5   9
HETATM    9  C           1     -21.252  -6.400  -4.074  0.00  0.00     0.217 C 
BRANCH   9  10
HETATM   10  O           1     -22.163  -6.045  -5.079  0.00  0.00    -0.287 OA
BRANCH  10  11
HETATM   11  P           1     -21.538  -5.303  -6.371  0.00  0.00     0.406 P 
HETATM   12  O           1     -20.475  -4.370  -5.938  0.00  0.00    -0.624 OA
HETATM   13  O           1     -22.602  -4.549  -7.070  0.00  0.00    -0.624 OA
BRANCH  11  14
HETATM   14  O           1     -20.912  -6.406  -7.371  0.00  0.00    -0.300 OA
HETATM   15  H           1     -20.094  -6.037  -7.660  0.00  0.00     0.223 HD
ENDBRANCH  11  14
ENDBRANCH  10  11
ENDBRANCH   9  10
ENDBRANCH   5   9
ENDBRANCH   2   5
BRANCH   4  16
HETATM   16  C           1     -22.043  -9.895  -0.789  0.00  0.00     0.278 C 
BRANCH  16  17
HETATM   17  C           1     -21.865  -8.668   0.095  0.00  0.00     0.017 C 
HETATM   18  C           1     -23.226  -8.187   0.578  0.00  0.00     0.012 C 
HETATM   19  C           1     -20.999  -9.029   1.294  0.00  0.00     0.012 C 
ENDBRANCH  16  17
BRANCH  16  20
HETATM   20  N           1     -20.996 -10.913  -0.447  0.00  0.00    -0.066 N 
HETATM   21  H           1     -20.523 -10.641   0.444  0.00  0.00     0.275 HD
HETATM   22  H           1     -21.446 -11.848  -0.329  0.00  0.00     0.275 HD
HETATM   23  H           1     -20.290 -10.959  -1.216  0.00  0.00     0.275 HD
ENDBRANCH  16  20
ENDBRANCH   4  16
TORSDOF 9
ENDMDL
MODEL 4
REMARK VINA RESULT:      -5.5      4.055      5.887
REMARK  9 active torsions:
REMARK  status: ('A' for Active; 'I' for Inactive)
REMARK    1  A    between atoms: C_2  and  C_21 
REMARK    2  A    between atoms: C_2  and  C_3 
REMARK    3  A    between atoms: C_2  and  N_8 
REMARK    4  A    between atoms: C_4  and  C_19 
REMARK    5  A    between atoms: P_5  and  O_6 
REMARK    6  A    between atoms: P_5  and  O_10 
REMARK    7  A    between atoms: O_6  and  C_23 
REMARK    8  A    between atoms: N_13  and  C_19 
REMARK       I    between atoms: N_13  and  C_21 
REMARK    9  A    between atoms: C_19  and  C_23 
ROOT
HETATM    1  O           1     -19.799  -8.891  -1.695  0.00  0.00    -0.271 OA
HETATM    2  N           1     -21.699  -8.706  -2.854  0.00  0.00    -0.343 N 
HETATM    3  H           1     -22.665  -8.984  -2.966  0.00  0.00     0.163 HD
HETATM    4  C           1     -20.953  -9.223  -1.829  0.00  0.00     0.249 C 
ENDROOT
BRANCH   2   5
HETATM    5  C           1     -21.104  -7.759  -3.778  0.00  0.00     0.210 C 
BRANCH   5   6
HETATM    6  C           1     -21.919  -6.488  -3.788  0.00  0.00     0.198 C 
HETATM    7  O           1     -22.206  -5.939  -4.873  0.00  0.00    -0.646 OA
HETATM    8  O           1     -22.305  -5.985  -2.711  0.00  0.00    -0.646 OA
ENDBRANCH   5   6
BRANCH   5   9
HETATM    9  C           1     -21.083  -8.360  -5.176  0.00  0.00     0.217 C 
BRANCH   9  10
HETATM   10  O           1     -19.761  -8.429  -5.637  0.00  0.00    -0.287 OA
BRANCH  10  11
HETATM   11  P           1     -18.932  -9.750  -5.216  0.00  0.00     0.406 P 
HETATM   12  O           1     -18.167 -10.244  -6.382  0.00  0.00    -0.624 OA
HETATM   13  O           1     -19.873 -10.799  -4.763  0.00  0.00    -0.624 OA
BRANCH  11  14
HETATM   14  O           1     -17.912  -9.385  -4.018  0.00  0.00    -0.300 OA
HETATM   15  H           1     -18.444  -8.958  -3.367  0.00  0.00     0.223 HD
ENDBRANCH  11  14
ENDBRANCH  10  11
ENDBRANCH   9  10
ENDBRANCH   5   9
ENDBRANCH   2   5
BRANCH   4  16
HETATM   16  C           1     -21.572 -10.209  -0.869  0.00  0.00     0.278 C 
BRANCH  16  17
HETATM   17  C           1     -23.028  -9.834  -0.623  0.00  0.00     0.017 C 
HETATM   18  C           1     -23.786 -11.049  -0.108  0.00  0.00     0.012 C 
HETATM   19  C           1     -23.096  -8.717   0.410  0.00  0.00     0.012 C 
ENDBRANCH  16  17
BRANCH  16  20
HETATM   20  N           1     -20.823 -10.178   0.431  0.00  0.00    -0.066 N 
HETATM   21  H           1     -20.453 -11.131   0.643  0.00  0.00     0.275 HD
HETATM   22  H           1     -20.028  -9.504   0.357  0.00  0.00     0.275 HD
HETATM   23  H           1     -21.467  -9.876   1.196  0.00  0.00     0.275 HD
ENDBRANCH  16  20
ENDBRANCH   4  16
TORSDOF 9
ENDMDL
MODEL 5
REMARK VINA RESULT:      -5.3      4.285      6.241
REMARK  9 active torsions:
REMARK  status: ('A' for Active; 'I' for Inactive)
REMARK    1  A    between atoms: C_2  and  C_21 
REMARK    2  A    between atoms: C_2  and  C_3 
REMARK    3  A    between atoms: C_2  and  N_8 
REMARK    4  A    between atoms: C_4  and  C_19 
REMARK    5  A    between atoms: P_5  and  O_6 
REMARK    6  A    between atoms: P_5  and  O_10 
REMARK    7  A    between atoms: O_6  and  C_23 
REMARK    8  A    between atoms: N_13  and  C_19 
REMARK       I    between atoms: N_13  and  C_21 
REMARK    9  A    between atoms: C_19  and  C_23 
ROOT
HETATM    1  O           1     -20.533 -10.002   0.549  0.00  0.00    -0.271 OA
HETATM    2  N           1     -21.692  -9.378  -1.256  0.00  0.00    -0.343 N 
HETATM    3  H           1     -22.331  -9.637  -1.996  0.00  0.00     0.163 HD
HETATM    4  C           1     -21.298 -10.311  -0.335  0.00  0.00     0.249 C 
ENDROOT
BRANCH   2   5
HETATM    5  C           1     -21.194  -8.019  -1.170  0.00  0.00     0.210 C 
BRANCH   5   6
HETATM    6  C           1     -22.347  -7.076  -0.929  0.00  0.00     0.198 C 
HETATM    7  O           1     -23.209  -7.352  -0.067  0.00  0.00    -0.646 OA
HETATM    8  O           1     -22.439  -6.019  -1.589  0.00  0.00    -0.646 OA
ENDBRANCH   5   6
BRANCH   5   9
HETATM    9  C           1     -20.500  -7.650  -2.475  0.00  0.00     0.217 C 
BRANCH   9  10
HETATM   10  O           1     -21.194  -8.222  -3.551  0.00  0.00    -0.287 OA
BRANCH  10  11
HETATM   11  P           1     -21.361  -7.290  -4.860  0.00  0.00     0.406 P 
HETATM   12  O           1     -21.441  -8.143  -6.066  0.00  0.00    -0.624 OA
HETATM   13  O           1     -20.196  -6.384  -4.974  0.00  0.00    -0.624 OA
BRANCH  11  14
HETATM   14  O           1     -22.713  -6.416  -4.728  0.00  0.00    -0.300 OA
HETATM   15  H           1     -22.603  -5.915  -3.937  0.00  0.00     0.223 HD
ENDBRANCH  11  14
ENDBRANCH  10  11
ENDBRANCH   9  10
ENDBRANCH   5   9
ENDBRANCH   2   5
BRANCH   4  16
HETATM   16  C           1     -21.815 -11.725  -0.424  0.00  0.00     0.278 C 
BRANCH  16  17
HETATM   17  C           1     -23.213 -11.794   0.177  0.00  0.00     0.017 C 
HETATM   18  C           1     -24.246 -11.850  -0.940  0.00  0.00     0.012 C 
HETATM   19  C           1     -23.332 -13.042   1.042  0.00  0.00     0.012 C 
ENDBRANCH  16  17
BRANCH  16  20
HETATM   20  N           1     -20.901 -12.642   0.333  0.00  0.00    -0.066 N 
HETATM   21  H           1     -20.301 -12.081   0.979  0.00  0.00     0.275 HD
HETATM   22  H           1     -21.470 -13.319   0.888  0.00  0.00     0.275 HD
HETATM   23  H           1     -20.295 -13.163  -0.340  0.00  0.00     0.275 HD
ENDBRANCH  16  20
ENDBRANCH   4  16
TORSDOF 9
ENDMDL
MODEL 6
REMARK VINA RESULT:      -5.1      4.216      6.257
REMARK  9 active torsions:
REMARK  status: ('A' for Active; 'I' for Inactive)
REMARK    1  A    between atoms: C_2  and  C_21 
REMARK    2  A    between atoms: C_2  and  C_3 
REMARK    3  A    between atoms: C_2  and  N_8 
REMARK    4  A    between atoms: C_4  and  C_19 
REMARK    5  A    between atoms: P_5  and  O_6 
REMARK    6  A    between atoms: P_5  and  O_10 
REMARK    7  A    between atoms: O_6  and  C_23 
REMARK    8  A    between atoms: N_13  and  C_19 
REMARK       I    between atoms: N_13  and  C_21 
REMARK    9  A    between atoms: C_19  and  C_23 
ROOT
HETATM    1  O           1     -21.470  -9.763  -4.090  0.00  0.00    -0.271 OA
HETATM    2  N           1     -20.511  -7.749  -4.187  0.00  0.00    -0.343 N 
HETATM    3  H           1     -19.671  -7.205  -4.339  0.00  0.00     0.163 HD
HETATM    4  C           1     -20.467  -9.114  -4.271  0.00  0.00     0.249 C 
ENDROOT
BRANCH   2   5
HETATM    5  C           1     -21.762  -7.080  -3.883  0.00  0.00     0.210 C 
BRANCH   5   6
HETATM    6  C           1     -22.168  -6.217  -5.052  0.00  0.00     0.198 C 
HETATM    7  O           1     -23.378  -5.995  -5.275  0.00  0.00    -0.646 OA
HETATM    8  O           1     -21.294  -5.723  -5.797  0.00  0.00    -0.646 OA
ENDBRANCH   5   6
BRANCH   5   9
HETATM    9  C           1     -21.584  -6.211  -2.646  0.00  0.00     0.217 C 
BRANCH   9  10
HETATM   10  O           1     -22.401  -6.693  -1.613  0.00  0.00    -0.287 OA
BRANCH  10  11
HETATM   11  P           1     -21.805  -7.926  -0.757  0.00  0.00     0.406 P 
HETATM   12  O           1     -22.107  -7.723   0.677  0.00  0.00    -0.624 OA
HETATM   13  O           1     -20.339  -7.996  -0.947  0.00  0.00    -0.624 OA
BRANCH  11  14
HETATM   14  O           1     -22.481  -9.304  -1.259  0.00  0.00    -0.300 OA
HETATM   15  H           1     -23.196  -9.037  -1.812  0.00  0.00     0.223 HD
ENDBRANCH  11  14
ENDBRANCH  10  11
ENDBRANCH   9  10
ENDBRANCH   5   9
ENDBRANCH   2   5
BRANCH   4  16
HETATM   16  C           1     -19.166  -9.809  -4.587  0.00  0.00     0.278 C 
BRANCH  16  17
HETATM   17  C           1     -18.181  -9.586  -3.447  0.00  0.00     0.017 C 
HETATM   18  C           1     -18.430 -10.613  -2.352  0.00  0.00     0.012 C 
HETATM   19  C           1     -16.758  -9.737  -3.969  0.00  0.00     0.012 C 
ENDBRANCH  16  17
BRANCH  16  20
HETATM   20  N           1     -18.594  -9.248  -5.856  0.00  0.00    -0.066 N 
HETATM   21  H           1     -17.711  -8.733  -5.644  0.00  0.00     0.275 HD
HETATM   22  H           1     -18.391 -10.029  -6.520  0.00  0.00     0.275 HD
HETATM   23  H           1     -19.284  -8.593  -6.288  0.00  0.00     0.275 HD
ENDBRANCH  16  20
ENDBRANCH   4  16
TORSDOF 9
ENDMDL
MODEL 7
REMARK VINA RESULT:      -5.0      4.793      6.367
REMARK  9 active torsions:
REMARK  status: ('A' for Active; 'I' for Inactive)
REMARK    1  A    between atoms: C_2  and  C_21 
REMARK    2  A    between atoms: C_2  and  C_3 
REMARK    3  A    between atoms: C_2  and  N_8 
REMARK    4  A    between atoms: C_4  and  C_19 
REMARK    5  A    between atoms: P_5  and  O_6 
REMARK    6  A    between atoms: P_5  and  O_10 
REMARK    7  A    between atoms: O_6  and  C_23 
REMARK    8  A    between atoms: N_13  and  C_19 
REMARK       I    between atoms: N_13  and  C_21 
REMARK    9  A    between atoms: C_19  and  C_23 
ROOT
HETATM    1  O           1     -20.100 -10.070  -1.101  0.00  0.00    -0.271 OA
HETATM    2  N           1     -21.919  -9.253  -2.104  0.00  0.00    -0.343 N 
HETATM    3  H           1     -22.878  -9.398  -2.392  0.00  0.00     0.163 HD
HETATM    4  C           1     -21.245 -10.244  -1.445  0.00  0.00     0.249 C 
ENDROOT
BRANCH   2   5
HETATM    5  C           1     -21.261  -7.992  -2.388  0.00  0.00     0.210 C 
BRANCH   5   6
HETATM    6  C           1     -22.047  -6.863  -1.769  0.00  0.00     0.198 C 
HETATM    7  O           1     -22.344  -5.860  -2.452  0.00  0.00    -0.646 OA
HETATM    8  O           1     -22.401  -6.932  -0.572  0.00  0.00    -0.646 OA
ENDBRANCH   5   6
BRANCH   5   9
HETATM    9  C           1     -21.182  -7.790  -3.896  0.00  0.00     0.217 C 
BRANCH   9  10
HETATM   10  O           1     -19.856  -7.954  -4.322  0.00  0.00    -0.287 OA
BRANCH  10  11
HETATM   11  P           1     -19.508  -9.366  -5.023  0.00  0.00     0.406 P 
HETATM   12  O           1     -18.472  -9.160  -6.060  0.00  0.00    -0.624 OA
HETATM   13  O           1     -20.728  -9.921  -5.649  0.00  0.00    -0.624 OA
BRANCH  11  14
HETATM   14  O           1     -18.955 -10.397  -3.909  0.00  0.00    -0.300 OA
HETATM   15  H           1     -18.679  -9.853  -3.190  0.00  0.00     0.223 HD
ENDBRANCH  11  14
ENDBRANCH  10  11
ENDBRANCH   9  10
ENDBRANCH   5   9
ENDBRANCH   2   5
BRANCH   4  16
HETATM   16  C           1     -21.930 -11.556  -1.150  0.00  0.00     0.278 C 
BRANCH  16  17
HETATM   17  C           1     -22.682 -11.450   0.171  0.00  0.00     0.017 C 
HETATM   18  C           1     -24.121 -11.031  -0.096  0.00  0.00     0.012 C 
HETATM   19  C           1     -22.668 -12.802   0.871  0.00  0.00     0.012 C 
ENDBRANCH  16  17
BRANCH  16  20
HETATM   20  N           1     -20.904 -12.646  -1.054  0.00  0.00    -0.066 N 
HETATM   21  H           1     -21.257 -13.403  -0.427  0.00  0.00     0.275 HD
HETATM   22  H           1     -20.725 -13.038  -2.006  0.00  0.00     0.275 HD
HETATM   23  H           1     -20.017 -12.255  -0.664  0.00  0.00     0.275 HD
ENDBRANCH  16  20
ENDBRANCH   4  16
TORSDOF 9
ENDMDL
MODEL 8
REMARK VINA RESULT:      -4.9      4.193      5.999
REMARK  9 active torsions:
REMARK  status: ('A' for Active; 'I' for Inactive)
REMARK    1  A    between atoms: C_2  and  C_21 
REMARK    2  A    between atoms: C_2  and  C_3 
REMARK    3  A    between atoms: C_2  and  N_8 
REMARK    4  A    between atoms: C_4  and  C_19 
REMARK    5  A    between atoms: P_5  and  O_6 
REMARK    6  A    between atoms: P_5  and  O_10 
REMARK    7  A    between atoms: O_6  and  C_23 
REMARK    8  A    between atoms: N_13  and  C_19 
REMARK       I    between atoms: N_13  and  C_21 
REMARK    9  A    between atoms: C_19  and  C_23 
ROOT
HETATM    1  O           1     -19.663  -9.629  -1.753  0.00  0.00    -0.271 OA
HETATM    2  N           1     -21.278  -8.883  -3.103  0.00  0.00    -0.343 N 
HETATM    3  H           1     -22.259  -8.672  -3.231  0.00  0.00     0.163 HD
HETATM    4  C           1     -20.835  -9.376  -1.906  0.00  0.00     0.249 C 
ENDROOT
BRANCH   2   5
HETATM    5  C           1     -20.341  -8.662  -4.188  0.00  0.00     0.210 C 
BRANCH   5   6
HETATM    6  C           1     -20.707  -7.393  -4.917  0.00  0.00     0.198 C 
HETATM    7  O           1     -21.472  -6.562  -4.380  0.00  0.00    -0.646 OA
HETATM    8  O           1     -20.247  -7.172  -6.058  0.00  0.00    -0.646 OA
ENDBRANCH   5   6
BRANCH   5   9
HETATM    9  C           1     -20.398  -9.838  -5.154  0.00  0.00     0.217 C 
BRANCH   9  10
HETATM   10  O           1     -19.334 -10.712  -4.891  0.00  0.00    -0.287 OA
BRANCH  10  11
HETATM   11  P           1     -17.893 -10.267  -5.469  0.00  0.00     0.406 P 
HETATM   12  O           1     -17.217 -11.439  -6.067  0.00  0.00    -0.624 OA
HETATM   13  O           1     -17.064  -9.729  -4.367  0.00  0.00    -0.624 OA
BRANCH  11  14
HETATM   14  O           1     -18.096  -9.129  -6.597  0.00  0.00    -0.300 OA
HETATM   15  H           1     -18.391  -9.595  -7.362  0.00  0.00     0.223 HD
ENDBRANCH  11  14
ENDBRANCH  10  11
ENDBRANCH   9  10
ENDBRANCH   5   9
ENDBRANCH   2   5
BRANCH   4  16
HETATM   16  C           1     -21.809  -9.607  -0.777  0.00  0.00     0.278 C 
BRANCH  16  17
HETATM   17  C           1     -21.814  -8.395   0.145  0.00  0.00     0.017 C 
HETATM   18  C           1     -23.247  -8.049   0.523  0.00  0.00     0.012 C 
HETATM   19  C           1     -21.020  -8.714   1.405  0.00  0.00     0.012 C 
ENDBRANCH  16  17
BRANCH  16  20
HETATM   20  N           1     -21.398 -10.823  -0.001  0.00  0.00    -0.066 N 
HETATM   21  H           1     -22.210 -11.175   0.553  0.00  0.00     0.275 HD
HETATM   22  H           1     -21.081 -11.566  -0.664  0.00  0.00     0.275 HD
HETATM   23  H           1     -20.616 -10.574   0.646  0.00  0.00     0.275 HD
ENDBRANCH  16  20
ENDBRANCH   4  16
TORSDOF 9
ENDMDL
MODEL 9
REMARK VINA RESULT:      -4.8      5.630      7.019
REMARK  9 active torsions:
REMARK  status: ('A' for Active; 'I' for Inactive)
REMARK    1  A    between atoms: C_2  and  C_21 
REMARK    2  A    between atoms: C_2  and  C_3 
REMARK    3  A    between atoms: C_2  and  N_8 
REMARK    4  A    between atoms: C_4  and  C_19 
REMARK    5  A    between atoms: P_5  and  O_6 
REMARK    6  A    between atoms: P_5  and  O_10 
REMARK    7  A    between atoms: O_6  and  C_23 
REMARK    8  A    between atoms: N_13  and  C_19 
REMARK       I    between atoms: N_13  and  C_21 
REMARK    9  A    between atoms: C_19  and  C_23 
ROOT
HETATM    1  O           1     -21.553 -10.778  -2.827  0.00  0.00    -0.271 OA
HETATM    2  N           1     -20.006 -10.117  -1.359  0.00  0.00    -0.343 N 
HETATM    3  H           1     -19.777  -9.553  -0.550  0.00  0.00     0.163 HD
HETATM    4  C           1     -21.279 -10.105  -1.861  0.00  0.00     0.249 C 
ENDROOT
BRANCH   2   5
HETATM    5  C           1     -18.986 -10.937  -1.984  0.00  0.00     0.210 C 
BRANCH   5   6
HETATM    6  C           1     -18.166 -11.619  -0.916  0.00  0.00     0.198 C 
HETATM    7  O           1     -18.718 -12.031   0.127  0.00  0.00    -0.646 OA
HETATM    8  O           1     -16.936 -11.772  -1.075  0.00  0.00    -0.646 OA
ENDBRANCH   5   6
BRANCH   5   9
HETATM    9  C           1     -18.081 -10.058  -2.836  0.00  0.00     0.217 C 
BRANCH   9  10
HETATM   10  O           1     -18.134 -10.485  -4.170  0.00  0.00    -0.287 OA
BRANCH  10  11
HETATM   11  P           1     -19.004  -9.566  -5.174  0.00  0.00     0.406 P 
HETATM   12  O           1     -18.171  -9.177  -6.333  0.00  0.00    -0.624 OA
HETATM   13  O           1     -19.456  -8.350  -4.463  0.00  0.00    -0.624 OA
BRANCH  11  14
HETATM   14  O           1     -20.288 -10.399  -5.689  0.00  0.00    -0.300 OA
HETATM   15  H           1     -21.008 -10.083  -5.170  0.00  0.00     0.223 HD
ENDBRANCH  11  14
ENDBRANCH  10  11
ENDBRANCH   9  10
ENDBRANCH   5   9
ENDBRANCH   2   5
BRANCH   4  16
HETATM   16  C           1     -22.340  -9.252  -1.211  0.00  0.00     0.278 C 
BRANCH  16  17
HETATM   17  C           1     -21.687  -8.040  -0.558  0.00  0.00     0.017 C 
HETATM   18  C           1     -22.270  -6.766  -1.152  0.00  0.00     0.012 C 
HETATM   19  C           1     -21.951  -8.069   0.941  0.00  0.00     0.012 C 
ENDBRANCH  16  17
BRANCH  16  20
HETATM   20  N           1     -23.058 -10.055  -0.167  0.00  0.00    -0.066 N 
HETATM   21  H           1     -23.019 -11.068  -0.419  0.00  0.00     0.275 HD
HETATM   22  H           1     -22.598  -9.909   0.760  0.00  0.00     0.275 HD
HETATM   23  H           1     -24.055  -9.746  -0.116  0.00  0.00     0.275 HD
ENDBRANCH  16  20
ENDBRANCH   4  16
TORSDOF 9
ENDMDL
