MODEL 1
REMARK VINA RESULT:      -5.8      0.000      0.000
REMARK  7 active torsions:
REMARK  status: ('A' for Active; 'I' for Inactive)
REMARK    1  A    between atoms: C_1  and  O_8 
REMARK    2  A    between atoms: C_1  and  C_15 
REMARK    3  A    between atoms: C_6  and  C_19 
REMARK    4  A    between atoms: N_10  and  C_19 
REMARK    5  A    between atoms: N_14  and  C_15 
REMARK       I    between atoms: N_14  and  C_18 
REMARK    6  A    between atoms: C_15  and  C_16 
REMARK    7  A    between atoms: C_18  and  C_19 
ROOT
HETATM    1  O           1     -21.166  -3.657  -7.971  0.00  0.00    -0.271 OA
HETATM    2  H           1     -22.600  -6.020  -9.455  0.00  0.00     0.163 HD
HETATM    3  N           1     -22.287  -5.072  -9.285  0.00  0.00    -0.343 N 
HETATM    4  C           1     -21.540  -4.787  -8.174  0.00  0.00     0.249 C 
ENDROOT
BRANCH   4   5
HETATM    5  C           1     -21.181  -5.886  -7.204  0.00  0.00     0.278 C 
BRANCH   5   6
HETATM    6  C           1     -21.530  -5.447  -5.788  0.00  0.00     0.017 C 
HETATM    7  C           1     -22.178  -6.605  -5.042  0.00  0.00     0.012 C 
HETATM    8  C           1     -20.261  -5.022  -5.061  0.00  0.00     0.012 C 
ENDBRANCH   5   6
BRANCH   5   9
HETATM    9  N           1     -19.711  -6.170  -7.290  0.00  0.00    -0.066 N 
HETATM   10  H           1     -19.434  -6.276  -8.292  0.00  0.00     0.275 HD
HETATM   11  H           1     -19.179  -5.378  -6.864  0.00  0.00     0.275 HD
HETATM   12  H           1     -19.496  -7.052  -6.773  0.00  0.00     0.275 HD
ENDBRANCH   5   9
ENDBRANCH   4   5
BRANCH   3  13
HETATM   13  C           1     -22.631  -4.017 -10.217  0.00  0.00     0.209 C 
BRANCH  13  14
HETATM   14  C           1     -22.071  -4.352 -11.593  0.00  0.00     0.200 C 
BRANCH  14  15
HETATM   15  O           1     -23.112  -4.772 -12.433  0.00  0.00    -0.398 OA
HETATM   16  H           1     -23.149  -4.160 -13.149  0.00  0.00     0.209 HD
ENDBRANCH  14  15
ENDBRANCH  13  14
BRANCH  13  17
HETATM   17  C           1     -24.133  -3.890 -10.302  0.00  0.00     0.198 C 
HETATM   18  O           1     -24.647  -2.869 -10.806  0.00  0.00    -0.646 OA
HETATM   19  O           1     -24.863  -4.807  -9.865  0.00  0.00    -0.646 OA
ENDBRANCH  13  17
ENDBRANCH   3  13
TORSDOF 7
ENDMDL
MODEL 2
REMARK VINA RESULT:      -5.3     10.653     12.280
REMARK  7 active torsions:
REMARK  status: ('A' for Active; 'I' for Inactive)
REMARK    1  A    between atoms: C_1  and  O_8 
REMARK    2  A    between atoms: C_1  and  C_15 
REMARK    3  A    between atoms: C_6  and  C_19 
REMARK    4  A    between atoms: N_10  and  C_19 
REMARK    5  A    between atoms: N_14  and  C_15 
REMARK       I    between atoms: N_14  and  C_18 
REMARK    6  A    between atoms: C_15  and  C_16 
REMARK    7  A    between atoms: C_18  and  C_19 
ROOT
HETATM    1  O           1     -28.304  -5.176 -19.114  0.00  0.00    -0.271 OA
HETATM    2  H           1     -27.488  -8.192 -18.836  0.00  0.00     0.163 HD
HETATM    3  N           1     -27.479  -7.248 -19.203  0.00  0.00    -0.343 N 
HETATM    4  C           1     -28.315  -6.301 -18.677  0.00  0.00     0.249 C 
ENDROOT
BRANCH   4   5
HETATM    5  C           1     -29.248  -6.663 -17.548  0.00  0.00     0.278 C 
BRANCH   5   6
HETATM    6  C           1     -29.584  -5.412 -16.745  0.00  0.00     0.017 C 
HETATM    7  C           1     -31.066  -5.096 -16.893  0.00  0.00     0.012 C 
HETATM    8  C           1     -29.260  -5.650 -15.276  0.00  0.00     0.012 C 
ENDBRANCH   5   6
BRANCH   5   9
HETATM    9  N           1     -28.586  -7.667 -16.652  0.00  0.00    -0.066 N 
HETATM   10  H           1     -29.310  -8.151 -16.074  0.00  0.00     0.275 HD
HETATM   11  H           1     -28.079  -8.371 -17.236  0.00  0.00     0.275 HD
HETATM   12  H           1     -27.907  -7.180 -16.025  0.00  0.00     0.275 HD
ENDBRANCH   5   9
ENDBRANCH   4   5
BRANCH   3  13
HETATM   13  C           1     -26.582  -6.902 -20.287  0.00  0.00     0.209 C 
BRANCH  13  14
HETATM   14  C           1     -25.217  -6.535 -19.720  0.00  0.00     0.200 C 
BRANCH  14  15
HETATM   15  O           1     -24.605  -7.682 -19.194  0.00  0.00    -0.398 OA
HETATM   16  H           1     -24.647  -8.345 -19.862  0.00  0.00     0.209 HD
ENDBRANCH  14  15
ENDBRANCH  13  14
BRANCH  13  17
HETATM   17  C           1     -26.440  -8.080 -21.220  0.00  0.00     0.198 C 
HETATM   18  O           1     -25.342  -8.315 -21.768  0.00  0.00    -0.646 OA
HETATM   19  O           1     -27.423  -8.819 -21.446  0.00  0.00    -0.646 OA
ENDBRANCH  13  17
ENDBRANCH   3  13
TORSDOF 7
ENDMDL
MODEL 3
REMARK VINA RESULT:      -5.3      9.866     11.421
REMARK  7 active torsions:
REMARK  status: ('A' for Active; 'I' for Inactive)
REMARK    1  A    between atoms: C_1  and  O_8 
REMARK    2  A    between atoms: C_1  and  C_15 
REMARK    3  A    between atoms: C_6  and  C_19 
REMARK    4  A    between atoms: N_10  and  C_19 
REMARK    5  A    between atoms: N_14  and  C_15 
REMARK       I    between atoms: N_14  and  C_18 
REMARK    6  A    between atoms: C_15  and  C_16 
REMARK    7  A    between atoms: C_18  and  C_19 
ROOT
HETATM    1  O           1     -26.107  -5.324 -16.491  0.00  0.00    -0.271 OA
HETATM    2  H           1     -27.049  -7.237 -18.792  0.00  0.00     0.163 HD
HETATM    3  N           1     -26.416  -6.657 -18.255  0.00  0.00    -0.343 N 
HETATM    4  C           1     -26.862  -6.015 -17.131  0.00  0.00     0.249 C 
ENDROOT
BRANCH   4   5
HETATM    5  C           1     -28.296  -6.175 -16.691  0.00  0.00     0.278 C 
BRANCH   5   6
HETATM    6  C           1     -29.206  -6.172 -17.913  0.00  0.00     0.017 C 
HETATM    7  C           1     -30.480  -6.944 -17.599  0.00  0.00     0.012 C 
HETATM    8  C           1     -29.559  -4.737 -18.279  0.00  0.00     0.012 C 
ENDBRANCH   5   6
BRANCH   5   9
HETATM    9  N           1     -28.672  -5.038 -15.787  0.00  0.00    -0.066 N 
HETATM   10  H           1     -28.197  -4.164 -16.109  0.00  0.00     0.275 HD
HETATM   11  H           1     -29.708  -4.901 -15.815  0.00  0.00     0.275 HD
HETATM   12  H           1     -28.376  -5.257 -14.810  0.00  0.00     0.275 HD
ENDBRANCH   5   9
ENDBRANCH   4   5
BRANCH   3  13
HETATM   13  C           1     -25.038  -6.505 -18.678  0.00  0.00     0.209 C 
BRANCH  13  14
HETATM   14  C           1     -24.138  -7.363 -17.799  0.00  0.00     0.200 C 
BRANCH  14  15
HETATM   15  O           1     -22.812  -7.256 -18.240  0.00  0.00    -0.398 OA
HETATM   16  H           1     -22.598  -6.338 -18.241  0.00  0.00     0.209 HD
ENDBRANCH  14  15
ENDBRANCH  13  14
BRANCH  13  17
HETATM   17  C           1     -24.902  -6.941 -20.116  0.00  0.00     0.198 C 
HETATM   18  O           1     -24.373  -8.040 -20.390  0.00  0.00    -0.646 OA
HETATM   19  O           1     -25.316  -6.201 -21.036  0.00  0.00    -0.646 OA
ENDBRANCH  13  17
ENDBRANCH   3  13
TORSDOF 7
ENDMDL
MODEL 4
REMARK VINA RESULT:      -5.3      9.016     10.778
REMARK  7 active torsions:
REMARK  status: ('A' for Active; 'I' for Inactive)
REMARK    1  A    between atoms: C_1  and  O_8 
REMARK    2  A    between atoms: C_1  and  C_15 
REMARK    3  A    between atoms: C_6  and  C_19 
REMARK    4  A    between atoms: N_10  and  C_19 
REMARK    5  A    between atoms: N_14  and  C_15 
REMARK       I    between atoms: N_14  and  C_18 
REMARK    6  A    between atoms: C_15  and  C_16 
REMARK    7  A    between atoms: C_18  and  C_19 
ROOT
HETATM    1  O           1     -26.744  -4.873 -16.571  0.00  0.00    -0.271 OA
HETATM    2  H           1     -26.706  -7.541 -18.219  0.00  0.00     0.163 HD
HETATM    3  N           1     -26.337  -6.762 -17.689  0.00  0.00    -0.343 N 
HETATM    4  C           1     -27.184  -5.802 -17.203  0.00  0.00     0.249 C 
ENDROOT
BRANCH   4   5
HETATM    5  C           1     -28.668  -5.908 -17.457  0.00  0.00     0.278 C 
BRANCH   5   6
HETATM    6  C           1     -29.421  -5.099 -16.409  0.00  0.00     0.017 C 
HETATM    7  C           1     -30.869  -4.925 -16.845  0.00  0.00     0.012 C 
HETATM    8  C           1     -29.379  -5.833 -15.075  0.00  0.00     0.012 C 
ENDBRANCH   5   6
BRANCH   5   9
HETATM    9  N           1     -29.088  -7.346 -17.374  0.00  0.00    -0.066 N 
HETATM   10  H           1     -30.123  -7.399 -17.239  0.00  0.00     0.275 HD
HETATM   11  H           1     -28.828  -7.834 -18.261  0.00  0.00     0.275 HD
HETATM   12  H           1     -28.607  -7.804 -16.569  0.00  0.00     0.275 HD
ENDBRANCH   5   9
ENDBRANCH   4   5
BRANCH   3  13
HETATM   13  C           1     -24.911  -6.661 -17.446  0.00  0.00     0.209 C 
BRANCH  13  14
HETATM   14  C           1     -24.517  -7.618 -16.330  0.00  0.00     0.200 C 
BRANCH  14  15
HETATM   15  O           1     -24.915  -7.087 -15.095  0.00  0.00    -0.398 OA
HETATM   16  H           1     -24.385  -6.323 -14.942  0.00  0.00     0.209 HD
ENDBRANCH  14  15
ENDBRANCH  13  14
BRANCH  13  17
HETATM   17  C           1     -24.160  -7.018 -18.705  0.00  0.00     0.198 C 
HETATM   18  O           1     -22.911  -7.069 -18.695  0.00  0.00    -0.646 OA
HETATM   19  O           1     -24.786  -7.261 -19.760  0.00  0.00    -0.646 OA
ENDBRANCH  13  17
ENDBRANCH   3  13
TORSDOF 7
ENDMDL
MODEL 5
REMARK VINA RESULT:      -5.2      1.693      2.494
REMARK  7 active torsions:
REMARK  status: ('A' for Active; 'I' for Inactive)
REMARK    1  A    between atoms: C_1  and  O_8 
REMARK    2  A    between atoms: C_1  and  C_15 
REMARK    3  A    between atoms: C_6  and  C_19 
REMARK    4  A    between atoms: N_10  and  C_19 
REMARK    5  A    between atoms: N_14  and  C_15 
REMARK       I    between atoms: N_14  and  C_18 
REMARK    6  A    between atoms: C_15  and  C_16 
REMARK    7  A    between atoms: C_18  and  C_19 
ROOT
HETATM    1  O           1     -20.940  -5.667  -8.545  0.00  0.00    -0.271 OA
HETATM    2  H           1     -23.383  -3.749  -8.977  0.00  0.00     0.163 HD
HETATM    3  N           1     -22.615  -4.359  -9.227  0.00  0.00    -0.343 N 
HETATM    4  C           1     -21.856  -4.939  -8.247  0.00  0.00     0.249 C 
ENDROOT
BRANCH   4   5
HETATM    5  C           1     -22.166  -4.672  -6.795  0.00  0.00     0.278 C 
BRANCH   5   6
HETATM    6  C           1     -21.402  -5.658  -5.922  0.00  0.00     0.017 C 
HETATM    7  C           1     -20.330  -4.917  -5.136  0.00  0.00     0.012 C 
HETATM    8  C           1     -22.366  -6.332  -4.954  0.00  0.00     0.012 C 
ENDBRANCH   5   6
BRANCH   5   9
HETATM    9  N           1     -23.639  -4.834  -6.559  0.00  0.00    -0.066 N 
HETATM   10  H           1     -24.104  -5.131  -7.446  0.00  0.00     0.275 HD
HETATM   11  H           1     -23.794  -5.561  -5.824  0.00  0.00     0.275 HD
HETATM   12  H           1     -24.043  -3.924  -6.241  0.00  0.00     0.275 HD
ENDBRANCH   5   9
ENDBRANCH   4   5
BRANCH   3  13
HETATM   13  C           1     -22.318  -4.615 -10.623  0.00  0.00     0.209 C 
BRANCH  13  14
HETATM   14  C           1     -23.617  -4.699 -11.412  0.00  0.00     0.200 C 
BRANCH  14  15
HETATM   15  O           1     -24.532  -3.762 -10.910  0.00  0.00    -0.398 OA
HETATM   16  H           1     -24.610  -3.083 -11.558  0.00  0.00     0.209 HD
ENDBRANCH  14  15
ENDBRANCH  13  14
BRANCH  13  17
HETATM   17  C           1     -21.467  -3.496 -11.170  0.00  0.00     0.198 C 
HETATM   18  O           1     -22.004  -2.445 -11.581  0.00  0.00    -0.646 OA
HETATM   19  O           1     -20.223  -3.621 -11.215  0.00  0.00    -0.646 OA
ENDBRANCH  13  17
ENDBRANCH   3  13
TORSDOF 7
ENDMDL
MODEL 6
REMARK VINA RESULT:      -5.1     11.779     13.593
REMARK  7 active torsions:
REMARK  status: ('A' for Active; 'I' for Inactive)
REMARK    1  A    between atoms: C_1  and  O_8 
REMARK    2  A    between atoms: C_1  and  C_15 
REMARK    3  A    between atoms: C_6  and  C_19 
REMARK    4  A    between atoms: N_10  and  C_19 
REMARK    5  A    between atoms: N_14  and  C_15 
REMARK       I    between atoms: N_14  and  C_18 
REMARK    6  A    between atoms: C_15  and  C_16 
REMARK    7  A    between atoms: C_18  and  C_19 
ROOT
HETATM    1  O           1     -34.987  -5.121 -15.445  0.00  0.00    -0.271 OA
HETATM    2  H           1     -32.481  -3.540 -14.417  0.00  0.00     0.163 HD
HETATM    3  N           1     -33.370  -4.022 -14.368  0.00  0.00    -0.343 N 
HETATM    4  C           1     -33.928  -4.546 -15.503  0.00  0.00     0.249 C 
ENDROOT
BRANCH   4   5
HETATM    5  C           1     -33.216  -4.408 -16.826  0.00  0.00     0.278 C 
BRANCH   5   6
HETATM    6  C           1     -31.726  -4.654 -16.630  0.00  0.00     0.017 C 
HETATM    7  C           1     -31.383  -6.072 -17.063  0.00  0.00     0.012 C 
HETATM    8  C           1     -30.933  -3.662 -17.471  0.00  0.00     0.012 C 
ENDBRANCH   5   6
BRANCH   5   9
HETATM    9  N           1     -33.426  -3.024 -17.365  0.00  0.00    -0.066 N 
HETATM   10  H           1     -34.447  -2.800 -17.366  0.00  0.00     0.275 HD
HETATM   11  H           1     -32.920  -2.336 -16.763  0.00  0.00     0.275 HD
HETATM   12  H           1     -33.057  -2.970 -18.341  0.00  0.00     0.275 HD
ENDBRANCH   5   9
ENDBRANCH   4   5
BRANCH   3  13
HETATM   13  C           1     -34.053  -4.155 -13.096  0.00  0.00     0.209 C 
BRANCH  13  14
HETATM   14  C           1     -33.028  -4.349 -11.987  0.00  0.00     0.200 C 
BRANCH  14  15
HETATM   15  O           1     -32.771  -3.118 -11.367  0.00  0.00    -0.398 OA
HETATM   16  H           1     -33.398  -3.027 -10.669  0.00  0.00     0.209 HD
ENDBRANCH  14  15
ENDBRANCH  13  14
BRANCH  13  17
HETATM   17  C           1     -34.860  -2.909 -12.826  0.00  0.00     0.198 C 
HETATM   18  O           1     -35.638  -2.868 -11.849  0.00  0.00    -0.646 OA
HETATM   19  O           1     -34.750  -1.917 -13.580  0.00  0.00    -0.646 OA
ENDBRANCH  13  17
ENDBRANCH   3  13
TORSDOF 7
ENDMDL
MODEL 7
REMARK VINA RESULT:      -4.9      3.177      4.933
REMARK  7 active torsions:
REMARK  status: ('A' for Active; 'I' for Inactive)
REMARK    1  A    between atoms: C_1  and  O_8 
REMARK    2  A    between atoms: C_1  and  C_15 
REMARK    3  A    between atoms: C_6  and  C_19 
REMARK    4  A    between atoms: N_10  and  C_19 
REMARK    5  A    between atoms: N_14  and  C_15 
REMARK       I    between atoms: N_14  and  C_18 
REMARK    6  A    between atoms: C_15  and  C_16 
REMARK    7  A    between atoms: C_18  and  C_19 
ROOT
HETATM    1  O           1     -22.252  -7.455  -4.944  0.00  0.00    -0.271 OA
HETATM    2  H           1     -20.574  -4.808  -4.809  0.00  0.00     0.163 HD
HETATM    3  N           1     -21.116  -5.554  -5.227  0.00  0.00    -0.343 N 
HETATM    4  C           1     -21.606  -6.566  -4.446  0.00  0.00     0.249 C 
ENDROOT
BRANCH   4   5
HETATM    5  C           1     -21.339  -6.567  -2.961  0.00  0.00     0.278 C 
BRANCH   5   6
HETATM    6  C           1     -21.355  -7.999  -2.443  0.00  0.00     0.017 C 
HETATM    7  C           1     -19.935  -8.549  -2.425  0.00  0.00     0.012 C 
HETATM    8  C           1     -21.925  -8.023  -1.031  0.00  0.00     0.012 C 
ENDBRANCH   5   6
BRANCH   5   9
HETATM    9  N           1     -22.402  -5.773  -2.261  0.00  0.00    -0.066 N 
HETATM   10  H           1     -22.714  -6.285  -1.405  0.00  0.00     0.275 HD
HETATM   11  H           1     -22.015  -4.841  -1.987  0.00  0.00     0.275 HD
HETATM   12  H           1     -23.216  -5.638  -2.902  0.00  0.00     0.275 HD
ENDBRANCH   5   9
ENDBRANCH   4   5
BRANCH   3  13
HETATM   13  C           1     -21.371  -5.552  -6.654  0.00  0.00     0.209 C 
BRANCH  13  14
HETATM   14  C           1     -22.501  -4.580  -6.967  0.00  0.00     0.200 C 
BRANCH  14  15
HETATM   15  O           1     -21.964  -3.341  -7.343  0.00  0.00    -0.398 OA
HETATM   16  H           1     -21.199  -3.202  -6.810  0.00  0.00     0.209 HD
ENDBRANCH  14  15
ENDBRANCH  13  14
BRANCH  13  17
HETATM   17  C           1     -20.123  -5.126  -7.388  0.00  0.00     0.198 C 
HETATM   18  O           1     -19.155  -4.654  -6.755  0.00  0.00    -0.646 OA
HETATM   19  O           1     -20.059  -5.244  -8.632  0.00  0.00    -0.646 OA
ENDBRANCH  13  17
ENDBRANCH   3  13
TORSDOF 7
ENDMDL
MODEL 8
REMARK VINA RESULT:      -4.9     10.316     11.798
REMARK  7 active torsions:
REMARK  status: ('A' for Active; 'I' for Inactive)
REMARK    1  A    between atoms: C_1  and  O_8 
REMARK    2  A    between atoms: C_1  and  C_15 
REMARK    3  A    between atoms: C_6  and  C_19 
REMARK    4  A    between atoms: N_10  and  C_19 
REMARK    5  A    between atoms: N_14  and  C_15 
REMARK       I    between atoms: N_14  and  C_18 
REMARK    6  A    between atoms: C_15  and  C_16 
REMARK    7  A    between atoms: C_18  and  C_19 
ROOT
HETATM    1  O           1     -27.117  -6.410 -20.132  0.00  0.00    -0.271 OA
HETATM    2  H           1     -25.987  -6.489 -17.207  0.00  0.00     0.163 HD
HETATM    3  N           1     -26.676  -6.408 -17.943  0.00  0.00    -0.343 N 
HETATM    4  C           1     -26.294  -6.507 -19.254  0.00  0.00     0.249 C 
ENDROOT
BRANCH   4   5
HETATM    5  C           1     -24.844  -6.739 -19.600  0.00  0.00     0.278 C 
BRANCH   5   6
HETATM    6  C           1     -24.752  -7.490 -20.922  0.00  0.00     0.017 C 
HETATM    7  C           1     -24.651  -6.492 -22.067  0.00  0.00     0.012 C 
HETATM    8  C           1     -23.516  -8.380 -20.915  0.00  0.00     0.012 C 
ENDBRANCH   5   6
BRANCH   5   9
HETATM    9  N           1     -24.195  -7.552 -18.519  0.00  0.00    -0.066 N 
HETATM   10  H           1     -24.513  -7.208 -17.585  0.00  0.00     0.275 HD
HETATM   11  H           1     -24.464  -8.556 -18.631  0.00  0.00     0.275 HD
HETATM   12  H           1     -23.157  -7.459 -18.590  0.00  0.00     0.275 HD
ENDBRANCH   5   9
ENDBRANCH   4   5
BRANCH   3  13
HETATM   13  C           1     -28.070  -6.184 -17.609  0.00  0.00     0.209 C 
BRANCH  13  14
HETATM   14  C           1     -28.462  -7.078 -16.441  0.00  0.00     0.200 C 
BRANCH  14  15
HETATM   15  O           1     -27.324  -7.380 -15.679  0.00  0.00    -0.398 OA
HETATM   16  H           1     -26.576  -7.129 -16.194  0.00  0.00     0.209 HD
ENDBRANCH  14  15
ENDBRANCH  13  14
BRANCH  13  17
HETATM   17  C           1     -28.270  -4.739 -17.227  0.00  0.00     0.198 C 
HETATM   18  O           1     -27.713  -4.278 -16.207  0.00  0.00    -0.646 OA
HETATM   19  O           1     -28.996  -4.001 -17.929  0.00  0.00    -0.646 OA
ENDBRANCH  13  17
ENDBRANCH   3  13
TORSDOF 7
ENDMDL
MODEL 9
REMARK VINA RESULT:      -4.9      2.756      5.787
REMARK  7 active torsions:
REMARK  status: ('A' for Active; 'I' for Inactive)
REMARK    1  A    between atoms: C_1  and  O_8 
REMARK    2  A    between atoms: C_1  and  C_15 
REMARK    3  A    between atoms: C_6  and  C_19 
REMARK    4  A    between atoms: N_10  and  C_19 
REMARK    5  A    between atoms: N_14  and  C_15 
REMARK       I    between atoms: N_14  and  C_18 
REMARK    6  A    between atoms: C_15  and  C_16 
REMARK    7  A    between atoms: C_18  and  C_19 
ROOT
HETATM    1  O           1     -21.236  -3.615  -7.021  0.00  0.00    -0.271 OA
HETATM    2  H           1     -22.090  -6.580  -7.584  0.00  0.00     0.163 HD
HETATM    3  N           1     -21.720  -5.794  -7.065  0.00  0.00    -0.343 N 
HETATM    4  C           1     -21.677  -4.552  -7.640  0.00  0.00     0.249 C 
ENDROOT
BRANCH   4   5
HETATM    5  C           1     -22.184  -4.356  -9.048  0.00  0.00     0.278 C 
BRANCH   5   6
HETATM    6  C           1     -21.073  -3.773  -9.911  0.00  0.00     0.017 C 
HETATM    7  C           1     -19.994  -4.824 -10.129  0.00  0.00     0.012 C 
HETATM    8  C           1     -21.647  -3.349 -11.257  0.00  0.00     0.012 C 
ENDBRANCH   5   6
BRANCH   5   9
HETATM    9  N           1     -23.351  -3.413  -9.033  0.00  0.00    -0.066 N 
HETATM   10  H           1     -23.228  -2.693  -9.780  0.00  0.00     0.275 HD
HETATM   11  H           1     -24.232  -3.949  -9.207  0.00  0.00     0.275 HD
HETATM   12  H           1     -23.408  -2.943  -8.101  0.00  0.00     0.275 HD
ENDBRANCH   5   9
ENDBRANCH   4   5
BRANCH   3  13
HETATM   13  C           1     -21.233  -5.983  -5.712  0.00  0.00     0.209 C 
BRANCH  13  14
HETATM   14  C           1     -22.379  -6.439  -4.819  0.00  0.00     0.200 C 
BRANCH  14  15
HETATM   15  O           1     -22.105  -6.088  -3.490  0.00  0.00    -0.398 OA
HETATM   16  H           1     -22.014  -5.150  -3.469  0.00  0.00     0.209 HD
ENDBRANCH  14  15
ENDBRANCH  13  14
BRANCH  13  17
HETATM   17  C           1     -20.146  -7.029  -5.711  0.00  0.00     0.198 C 
HETATM   18  O           1     -19.994  -7.772  -4.717  0.00  0.00    -0.646 OA
HETATM   19  O           1     -19.395  -7.151  -6.703  0.00  0.00    -0.646 OA
ENDBRANCH  13  17
ENDBRANCH   3  13
TORSDOF 7
ENDMDL
