MODEL 1
REMARK VINA RESULT:      -6.5      0.000      0.000
REMARK  9 active torsions:
REMARK  status: ('A' for Active; 'I' for Inactive)
REMARK    1  A    between atoms: C_2  and  C_7 
REMARK    2  A    between atoms: C_2  and  C_3 
REMARK    3  A    between atoms: C_2  and  N_23 
REMARK    4  A    between atoms: C_3  and  C_4 
REMARK       I    between atoms: C_4  and  N_8 
REMARK    5  A    between atoms: N_6  and  C_9 
REMARK       I    between atoms: N_6  and  C_7 
REMARK    6  A    between atoms: C_9  and  C_10 
REMARK    7  A    between atoms: C_9  and  C_15 
REMARK    8  A    between atoms: C_10  and  C_11 
REMARK    9  A    between atoms: C_11  and  C_13 
ROOT
HETATM    1  N           1     -35.523  -1.649 -12.593  0.00  0.00    -0.345 N 
HETATM    2  C           1     -34.451  -2.107 -11.877  0.00  0.00     0.249 C 
HETATM    3  H           1     -36.015  -2.272 -13.222  0.00  0.00     0.163 HD
HETATM    4  O           1     -33.865  -1.365 -11.126  0.00  0.00    -0.271 OA
ENDROOT
BRANCH   2   5
HETATM    5  C           1     -34.000  -3.540 -12.025  0.00  0.00     0.283 C 
BRANCH   5   6
HETATM    6  C           1     -34.839  -4.432 -11.120  0.00  0.00     0.145 C 
BRANCH   6   7
HETATM    7  C           1     -34.517  -5.879 -11.399  0.00  0.00     0.217 C 
HETATM    8  O           1     -33.770  -6.484 -10.667  0.00  0.00    -0.274 OA
HETATM    9  N           1     -35.070  -6.507 -12.482  0.00  0.00    -0.370 N 
HETATM   10  H           1     -34.854  -7.478 -12.670  0.00  0.00     0.159 HD
HETATM   11  H           1     -35.696  -6.000 -13.096  0.00  0.00     0.159 HD
ENDBRANCH   6   7
ENDBRANCH   5   6
BRANCH   5  12
HETATM   12  N           1     -32.556  -3.652 -11.636  0.00  0.00    -0.066 N 
HETATM   13  H           1     -32.259  -4.652 -11.683  0.00  0.00     0.275 HD
HETATM   14  H           1     -32.429  -3.295 -10.662  0.00  0.00     0.275 HD
HETATM   15  H           1     -31.974  -3.085 -12.293  0.00  0.00     0.275 HD
ENDBRANCH   5  12
ENDBRANCH   2   5
BRANCH   1  16
HETATM   16  C           1     -35.957  -0.273 -12.450  0.00  0.00     0.186 C 
BRANCH  16  17
HETATM   17  C           1     -36.660   0.172 -13.727  0.00  0.00     0.046 C 
BRANCH  17  18
HETATM   18  C           1     -35.624   0.418 -14.817  0.00  0.00     0.116 C 
BRANCH  18  19
HETATM   19  C           1     -35.716  -0.674 -15.853  0.00  0.00     0.172 C 
HETATM   20  O           1     -36.345  -0.477 -16.916  0.00  0.00    -0.648 OA
HETATM   21  O           1     -35.163  -1.777 -15.651  0.00  0.00    -0.648 OA
ENDBRANCH  18  19
ENDBRANCH  17  18
ENDBRANCH  16  17
BRANCH  16  22
HETATM   22  C           1     -36.910  -0.165 -11.287  0.00  0.00     0.196 C 
HETATM   23  O           1     -36.623   0.559 -10.308  0.00  0.00    -0.646 OA
HETATM   24  O           1     -37.986  -0.800 -11.299  0.00  0.00    -0.646 OA
ENDBRANCH  16  22
ENDBRANCH   1  16
TORSDOF 9
ENDMDL
MODEL 2
REMARK VINA RESULT:      -6.4     10.231     11.674
REMARK  9 active torsions:
REMARK  status: ('A' for Active; 'I' for Inactive)
REMARK    1  A    between atoms: C_2  and  C_7 
REMARK    2  A    between atoms: C_2  and  C_3 
REMARK    3  A    between atoms: C_2  and  N_23 
REMARK    4  A    between atoms: C_3  and  C_4 
REMARK       I    between atoms: C_4  and  N_8 
REMARK    5  A    between atoms: N_6  and  C_9 
REMARK       I    between atoms: N_6  and  C_7 
REMARK    6  A    between atoms: C_9  and  C_10 
REMARK    7  A    between atoms: C_9  and  C_15 
REMARK    8  A    between atoms: C_10  and  C_11 
REMARK    9  A    between atoms: C_11  and  C_13 
ROOT
HETATM    1  N           1     -27.469  -6.740 -19.141  0.00  0.00    -0.345 N 
HETATM    2  C           1     -26.203  -6.530 -18.666  0.00  0.00     0.249 C 
HETATM    3  H           1     -27.606  -7.071 -20.088  0.00  0.00     0.163 HD
HETATM    4  O           1     -26.040  -6.136 -17.536  0.00  0.00    -0.271 OA
ENDROOT
BRANCH   2   5
HETATM    5  C           1     -25.010  -6.793 -19.553  0.00  0.00     0.283 C 
BRANCH   5   6
HETATM    6  C           1     -25.398  -7.780 -20.645  0.00  0.00     0.145 C 
BRANCH   6   7
HETATM    7  C           1     -24.227  -7.993 -21.571  0.00  0.00     0.217 C 
HETATM    8  O           1     -24.131  -7.343 -22.584  0.00  0.00    -0.274 OA
HETATM    9  N           1     -23.271  -8.925 -21.265  0.00  0.00    -0.370 N 
HETATM   10  H           1     -22.486  -9.068 -21.885  0.00  0.00     0.159 HD
HETATM   11  H           1     -23.351  -9.471 -20.415  0.00  0.00     0.159 HD
ENDBRANCH   6   7
ENDBRANCH   5   6
BRANCH   5  12
HETATM   12  N           1     -23.895  -7.369 -18.732  0.00  0.00    -0.066 N 
HETATM   13  H           1     -23.090  -7.605 -19.354  0.00  0.00     0.275 HD
HETATM   14  H           1     -24.229  -8.234 -18.249  0.00  0.00     0.275 HD
HETATM   15  H           1     -23.589  -6.668 -18.019  0.00  0.00     0.275 HD
ENDBRANCH   5  12
ENDBRANCH   2   5
BRANCH   1  16
HETATM   16  C           1     -28.615  -6.488 -18.289  0.00  0.00     0.186 C 
BRANCH  16  17
HETATM   17  C           1     -29.295  -5.195 -18.723  0.00  0.00     0.046 C 
BRANCH  17  18
HETATM   18  C           1     -29.408  -4.256 -17.529  0.00  0.00     0.116 C 
BRANCH  18  19
HETATM   19  C           1     -30.862  -3.968 -17.250  0.00  0.00     0.172 C 
HETATM   20  O           1     -31.387  -2.921 -17.687  0.00  0.00    -0.648 OA
HETATM   21  O           1     -31.543  -4.776 -16.582  0.00  0.00    -0.648 OA
ENDBRANCH  18  19
ENDBRANCH  17  18
ENDBRANCH  16  17
BRANCH  16  22
HETATM   22  C           1     -29.589  -7.634 -18.407  0.00  0.00     0.196 C 
HETATM   23  O           1     -29.447  -8.485 -19.311  0.00  0.00    -0.646 OA
HETATM   24  O           1     -30.540  -7.731 -17.600  0.00  0.00    -0.646 OA
ENDBRANCH  16  22
ENDBRANCH   1  16
TORSDOF 9
ENDMDL
MODEL 3
REMARK VINA RESULT:      -6.4      9.392     11.261
REMARK  9 active torsions:
REMARK  status: ('A' for Active; 'I' for Inactive)
REMARK    1  A    between atoms: C_2  and  C_7 
REMARK    2  A    between atoms: C_2  and  C_3 
REMARK    3  A    between atoms: C_2  and  N_23 
REMARK    4  A    between atoms: C_3  and  C_4 
REMARK       I    between atoms: C_4  and  N_8 
REMARK    5  A    between atoms: N_6  and  C_9 
REMARK       I    between atoms: N_6  and  C_7 
REMARK    6  A    between atoms: C_9  and  C_10 
REMARK    7  A    between atoms: C_9  and  C_15 
REMARK    8  A    between atoms: C_10  and  C_11 
REMARK    9  A    between atoms: C_11  and  C_13 
ROOT
HETATM    1  N           1     -27.132  -5.705 -17.494  0.00  0.00    -0.345 N 
HETATM    2  C           1     -28.393  -5.939 -17.015  0.00  0.00     0.249 C 
HETATM    3  H           1     -26.869  -4.774 -17.792  0.00  0.00     0.163 HD
HETATM    4  O           1     -28.707  -7.049 -16.659  0.00  0.00    -0.271 OA
ENDROOT
BRANCH   2   5
HETATM    5  C           1     -29.390  -4.809 -16.931  0.00  0.00     0.283 C 
BRANCH   5   6
HETATM    6  C           1     -30.788  -5.344 -17.212  0.00  0.00     0.145 C 
BRANCH   6   7
HETATM    7  C           1     -31.804  -4.260 -16.954  0.00  0.00     0.217 C 
HETATM    8  O           1     -31.776  -3.239 -17.598  0.00  0.00    -0.274 OA
HETATM    9  N           1     -32.759  -4.432 -15.988  0.00  0.00    -0.370 N 
HETATM   10  H           1     -33.441  -3.705 -15.814  0.00  0.00     0.159 HD
HETATM   11  H           1     -32.783  -5.288 -15.447  0.00  0.00     0.159 HD
ENDBRANCH   6   7
ENDBRANCH   5   6
BRANCH   5  12
HETATM   12  N           1     -29.043  -3.760 -17.945  0.00  0.00    -0.066 N 
HETATM   13  H           1     -29.433  -2.840 -17.642  0.00  0.00     0.275 HD
HETATM   14  H           1     -29.450  -4.023 -18.871  0.00  0.00     0.275 HD
HETATM   15  H           1     -28.004  -3.688 -18.029  0.00  0.00     0.275 HD
ENDBRANCH   5  12
ENDBRANCH   2   5
BRANCH   1  16
HETATM   16  C           1     -26.173  -6.790 -17.575  0.00  0.00     0.186 C 
BRANCH  16  17
HETATM   17  C           1     -25.324  -6.623 -18.828  0.00  0.00     0.046 C 
BRANCH  17  18
HETATM   18  C           1     -26.217  -6.695 -20.060  0.00  0.00     0.116 C 
BRANCH  18  19
HETATM   19  C           1     -25.736  -7.800 -20.968  0.00  0.00     0.172 C 
HETATM   20  O           1     -26.543  -8.656 -21.392  0.00  0.00    -0.648 OA
HETATM   21  O           1     -24.531  -7.862 -21.294  0.00  0.00    -0.648 OA
ENDBRANCH  18  19
ENDBRANCH  17  18
ENDBRANCH  16  17
BRANCH  16  22
HETATM   22  C           1     -25.284  -6.765 -16.357  0.00  0.00     0.196 C 
HETATM   23  O           1     -25.092  -5.692 -15.744  0.00  0.00    -0.646 OA
HETATM   24  O           1     -24.739  -7.817 -15.960  0.00  0.00    -0.646 OA
ENDBRANCH  16  22
ENDBRANCH   1  16
TORSDOF 9
ENDMDL
MODEL 4
REMARK VINA RESULT:      -5.9      1.846      2.809
REMARK  9 active torsions:
REMARK  status: ('A' for Active; 'I' for Inactive)
REMARK    1  A    between atoms: C_2  and  C_7 
REMARK    2  A    between atoms: C_2  and  C_3 
REMARK    3  A    between atoms: C_2  and  N_23 
REMARK    4  A    between atoms: C_3  and  C_4 
REMARK       I    between atoms: C_4  and  N_8 
REMARK    5  A    between atoms: N_6  and  C_9 
REMARK       I    between atoms: N_6  and  C_7 
REMARK    6  A    between atoms: C_9  and  C_10 
REMARK    7  A    between atoms: C_9  and  C_15 
REMARK    8  A    between atoms: C_10  and  C_11 
REMARK    9  A    between atoms: C_11  and  C_13 
ROOT
HETATM    1  N           1     -35.397  -0.968 -13.869  0.00  0.00    -0.345 N 
HETATM    2  C           1     -34.945  -0.609 -12.628  0.00  0.00     0.249 C 
HETATM    3  H           1     -35.439  -1.945 -14.129  0.00  0.00     0.163 HD
HETATM    4  O           1     -34.896   0.557 -12.317  0.00  0.00    -0.271 OA
ENDROOT
BRANCH   2   5
HETATM    5  C           1     -34.509  -1.671 -11.647  0.00  0.00     0.283 C 
BRANCH   5   6
HETATM    6  C           1     -35.030  -3.027 -12.104  0.00  0.00     0.145 C 
BRANCH   6   7
HETATM    7  C           1     -34.135  -4.117 -11.567  0.00  0.00     0.217 C 
HETATM    8  O           1     -33.352  -3.874 -10.680  0.00  0.00    -0.274 OA
HETATM    9  N           1     -34.209  -5.381 -12.087  0.00  0.00    -0.370 N 
HETATM   10  H           1     -33.609  -6.112 -11.727  0.00  0.00     0.159 HD
HETATM   11  H           1     -34.865  -5.585 -12.831  0.00  0.00     0.159 HD
ENDBRANCH   6   7
ENDBRANCH   5   6
BRANCH   5  12
HETATM   12  N           1     -35.063  -1.354 -10.290  0.00  0.00    -0.066 N 
HETATM   13  H           1     -34.644  -0.462  -9.942  0.00  0.00     0.275 HD
HETATM   14  H           1     -34.830  -2.130  -9.629  0.00  0.00     0.275 HD
HETATM   15  H           1     -36.101  -1.250 -10.353  0.00  0.00     0.275 HD
ENDBRANCH   5  12
ENDBRANCH   2   5
BRANCH   1  16
HETATM   16  C           1     -35.816   0.052 -14.811  0.00  0.00     0.186 C 
BRANCH  16  17
HETATM   17  C           1     -35.141  -0.191 -16.155  0.00  0.00     0.046 C 
BRANCH  17  18
HETATM   18  C           1     -35.626  -1.513 -16.736  0.00  0.00     0.116 C 
BRANCH  18  19
HETATM   19  C           1     -34.532  -2.545 -16.622  0.00  0.00     0.172 C 
HETATM   20  O           1     -33.624  -2.590 -17.480  0.00  0.00    -0.648 OA
HETATM   21  O           1     -34.532  -3.355 -15.670  0.00  0.00    -0.648 OA
ENDBRANCH  18  19
ENDBRANCH  17  18
ENDBRANCH  16  17
BRANCH  16  22
HETATM   22  C           1     -37.313  -0.008 -14.982  0.00  0.00     0.196 C 
HETATM   23  O           1     -37.998  -0.748 -14.243  0.00  0.00    -0.646 OA
HETATM   24  O           1     -37.870   0.682 -15.864  0.00  0.00    -0.646 OA
ENDBRANCH  16  22
ENDBRANCH   1  16
TORSDOF 9
ENDMDL
MODEL 5
REMARK VINA RESULT:      -5.9      9.146     10.598
REMARK  9 active torsions:
REMARK  status: ('A' for Active; 'I' for Inactive)
REMARK    1  A    between atoms: C_2  and  C_7 
REMARK    2  A    between atoms: C_2  and  C_3 
REMARK    3  A    between atoms: C_2  and  N_23 
REMARK    4  A    between atoms: C_3  and  C_4 
REMARK       I    between atoms: C_4  and  N_8 
REMARK    5  A    between atoms: N_6  and  C_9 
REMARK       I    between atoms: N_6  and  C_7 
REMARK    6  A    between atoms: C_9  and  C_10 
REMARK    7  A    between atoms: C_9  and  C_15 
REMARK    8  A    between atoms: C_10  and  C_11 
REMARK    9  A    between atoms: C_11  and  C_13 
ROOT
HETATM    1  N           1     -28.238  -5.142 -17.494  0.00  0.00    -0.345 N 
HETATM    2  C           1     -27.556  -5.810 -18.476  0.00  0.00     0.249 C 
HETATM    3  H           1     -27.762  -4.872 -16.642  0.00  0.00     0.163 HD
HETATM    4  O           1     -28.123  -6.132 -19.492  0.00  0.00    -0.271 OA
ENDROOT
BRANCH   2   5
HETATM    5  C           1     -26.096  -6.144 -18.288  0.00  0.00     0.283 C 
BRANCH   5   6
HETATM    6  C           1     -25.597  -6.931 -19.492  0.00  0.00     0.145 C 
BRANCH   6   7
HETATM    7  C           1     -24.124  -7.215 -19.333  0.00  0.00     0.217 C 
HETATM    8  O           1     -23.495  -6.673 -18.455  0.00  0.00    -0.274 OA
HETATM    9  N           1     -23.499  -8.087 -20.183  0.00  0.00    -0.370 N 
HETATM   10  H           1     -22.511  -8.277 -20.077  0.00  0.00     0.159 HD
HETATM   11  H           1     -24.025  -8.541 -20.920  0.00  0.00     0.159 HD
ENDBRANCH   6   7
ENDBRANCH   5   6
BRANCH   5  12
HETATM   12  N           1     -25.929  -6.970 -17.047  0.00  0.00    -0.066 N 
HETATM   13  H           1     -26.744  -6.814 -16.412  0.00  0.00     0.275 HD
HETATM   14  H           1     -25.048  -6.690 -16.559  0.00  0.00     0.275 HD
HETATM   15  H           1     -25.878  -7.981 -17.306  0.00  0.00     0.275 HD
ENDBRANCH   5  12
ENDBRANCH   2   5
BRANCH   1  16
HETATM   16  C           1     -29.640  -4.820 -17.674  0.00  0.00     0.186 C 
BRANCH  16  17
HETATM   17  C           1     -30.472  -5.591 -16.656  0.00  0.00     0.046 C 
BRANCH  17  18
HETATM   18  C           1     -31.327  -6.625 -17.378  0.00  0.00     0.116 C 
BRANCH  18  19
HETATM   19  C           1     -30.452  -7.757 -17.856  0.00  0.00     0.172 C 
HETATM   20  O           1     -29.544  -8.198 -17.119  0.00  0.00    -0.648 OA
HETATM   21  O           1     -30.635  -8.254 -18.988  0.00  0.00    -0.648 OA
ENDBRANCH  18  19
ENDBRANCH  17  18
ENDBRANCH  16  17
BRANCH  16  22
HETATM   22  C           1     -29.845  -3.340 -17.475  0.00  0.00     0.196 C 
HETATM   23  O           1     -28.864  -2.595 -17.260  0.00  0.00    -0.646 OA
HETATM   24  O           1     -30.997  -2.856 -17.524  0.00  0.00    -0.646 OA
ENDBRANCH  16  22
ENDBRANCH   1  16
TORSDOF 9
ENDMDL
MODEL 6
REMARK VINA RESULT:      -5.9     13.561     15.591
REMARK  9 active torsions:
REMARK  status: ('A' for Active; 'I' for Inactive)
REMARK    1  A    between atoms: C_2  and  C_7 
REMARK    2  A    between atoms: C_2  and  C_3 
REMARK    3  A    between atoms: C_2  and  N_23 
REMARK    4  A    between atoms: C_3  and  C_4 
REMARK       I    between atoms: C_4  and  N_8 
REMARK    5  A    between atoms: N_6  and  C_9 
REMARK       I    between atoms: N_6  and  C_7 
REMARK    6  A    between atoms: C_9  and  C_10 
REMARK    7  A    between atoms: C_9  and  C_15 
REMARK    8  A    between atoms: C_10  and  C_11 
REMARK    9  A    between atoms: C_11  and  C_13 
ROOT
HETATM    1  N           1     -21.331  -5.048  -6.557  0.00  0.00    -0.345 N 
HETATM    2  C           1     -21.181  -6.297  -6.018  0.00  0.00     0.249 C 
HETATM    3  H           1     -21.319  -4.233  -5.956  0.00  0.00     0.163 HD
HETATM    4  O           1     -21.195  -7.269  -6.734  0.00  0.00    -0.271 OA
ENDROOT
BRANCH   2   5
HETATM    5  C           1     -20.999  -6.460  -4.528  0.00  0.00     0.283 C 
BRANCH   5   6
HETATM    6  C           1     -20.566  -7.888  -4.223  0.00  0.00     0.145 C 
BRANCH   6   7
HETATM    7  C           1     -20.930  -8.232  -2.800  0.00  0.00     0.217 C 
HETATM    8  O           1     -20.619  -7.488  -1.900  0.00  0.00    -0.274 OA
HETATM    9  N           1     -21.611  -9.387  -2.527  0.00  0.00    -0.370 N 
HETATM   10  H           1     -21.855  -9.618  -1.572  0.00  0.00     0.159 HD
HETATM   11  H           1     -21.871 -10.011  -3.281  0.00  0.00     0.159 HD
ENDBRANCH   6   7
ENDBRANCH   5   6
BRANCH   5  12
HETATM   12  N           1     -22.296  -6.172  -3.832  0.00  0.00    -0.066 N 
HETATM   13  H           1     -22.171  -5.362  -3.185  0.00  0.00     0.275 HD
HETATM   14  H           1     -22.592  -7.012  -3.286  0.00  0.00     0.275 HD
HETATM   15  H           1     -23.028  -5.941  -4.542  0.00  0.00     0.275 HD
ENDBRANCH   5  12
ENDBRANCH   2   5
BRANCH   1  16
HETATM   16  C           1     -21.506  -4.891  -7.988  0.00  0.00     0.186 C 
BRANCH  16  17
HETATM   17  C           1     -22.480  -3.752  -8.258  0.00  0.00     0.046 C 
BRANCH  17  18
HETATM   18  C           1     -23.685  -4.285  -9.023  0.00  0.00     0.116 C 
BRANCH  18  19
HETATM   19  C           1     -23.845  -3.514 -10.310  0.00  0.00     0.172 C 
HETATM   20  O           1     -24.986  -3.191 -10.707  0.00  0.00    -0.648 OA
HETATM   21  O           1     -22.838  -3.199 -10.980  0.00  0.00    -0.648 OA
ENDBRANCH  18  19
ENDBRANCH  17  18
ENDBRANCH  16  17
BRANCH  16  22
HETATM   22  C           1     -20.175  -4.577  -8.624  0.00  0.00     0.196 C 
HETATM   23  O           1     -20.019  -4.728  -9.856  0.00  0.00    -0.646 OA
HETATM   24  O           1     -19.227  -4.168  -7.920  0.00  0.00    -0.646 OA
ENDBRANCH  16  22
ENDBRANCH   1  16
TORSDOF 9
ENDMDL
MODEL 7
REMARK VINA RESULT:      -5.8     10.066     11.724
REMARK  9 active torsions:
REMARK  status: ('A' for Active; 'I' for Inactive)
REMARK    1  A    between atoms: C_2  and  C_7 
REMARK    2  A    between atoms: C_2  and  C_3 
REMARK    3  A    between atoms: C_2  and  N_23 
REMARK    4  A    between atoms: C_3  and  C_4 
REMARK       I    between atoms: C_4  and  N_8 
REMARK    5  A    between atoms: N_6  and  C_9 
REMARK       I    between atoms: N_6  and  C_7 
REMARK    6  A    between atoms: C_9  and  C_10 
REMARK    7  A    between atoms: C_9  and  C_15 
REMARK    8  A    between atoms: C_10  and  C_11 
REMARK    9  A    between atoms: C_11  and  C_13 
ROOT
HETATM    1  N           1     -27.881  -5.719 -18.646  0.00  0.00    -0.345 N 
HETATM    2  C           1     -27.479  -6.723 -19.485  0.00  0.00     0.249 C 
HETATM    3  H           1     -27.238  -4.977 -18.400  0.00  0.00     0.163 HD
HETATM    4  O           1     -28.245  -7.608 -19.779  0.00  0.00    -0.271 OA
ENDROOT
BRANCH   2   5
HETATM    5  C           1     -26.076  -6.724 -20.042  0.00  0.00     0.283 C 
BRANCH   5   6
HETATM    6  C           1     -25.911  -7.897 -20.999  0.00  0.00     0.145 C 
BRANCH   6   7
HETATM    7  C           1     -24.516  -7.887 -21.573  0.00  0.00     0.217 C 
HETATM    8  O           1     -24.249  -7.161 -22.501  0.00  0.00    -0.274 OA
HETATM    9  N           1     -23.552  -8.701 -21.044  0.00  0.00    -0.370 N 
HETATM   10  H           1     -22.616  -8.695 -21.428  0.00  0.00     0.159 HD
HETATM   11  H           1     -23.775  -9.311 -20.266  0.00  0.00     0.159 HD
ENDBRANCH   6   7
ENDBRANCH   5   6
BRANCH   5  12
HETATM   12  N           1     -25.092  -6.854 -18.917  0.00  0.00    -0.066 N 
HETATM   13  H           1     -24.175  -7.184 -19.294  0.00  0.00     0.275 HD
HETATM   14  H           1     -25.451  -7.545 -18.219  0.00  0.00     0.275 HD
HETATM   15  H           1     -24.966  -5.926 -18.456  0.00  0.00     0.275 HD
ENDBRANCH   5  12
ENDBRANCH   2   5
BRANCH   1  16
HETATM   16  C           1     -29.229  -5.717 -18.111  0.00  0.00     0.186 C 
BRANCH  16  17
HETATM   17  C           1     -29.277  -6.578 -16.855  0.00  0.00     0.046 C 
BRANCH  17  18
HETATM   18  C           1     -28.487  -5.899 -15.743  0.00  0.00     0.116 C 
BRANCH  18  19
HETATM   19  C           1     -27.049  -6.350 -15.799  0.00  0.00     0.172 C 
HETATM   20  O           1     -26.177  -5.601 -16.291  0.00  0.00    -0.648 OA
HETATM   21  O           1     -26.728  -7.473 -15.352  0.00  0.00    -0.648 OA
ENDBRANCH  18  19
ENDBRANCH  17  18
ENDBRANCH  16  17
BRANCH  16  22
HETATM   22  C           1     -29.632  -4.305 -17.769  0.00  0.00     0.196 C 
HETATM   23  O           1     -28.759  -3.419 -17.642  0.00  0.00    -0.646 OA
HETATM   24  O           1     -30.839  -4.020 -17.611  0.00  0.00    -0.646 OA
ENDBRANCH  16  22
ENDBRANCH   1  16
TORSDOF 9
ENDMDL
MODEL 8
REMARK VINA RESULT:      -5.8     14.384     17.152
REMARK  9 active torsions:
REMARK  status: ('A' for Active; 'I' for Inactive)
REMARK    1  A    between atoms: C_2  and  C_7 
REMARK    2  A    between atoms: C_2  and  C_3 
REMARK    3  A    between atoms: C_2  and  N_23 
REMARK    4  A    between atoms: C_3  and  C_4 
REMARK       I    between atoms: C_4  and  N_8 
REMARK    5  A    between atoms: N_6  and  C_9 
REMARK       I    between atoms: N_6  and  C_7 
REMARK    6  A    between atoms: C_9  and  C_10 
REMARK    7  A    between atoms: C_9  and  C_15 
REMARK    8  A    between atoms: C_10  and  C_11 
REMARK    9  A    between atoms: C_11  and  C_13 
ROOT
HETATM    1  N           1     -21.519  -6.245  -6.457  0.00  0.00    -0.345 N 
HETATM    2  C           1     -21.073  -5.093  -7.047  0.00  0.00     0.249 C 
HETATM    3  H           1     -22.229  -6.805  -6.912  0.00  0.00     0.163 HD
HETATM    4  O           1     -20.226  -4.426  -6.505  0.00  0.00    -0.271 OA
ENDROOT
BRANCH   2   5
HETATM    5  C           1     -21.641  -4.658  -8.377  0.00  0.00     0.283 C 
BRANCH   5   6
HETATM    6  C           1     -20.506  -4.231  -9.297  0.00  0.00     0.145 C 
BRANCH   6   7
HETATM    7  C           1     -21.036  -4.041 -10.697  0.00  0.00     0.217 C 
HETATM    8  O           1     -22.063  -4.582 -11.033  0.00  0.00    -0.274 OA
HETATM    9  N           1     -20.354  -3.258 -11.588  0.00  0.00    -0.370 N 
HETATM   10  H           1     -20.709  -3.131 -12.527  0.00  0.00     0.159 HD
HETATM   11  H           1     -19.492  -2.805 -11.307  0.00  0.00     0.159 HD
ENDBRANCH   6   7
ENDBRANCH   5   6
BRANCH   5  12
HETATM   12  N           1     -22.575  -3.503  -8.166  0.00  0.00    -0.066 N 
HETATM   13  H           1     -22.518  -2.856  -8.984  0.00  0.00     0.275 HD
HETATM   14  H           1     -22.304  -2.991  -7.297  0.00  0.00     0.275 HD
HETATM   15  H           1     -23.553  -3.860  -8.071  0.00  0.00     0.275 HD
ENDBRANCH   5  12
ENDBRANCH   2   5
BRANCH   1  16
HETATM   16  C           1     -20.974  -6.664  -5.180  0.00  0.00     0.186 C 
BRANCH  16  17
HETATM   17  C           1     -22.057  -6.574  -4.112  0.00  0.00     0.046 C 
BRANCH  17  18
HETATM   18  C           1     -21.435  -6.127  -2.795  0.00  0.00     0.116 C 
BRANCH  18  19
HETATM   19  C           1     -21.849  -7.074  -1.696  0.00  0.00     0.172 C 
HETATM   20  O           1     -21.334  -8.211  -1.625  0.00  0.00    -0.648 OA
HETATM   21  O           1     -22.707  -6.723  -0.858  0.00  0.00    -0.648 OA
ENDBRANCH  18  19
ENDBRANCH  17  18
ENDBRANCH  16  17
BRANCH  16  22
HETATM   22  C           1     -20.487  -8.087  -5.285  0.00  0.00     0.196 C 
HETATM   23  O           1     -21.221  -9.029  -4.913  0.00  0.00    -0.646 OA
HETATM   24  O           1     -19.349  -8.326  -5.743  0.00  0.00    -0.646 OA
ENDBRANCH  16  22
ENDBRANCH   1  16
TORSDOF 9
ENDMDL
MODEL 9
REMARK VINA RESULT:      -5.7     25.342     26.811
REMARK  9 active torsions:
REMARK  status: ('A' for Active; 'I' for Inactive)
REMARK    1  A    between atoms: C_2  and  C_7 
REMARK    2  A    between atoms: C_2  and  C_3 
REMARK    3  A    between atoms: C_2  and  N_23 
REMARK    4  A    between atoms: C_3  and  C_4 
REMARK       I    between atoms: C_4  and  N_8 
REMARK    5  A    between atoms: N_6  and  C_9 
REMARK       I    between atoms: N_6  and  C_7 
REMARK    6  A    between atoms: C_9  and  C_10 
REMARK    7  A    between atoms: C_9  and  C_15 
REMARK    8  A    between atoms: C_10  and  C_11 
REMARK    9  A    between atoms: C_11  and  C_13 
ROOT
HETATM    1  N           1     -12.687   6.764 -20.482  0.00  0.00    -0.345 N 
HETATM    2  C           1     -12.284   7.499 -21.564  0.00  0.00     0.249 C 
HETATM    3  H           1     -12.806   7.212 -19.582  0.00  0.00     0.163 HD
HETATM    4  O           1     -12.142   6.966 -22.638  0.00  0.00    -0.271 OA
ENDROOT
BRANCH   2   5
HETATM    5  C           1     -12.016   8.977 -21.415  0.00  0.00     0.283 C 
BRANCH   5   6
HETATM    6  C           1     -11.877   9.321 -19.938  0.00  0.00     0.145 C 
BRANCH   6   7
HETATM    7  C           1     -10.418   9.322 -19.556  0.00  0.00     0.217 C 
HETATM    8  O           1      -9.580   9.625 -20.372  0.00  0.00    -0.274 OA
HETATM    9  N           1     -10.042   8.979 -18.286  0.00  0.00    -0.370 N 
HETATM   10  H           1      -9.063   8.979 -18.029  0.00  0.00     0.159 HD
HETATM   11  H           1     -10.744   8.724 -17.602  0.00  0.00     0.159 HD
ENDBRANCH   6   7
ENDBRANCH   5   6
BRANCH   5  12
HETATM   12  N           1     -13.158   9.753 -22.004  0.00  0.00    -0.066 N 
HETATM   13  H           1     -13.847   9.091 -22.425  0.00  0.00     0.275 HD
HETATM   14  H           1     -12.796  10.397 -22.743  0.00  0.00     0.275 HD
HETATM   15  H           1     -13.623  10.310 -21.253  0.00  0.00     0.275 HD
ENDBRANCH   5  12
ENDBRANCH   2   5
BRANCH   1  16
HETATM   16  C           1     -12.945   5.344 -20.625  0.00  0.00     0.186 C 
BRANCH  16  17
HETATM   17  C           1     -12.078   4.570 -19.640  0.00  0.00     0.046 C 
BRANCH  17  18
HETATM   18  C           1     -10.650   4.497 -20.168  0.00  0.00     0.116 C 
BRANCH  18  19
HETATM   19  C           1      -9.825   5.593 -19.540  0.00  0.00     0.172 C 
HETATM   20  O           1      -8.864   6.089 -20.168  0.00  0.00    -0.648 OA
HETATM   21  O           1     -10.101   6.004 -18.393  0.00  0.00    -0.648 OA
ENDBRANCH  18  19
ENDBRANCH  17  18
ENDBRANCH  16  17
BRANCH  16  22
HETATM   22  C           1     -14.400   5.067 -20.342  0.00  0.00     0.196 C 
HETATM   23  O           1     -15.261   5.283 -21.222  0.00  0.00    -0.646 OA
HETATM   24  O           1     -14.745   4.622 -19.226  0.00  0.00    -0.646 OA
ENDBRANCH  16  22
ENDBRANCH   1  16
TORSDOF 9
ENDMDL
