MODEL 1
REMARK VINA RESULT:      -7.4      0.000      0.000
REMARK  7 active torsions:
REMARK  status: ('A' for Active; 'I' for Inactive)
REMARK    1  A    between atoms: C_7  and  C_10 
REMARK    2  A    between atoms: C_7  and  C_14 
REMARK    3  A    between atoms: C_7  and  N_22 
REMARK    4  A    between atoms: C_9  and  C_13 
REMARK    5  A    between atoms: C_11  and  C_14 
REMARK    6  A    between atoms: C_13  and  C_23 
REMARK    7  A    between atoms: C_13  and  N_19 
REMARK       I    between atoms: N_22  and  C_23 
ROOT
HETATM    1  H           1     -36.304  -1.737  -9.252  0.00  0.00     0.163 HD
HETATM    2  O           1     -33.569  -1.678  -9.978  0.00  0.00    -0.271 OA
HETATM    3  N           1     -35.783  -1.389 -10.047  0.00  0.00    -0.344 N 
HETATM    4  C           1     -34.632  -2.019 -10.440  0.00  0.00     0.249 C 
ENDROOT
BRANCH   3   5
HETATM    5  C           1     -36.255  -0.224 -10.770  0.00  0.00     0.189 C 
BRANCH   5   6
HETATM    6  C           1     -36.938   0.719  -9.811  0.00  0.00     0.197 C 
HETATM    7  O           1     -36.371   1.051  -8.748  0.00  0.00    -0.646 OA
HETATM    8  O           1     -38.074   1.170 -10.081  0.00  0.00    -0.646 OA
ENDBRANCH   5   6
BRANCH   5   9
HETATM    9  C           1     -37.241  -0.659 -11.845  0.00  0.00     0.074 C 
BRANCH   9  10
HETATM   10  C           1     -36.816  -0.103 -13.168  0.00  0.00    -0.056 A 
HETATM   11  C           1     -37.689  -0.144 -14.254  0.00  0.00     0.007 A 
HETATM   12  C           1     -37.293   0.375 -15.488  0.00  0.00     0.001 A 
HETATM   13  C           1     -36.024   0.935 -15.634  0.00  0.00     0.000 A 
HETATM   14  C           1     -35.151   0.976 -14.547  0.00  0.00     0.001 A 
HETATM   15  C           1     -35.547   0.457 -13.314  0.00  0.00     0.007 A 
ENDBRANCH   9  10
ENDBRANCH   5   9
ENDBRANCH   3   5
BRANCH   4  16
HETATM   16  C           1     -34.693  -3.139 -11.450  0.00  0.00     0.278 C 
BRANCH  16  17
HETATM   17  C           1     -33.739  -4.251 -11.032  0.00  0.00     0.017 C 
HETATM   18  C           1     -34.489  -5.576 -10.989  0.00  0.00     0.012 C 
HETATM   19  C           1     -32.599  -4.346 -12.038  0.00  0.00     0.012 C 
ENDBRANCH  16  17
BRANCH  16  20
HETATM   20  N           1     -34.292  -2.618 -12.797  0.00  0.00    -0.066 N 
HETATM   21  H           1     -33.250  -2.621 -12.876  0.00  0.00     0.275 HD
HETATM   22  H           1     -34.699  -3.229 -13.542  0.00  0.00     0.275 HD
HETATM   23  H           1     -34.647  -1.642 -12.913  0.00  0.00     0.275 HD
ENDBRANCH  16  20
ENDBRANCH   4  16
TORSDOF 7
ENDMDL
MODEL 2
REMARK VINA RESULT:      -6.4     15.524     17.584
REMARK  7 active torsions:
REMARK  status: ('A' for Active; 'I' for Inactive)
REMARK    1  A    between atoms: C_7  and  C_10 
REMARK    2  A    between atoms: C_7  and  C_14 
REMARK    3  A    between atoms: C_7  and  N_22 
REMARK    4  A    between atoms: C_9  and  C_13 
REMARK    5  A    between atoms: C_11  and  C_14 
REMARK    6  A    between atoms: C_13  and  C_23 
REMARK    7  A    between atoms: C_13  and  N_19 
REMARK       I    between atoms: N_22  and  C_23 
ROOT
HETATM    1  H           1     -23.689  -6.708  -3.555  0.00  0.00     0.163 HD
HETATM    2  O           1     -21.851  -5.468  -1.796  0.00  0.00    -0.271 OA
HETATM    3  N           1     -22.681  -6.684  -3.476  0.00  0.00    -0.344 N 
HETATM    4  C           1     -22.093  -6.563  -2.245  0.00  0.00     0.249 C 
ENDROOT
BRANCH   3   5
HETATM    5  C           1     -21.857  -6.778  -4.666  0.00  0.00     0.189 C 
BRANCH   5   6
HETATM    6  C           1     -21.083  -8.073  -4.640  0.00  0.00     0.197 C 
HETATM    7  O           1     -19.834  -8.054  -4.611  0.00  0.00    -0.646 OA
HETATM    8  O           1     -21.692  -9.165  -4.648  0.00  0.00    -0.646 OA
ENDBRANCH   5   6
BRANCH   5   9
HETATM    9  C           1     -20.886  -5.606  -4.704  0.00  0.00     0.074 C 
BRANCH   9  10
HETATM   10  C           1     -20.797  -5.077  -6.102  0.00  0.00    -0.056 A 
HETATM   11  C           1     -21.959  -4.867  -6.844  0.00  0.00     0.007 A 
HETATM   12  C           1     -21.876  -4.374  -8.147  0.00  0.00     0.001 A 
HETATM   13  C           1     -20.630  -4.089  -8.706  0.00  0.00     0.000 A 
HETATM   14  C           1     -19.468  -4.298  -7.963  0.00  0.00     0.001 A 
HETATM   15  C           1     -19.551  -4.792  -6.662  0.00  0.00     0.007 A 
ENDBRANCH   9  10
ENDBRANCH   5   9
ENDBRANCH   3   5
BRANCH   4  16
HETATM   16  C           1     -21.747  -7.799  -1.450  0.00  0.00     0.278 C 
BRANCH  16  17
HETATM   17  C           1     -22.169  -7.603   0.001  0.00  0.00     0.017 C 
HETATM   18  C           1     -23.489  -8.321   0.248  0.00  0.00     0.012 C 
HETATM   19  C           1     -21.100  -8.177   0.922  0.00  0.00     0.012 C 
ENDBRANCH  16  17
BRANCH  16  20
HETATM   20  N           1     -20.268  -8.035  -1.512  0.00  0.00    -0.066 N 
HETATM   21  H           1     -20.079  -8.944  -1.992  0.00  0.00     0.275 HD
HETATM   22  H           1     -19.814  -7.259  -2.047  0.00  0.00     0.275 HD
HETATM   23  H           1     -19.879  -8.065  -0.543  0.00  0.00     0.275 HD
ENDBRANCH  16  20
ENDBRANCH   4  16
TORSDOF 7
ENDMDL
MODEL 3
REMARK VINA RESULT:      -6.4     17.523     19.613
REMARK  7 active torsions:
REMARK  status: ('A' for Active; 'I' for Inactive)
REMARK    1  A    between atoms: C_7  and  C_10 
REMARK    2  A    between atoms: C_7  and  C_14 
REMARK    3  A    between atoms: C_7  and  N_22 
REMARK    4  A    between atoms: C_9  and  C_13 
REMARK    5  A    between atoms: C_11  and  C_14 
REMARK    6  A    between atoms: C_13  and  C_23 
REMARK    7  A    between atoms: C_13  and  N_19 
REMARK       I    between atoms: N_22  and  C_23 
ROOT
HETATM    1  H           1     -19.291  -7.120  -3.201  0.00  0.00     0.163 HD
HETATM    2  O           1     -19.629  -8.463  -5.669  0.00  0.00    -0.271 OA
HETATM    3  N           1     -19.927  -7.825  -3.549  0.00  0.00    -0.344 N 
HETATM    4  C           1     -19.505  -8.721  -4.495  0.00  0.00     0.249 C 
ENDROOT
BRANCH   3   5
HETATM    5  C           1     -21.286  -7.888  -3.047  0.00  0.00     0.189 C 
BRANCH   5   6
HETATM    6  C           1     -21.941  -6.537  -3.198  0.00  0.00     0.197 C 
HETATM    7  O           1     -22.004  -5.995  -4.322  0.00  0.00    -0.646 OA
HETATM    8  O           1     -22.420  -5.959  -2.198  0.00  0.00    -0.646 OA
ENDBRANCH   5   6
BRANCH   5   9
HETATM    9  C           1     -21.266  -8.282  -1.576  0.00  0.00     0.074 C 
BRANCH   9  10
HETATM   10  C           1     -22.203  -9.428  -1.353  0.00  0.00    -0.056 A 
HETATM   11  C           1     -22.998  -9.465  -0.208  0.00  0.00     0.007 A 
HETATM   12  C           1     -23.872 -10.533   0.001  0.00  0.00     0.001 A 
HETATM   13  C           1     -23.949 -11.564  -0.936  0.00  0.00     0.000 A 
HETATM   14  C           1     -23.154 -11.525  -2.081  0.00  0.00     0.001 A 
HETATM   15  C           1     -22.281 -10.458  -2.290  0.00  0.00     0.007 A 
ENDBRANCH   9  10
ENDBRANCH   5   9
ENDBRANCH   3   5
BRANCH   4  16
HETATM   16  C           1     -18.886 -10.030  -4.070  0.00  0.00     0.278 C 
BRANCH  16  17
HETATM   17  C           1     -18.157  -9.841  -2.745  0.00  0.00     0.017 C 
HETATM   18  C           1     -18.385 -11.059  -1.860  0.00  0.00     0.012 C 
HETATM   19  C           1     -16.666  -9.675  -3.006  0.00  0.00     0.012 C 
ENDBRANCH  16  17
BRANCH  16  20
HETATM   20  N           1     -17.911 -10.483  -5.115  0.00  0.00    -0.066 N 
HETATM   21  H           1     -18.432 -10.875  -5.932  0.00  0.00     0.275 HD
HETATM   22  H           1     -17.334  -9.670  -5.429  0.00  0.00     0.275 HD
HETATM   23  H           1     -17.287 -11.220  -4.714  0.00  0.00     0.275 HD
ENDBRANCH  16  20
ENDBRANCH   4  16
TORSDOF 7
ENDMDL
MODEL 4
REMARK VINA RESULT:      -6.3     14.272     16.259
REMARK  7 active torsions:
REMARK  status: ('A' for Active; 'I' for Inactive)
REMARK    1  A    between atoms: C_7  and  C_10 
REMARK    2  A    between atoms: C_7  and  C_14 
REMARK    3  A    between atoms: C_7  and  N_22 
REMARK    4  A    between atoms: C_9  and  C_13 
REMARK    5  A    between atoms: C_11  and  C_14 
REMARK    6  A    between atoms: C_13  and  C_23 
REMARK    7  A    between atoms: C_13  and  N_19 
REMARK       I    between atoms: N_22  and  C_23 
ROOT
HETATM    1  H           1     -23.281  -5.585  -5.557  0.00  0.00     0.163 HD
HETATM    2  O           1     -21.137  -5.787  -3.721  0.00  0.00    -0.271 OA
HETATM    3  N           1     -22.307  -5.853  -5.622  0.00  0.00    -0.344 N 
HETATM    4  C           1     -21.691  -6.458  -4.559  0.00  0.00     0.249 C 
ENDROOT
BRANCH   3   5
HETATM    5  C           1     -21.564  -5.598  -6.841  0.00  0.00     0.189 C 
BRANCH   5   6
HETATM    6  C           1     -20.086  -5.610  -6.540  0.00  0.00     0.197 C 
HETATM    7  O           1     -19.535  -4.592  -6.067  0.00  0.00    -0.646 OA
HETATM    8  O           1     -19.411  -6.639  -6.763  0.00  0.00    -0.646 OA
ENDBRANCH   5   6
BRANCH   5   9
HETATM    9  C           1     -21.958  -4.237  -7.399  0.00  0.00     0.074 C 
BRANCH   9  10
HETATM   10  C           1     -21.914  -4.279  -8.896  0.00  0.00    -0.056 A 
HETATM   11  C           1     -23.078  -4.535  -9.620  0.00  0.00     0.007 A 
HETATM   12  C           1     -23.038  -4.574 -11.014  0.00  0.00     0.001 A 
HETATM   13  C           1     -21.833  -4.356 -11.683  0.00  0.00     0.000 A 
HETATM   14  C           1     -20.670  -4.100 -10.958  0.00  0.00     0.001 A 
HETATM   15  C           1     -20.710  -4.061  -9.565  0.00  0.00     0.007 A 
ENDBRANCH   9  10
ENDBRANCH   5   9
ENDBRANCH   3   5
BRANCH   4  16
HETATM   16  C           1     -21.705  -7.962  -4.436  0.00  0.00     0.278 C 
BRANCH  16  17
HETATM   17  C           1     -20.728  -8.391  -3.348  0.00  0.00     0.017 C 
HETATM   18  C           1     -21.402  -9.398  -2.426  0.00  0.00     0.012 C 
HETATM   19  C           1     -19.504  -9.031  -3.990  0.00  0.00     0.012 C 
ENDBRANCH  16  17
BRANCH  16  20
HETATM   20  N           1     -21.298  -8.574  -5.742  0.00  0.00    -0.066 N 
HETATM   21  H           1     -21.055  -7.817  -6.421  0.00  0.00     0.275 HD
HETATM   22  H           1     -20.465  -9.188  -5.594  0.00  0.00     0.275 HD
HETATM   23  H           1     -22.088  -9.143  -6.122  0.00  0.00     0.275 HD
ENDBRANCH  16  20
ENDBRANCH   4  16
TORSDOF 7
ENDMDL
MODEL 5
REMARK VINA RESULT:      -6.2     17.090     19.539
REMARK  7 active torsions:
REMARK  status: ('A' for Active; 'I' for Inactive)
REMARK    1  A    between atoms: C_7  and  C_10 
REMARK    2  A    between atoms: C_7  and  C_14 
REMARK    3  A    between atoms: C_7  and  N_22 
REMARK    4  A    between atoms: C_9  and  C_13 
REMARK    5  A    between atoms: C_11  and  C_14 
REMARK    6  A    between atoms: C_13  and  C_23 
REMARK    7  A    between atoms: C_13  and  N_19 
REMARK       I    between atoms: N_22  and  C_23 
ROOT
HETATM    1  H           1     -20.122  -7.471  -1.610  0.00  0.00     0.163 HD
HETATM    2  O           1     -22.212  -5.723  -2.375  0.00  0.00    -0.271 OA
HETATM    3  N           1     -21.113  -7.576  -1.788  0.00  0.00    -0.344 N 
HETATM    4  C           1     -21.731  -6.779  -2.713  0.00  0.00     0.249 C 
ENDROOT
BRANCH   3   5
HETATM    5  C           1     -21.878  -8.571  -1.062  0.00  0.00     0.189 C 
BRANCH   5   6
HETATM    6  C           1     -22.331  -7.994   0.257  0.00  0.00     0.197 C 
HETATM    7  O           1     -21.559  -7.997   1.239  0.00  0.00    -0.646 OA
HETATM    8  O           1     -23.479  -7.511   0.366  0.00  0.00    -0.646 OA
ENDBRANCH   5   6
BRANCH   5   9
HETATM    9  C           1     -21.008  -9.795  -0.809  0.00  0.00     0.074 C 
BRANCH   9  10
HETATM   10  C           1     -21.868 -10.936  -0.360  0.00  0.00    -0.056 A 
HETATM   11  C           1     -23.113 -11.146  -0.953  0.00  0.00     0.007 A 
HETATM   12  C           1     -23.914 -12.209  -0.535  0.00  0.00     0.001 A 
HETATM   13  C           1     -23.470 -13.061   0.476  0.00  0.00     0.000 A 
HETATM   14  C           1     -22.225 -12.851   1.068  0.00  0.00     0.001 A 
HETATM   15  C           1     -21.424 -11.788   0.651  0.00  0.00     0.007 A 
ENDBRANCH   9  10
ENDBRANCH   5   9
ENDBRANCH   3   5
BRANCH   4  16
HETATM   16  C           1     -21.812  -7.219  -4.154  0.00  0.00     0.278 C 
BRANCH  16  17
HETATM   17  C           1     -20.415  -7.223  -4.763  0.00  0.00     0.017 C 
HETATM   18  C           1     -19.970  -8.659  -5.007  0.00  0.00     0.012 C 
HETATM   19  C           1     -20.435  -6.466  -6.084  0.00  0.00     0.012 C 
ENDBRANCH  16  17
BRANCH  16  20
HETATM   20  N           1     -22.686  -6.271  -4.918  0.00  0.00    -0.066 N 
HETATM   21  H           1     -23.234  -5.685  -4.248  0.00  0.00     0.275 HD
HETATM   22  H           1     -22.090  -5.652  -5.514  0.00  0.00     0.275 HD
HETATM   23  H           1     -23.342  -6.812  -5.524  0.00  0.00     0.275 HD
ENDBRANCH  16  20
ENDBRANCH   4  16
TORSDOF 7
ENDMDL
MODEL 6
REMARK VINA RESULT:      -6.2     17.601     19.894
REMARK  7 active torsions:
REMARK  status: ('A' for Active; 'I' for Inactive)
REMARK    1  A    between atoms: C_7  and  C_10 
REMARK    2  A    between atoms: C_7  and  C_14 
REMARK    3  A    between atoms: C_7  and  N_22 
REMARK    4  A    between atoms: C_9  and  C_13 
REMARK    5  A    between atoms: C_11  and  C_14 
REMARK    6  A    between atoms: C_13  and  C_23 
REMARK    7  A    between atoms: C_13  and  N_19 
REMARK       I    between atoms: N_22  and  C_23 
ROOT
HETATM    1  H           1     -22.553  -8.251  -3.640  0.00  0.00     0.163 HD
HETATM    2  O           1     -22.087  -6.134  -1.820  0.00  0.00    -0.271 OA
HETATM    3  N           1     -21.729  -7.813  -3.249  0.00  0.00    -0.344 N 
HETATM    4  C           1     -21.766  -7.288  -1.985  0.00  0.00     0.249 C 
ENDROOT
BRANCH   3   5
HETATM    5  C           1     -20.508  -7.742  -4.028  0.00  0.00     0.189 C 
BRANCH   5   6
HETATM    6  C           1     -20.706  -6.798  -5.188  0.00  0.00     0.197 C 
HETATM    7  O           1     -20.796  -7.248  -6.351  0.00  0.00    -0.646 OA
HETATM    8  O           1     -20.782  -5.566  -4.987  0.00  0.00    -0.646 OA
ENDBRANCH   5   6
BRANCH   5   9
HETATM    9  C           1     -20.159  -9.127  -4.553  0.00  0.00     0.074 C 
BRANCH   9  10
HETATM   10  C           1     -18.696  -9.382  -4.358  0.00  0.00    -0.056 A 
HETATM   11  C           1     -18.142  -9.320  -3.080  0.00  0.00     0.007 A 
HETATM   12  C           1     -16.779  -9.558  -2.898  0.00  0.00     0.001 A 
HETATM   13  C           1     -15.972  -9.859  -3.996  0.00  0.00     0.000 A 
HETATM   14  C           1     -16.527  -9.922  -5.273  0.00  0.00     0.001 A 
HETATM   15  C           1     -17.889  -9.684  -5.455  0.00  0.00     0.007 A 
ENDBRANCH   9  10
ENDBRANCH   5   9
ENDBRANCH   3   5
BRANCH   4  16
HETATM   16  C           1     -21.407  -8.149  -0.800  0.00  0.00     0.278 C 
BRANCH  16  17
HETATM   17  C           1     -21.816  -9.591  -1.078  0.00  0.00     0.017 C 
HETATM   18  C           1     -20.710 -10.531  -0.617  0.00  0.00     0.012 C 
HETATM   19  C           1     -23.100  -9.909  -0.321  0.00  0.00     0.012 C 
ENDBRANCH  16  17
BRANCH  16  20
HETATM   20  N           1     -22.130  -7.652   0.416  0.00  0.00    -0.066 N 
HETATM   21  H           1     -22.667  -6.788   0.174  0.00  0.00     0.275 HD
HETATM   22  H           1     -22.790  -8.388   0.754  0.00  0.00     0.275 HD
HETATM   23  H           1     -21.438  -7.432   1.167  0.00  0.00     0.275 HD
ENDBRANCH  16  20
ENDBRANCH   4  16
TORSDOF 7
ENDMDL
MODEL 7
REMARK VINA RESULT:      -6.2     16.843     19.329
REMARK  7 active torsions:
REMARK  status: ('A' for Active; 'I' for Inactive)
REMARK    1  A    between atoms: C_7  and  C_10 
REMARK    2  A    between atoms: C_7  and  C_14 
REMARK    3  A    between atoms: C_7  and  N_22 
REMARK    4  A    between atoms: C_9  and  C_13 
REMARK    5  A    between atoms: C_11  and  C_14 
REMARK    6  A    between atoms: C_13  and  C_23 
REMARK    7  A    between atoms: C_13  and  N_19 
REMARK       I    between atoms: N_22  and  C_23 
ROOT
HETATM    1  H           1     -19.627  -7.556  -5.436  0.00  0.00     0.163 HD
HETATM    2  O           1     -20.703 -10.121  -5.957  0.00  0.00    -0.271 OA
HETATM    3  N           1     -20.243  -8.187  -4.939  0.00  0.00    -0.344 N 
HETATM    4  C           1     -20.099  -9.541  -5.086  0.00  0.00     0.249 C 
ENDROOT
BRANCH   3   5
HETATM    5  C           1     -21.278  -7.658  -4.072  0.00  0.00     0.189 C 
BRANCH   5   6
HETATM    6  C           1     -21.771  -6.342  -4.623  0.00  0.00     0.197 C 
HETATM    7  O           1     -22.992  -6.165  -4.821  0.00  0.00    -0.646 OA
HETATM    8  O           1     -20.956  -5.429  -4.882  0.00  0.00    -0.646 OA
ENDBRANCH   5   6
BRANCH   5   9
HETATM    9  C           1     -20.710  -7.443  -2.677  0.00  0.00     0.074 C 
BRANCH   9  10
HETATM   10  C           1     -21.617  -8.073  -1.665  0.00  0.00    -0.056 A 
HETATM   11  C           1     -22.209  -7.289  -0.676  0.00  0.00     0.007 A 
HETATM   12  C           1     -23.055  -7.875   0.267  0.00  0.00     0.001 A 
HETATM   13  C           1     -23.309  -9.246   0.217  0.00  0.00     0.000 A 
HETATM   14  C           1     -22.718 -10.030  -0.774  0.00  0.00     0.001 A 
HETATM   15  C           1     -21.872  -9.444  -1.715  0.00  0.00     0.007 A 
ENDBRANCH   9  10
ENDBRANCH   5   9
ENDBRANCH   3   5
BRANCH   4  16
HETATM   16  C           1     -19.188 -10.307  -4.159  0.00  0.00     0.278 C 
BRANCH  16  17
HETATM   17  C           1     -17.875  -9.550  -3.998  0.00  0.00     0.017 C 
HETATM   18  C           1     -17.269  -9.866  -2.638  0.00  0.00     0.012 C 
HETATM   19  C           1     -16.907  -9.974  -5.096  0.00  0.00     0.012 C 
ENDBRANCH  16  17
BRANCH  16  20
HETATM   20  N           1     -18.914 -11.663  -4.737  0.00  0.00    -0.066 N 
HETATM   21  H           1     -19.767 -12.011  -5.231  0.00  0.00     0.275 HD
HETATM   22  H           1     -18.122 -11.598  -5.417  0.00  0.00     0.275 HD
HETATM   23  H           1     -18.662 -12.325  -3.969  0.00  0.00     0.275 HD
ENDBRANCH  16  20
ENDBRANCH   4  16
TORSDOF 7
ENDMDL
MODEL 8
REMARK VINA RESULT:      -6.2      9.366     12.561
REMARK  7 active torsions:
REMARK  status: ('A' for Active; 'I' for Inactive)
REMARK    1  A    between atoms: C_7  and  C_10 
REMARK    2  A    between atoms: C_7  and  C_14 
REMARK    3  A    between atoms: C_7  and  N_22 
REMARK    4  A    between atoms: C_9  and  C_13 
REMARK    5  A    between atoms: C_11  and  C_14 
REMARK    6  A    between atoms: C_13  and  C_23 
REMARK    7  A    between atoms: C_13  and  N_19 
REMARK       I    between atoms: N_22  and  C_23 
ROOT
HETATM    1  H           1     -28.042  -6.421 -15.301  0.00  0.00     0.163 HD
HETATM    2  O           1     -29.453  -8.462 -16.663  0.00  0.00    -0.271 OA
HETATM    3  N           1     -27.974  -6.850 -16.216  0.00  0.00    -0.344 N 
HETATM    4  C           1     -29.099  -7.320 -16.837  0.00  0.00     0.249 C 
ENDROOT
BRANCH   3   5
HETATM    5  C           1     -26.684  -6.965 -16.868  0.00  0.00     0.189 C 
BRANCH   5   6
HETATM    6  C           1     -25.593  -6.596 -15.893  0.00  0.00     0.197 C 
HETATM    7  O           1     -25.209  -7.426 -15.041  0.00  0.00    -0.646 OA
HETATM    8  O           1     -25.072  -5.460 -15.938  0.00  0.00    -0.646 OA
ENDBRANCH   5   6
BRANCH   5   9
HETATM    9  C           1     -26.635  -6.026 -18.065  0.00  0.00     0.074 C 
BRANCH   9  10
HETATM   10  C           1     -26.024  -6.736 -19.233  0.00  0.00    -0.056 A 
HETATM   11  C           1     -24.649  -6.967 -19.268  0.00  0.00     0.007 A 
HETATM   12  C           1     -24.080  -7.629 -20.356  0.00  0.00     0.001 A 
HETATM   13  C           1     -24.887  -8.061 -21.409  0.00  0.00     0.000 A 
HETATM   14  C           1     -26.262  -7.831 -21.373  0.00  0.00     0.001 A 
HETATM   15  C           1     -26.831  -7.169 -20.286  0.00  0.00     0.007 A 
ENDBRANCH   9  10
ENDBRANCH   5   9
ENDBRANCH   3   5
BRANCH   4  16
HETATM   16  C           1     -29.897  -6.411 -17.740  0.00  0.00     0.278 C 
BRANCH  16  17
HETATM   17  C           1     -30.091  -5.062 -17.059  0.00  0.00     0.017 C 
HETATM   18  C           1     -29.552  -3.956 -17.957  0.00  0.00     0.012 C 
HETATM   19  C           1     -31.575  -4.830 -16.805  0.00  0.00     0.012 C 
ENDBRANCH  16  17
BRANCH  16  20
HETATM   20  N           1     -31.236  -7.029 -18.013  0.00  0.00    -0.066 N 
HETATM   21  H           1     -31.134  -7.779 -18.734  0.00  0.00     0.275 HD
HETATM   22  H           1     -31.614  -7.445 -17.131  0.00  0.00     0.275 HD
HETATM   23  H           1     -31.893  -6.296 -18.363  0.00  0.00     0.275 HD
ENDBRANCH  16  20
ENDBRANCH   4  16
TORSDOF 7
ENDMDL
MODEL 9
REMARK VINA RESULT:      -6.1      9.209     11.745
REMARK  7 active torsions:
REMARK  status: ('A' for Active; 'I' for Inactive)
REMARK    1  A    between atoms: C_7  and  C_10 
REMARK    2  A    between atoms: C_7  and  C_14 
REMARK    3  A    between atoms: C_7  and  N_22 
REMARK    4  A    between atoms: C_9  and  C_13 
REMARK    5  A    between atoms: C_11  and  C_14 
REMARK    6  A    between atoms: C_13  and  C_23 
REMARK    7  A    between atoms: C_13  and  N_19 
REMARK       I    between atoms: N_22  and  C_23 
ROOT
HETATM    1  H           1     -26.656  -8.082 -17.577  0.00  0.00     0.163 HD
HETATM    2  O           1     -24.410  -6.818 -16.408  0.00  0.00    -0.271 OA
HETATM    3  N           1     -26.337  -7.125 -17.495  0.00  0.00    -0.344 N 
HETATM    4  C           1     -24.995  -6.851 -17.465  0.00  0.00     0.249 C 
ENDROOT
BRANCH   3   5
HETATM    5  C           1     -27.299  -6.044 -17.411  0.00  0.00     0.189 C 
BRANCH   5   6
HETATM    6  C           1     -27.798  -5.926 -15.992  0.00  0.00     0.197 C 
HETATM    7  O           1     -27.896  -4.802 -15.455  0.00  0.00    -0.646 OA
HETATM    8  O           1     -28.115  -6.954 -15.353  0.00  0.00    -0.646 OA
ENDBRANCH   5   6
BRANCH   5   9
HETATM    9  C           1     -28.470  -6.333 -18.339  0.00  0.00     0.074 C 
BRANCH   9  10
HETATM   10  C           1     -29.653  -5.516 -17.921  0.00  0.00    -0.056 A 
HETATM   11  C           1     -29.655  -4.137 -18.125  0.00  0.00     0.007 A 
HETATM   12  C           1     -30.758  -3.376 -17.735  0.00  0.00     0.001 A 
HETATM   13  C           1     -31.859  -3.995 -17.143  0.00  0.00     0.000 A 
HETATM   14  C           1     -31.856  -5.375 -16.940  0.00  0.00     0.001 A 
HETATM   15  C           1     -30.754  -6.136 -17.329  0.00  0.00     0.007 A 
ENDBRANCH   9  10
ENDBRANCH   5   9
ENDBRANCH   3   5
BRANCH   4  16
HETATM   16  C           1     -24.249  -6.592 -18.750  0.00  0.00     0.278 C 
BRANCH  16  17
HETATM   17  C           1     -24.978  -7.267 -19.905  0.00  0.00     0.017 C 
HETATM   18  C           1     -25.620  -6.207 -20.791  0.00  0.00     0.012 C 
HETATM   19  C           1     -23.985  -8.080 -20.726  0.00  0.00     0.012 C 
ENDBRANCH  16  17
BRANCH  16  20
HETATM   20  N           1     -22.861  -7.148 -18.643  0.00  0.00    -0.066 N 
HETATM   21  H           1     -22.391  -7.094 -19.575  0.00  0.00     0.275 HD
HETATM   22  H           1     -22.316  -6.591 -17.946  0.00  0.00     0.275 HD
HETATM   23  H           1     -22.908  -8.145 -18.334  0.00  0.00     0.275 HD
ENDBRANCH  16  20
ENDBRANCH   4  16
TORSDOF 7
ENDMDL
