MODEL 1
REMARK VINA RESULT:      -6.3      0.000      0.000
REMARK  7 active torsions:
REMARK  status: ('A' for Active; 'I' for Inactive)
REMARK    1  A    between atoms: C_1  and  C_2 
REMARK    2  A    between atoms: C_1  and  N_5 
REMARK       I    between atoms: N_5  and  C_6 
REMARK    3  A    between atoms: C_6  and  C_7 
REMARK    4  A    between atoms: C_7  and  C_15 
REMARK    5  A    between atoms: C_7  and  N_13 
REMARK    6  A    between atoms: C_8  and  C_15 
REMARK    7  A    between atoms: C_8  and  C_10 
ROOT
HETATM    1  C           1     -34.218  -1.693 -11.678  0.00  0.00     0.275 C 
ENDROOT
BRANCH   1   2
HETATM    2  C           1     -35.239  -1.266 -12.704  0.00  0.00     0.249 C 
HETATM    3  N           1     -34.833  -0.671 -13.867  0.00  0.00    -0.345 N 
HETATM    4  H           1     -33.847  -0.516 -14.039  0.00  0.00     0.163 HD
HETATM    5  O           1     -36.415  -1.450 -12.498  0.00  0.00    -0.271 OA
BRANCH   3   6
HETATM    6  C           1     -35.814  -0.261 -14.853  0.00  0.00     0.181 C 
HETATM    7  C           1     -35.587   1.201 -15.217  0.00  0.00     0.043 C 
BRANCH   6   8
HETATM    8  C           1     -35.671  -1.115 -16.089  0.00  0.00     0.196 C 
HETATM    9  O           1     -34.995  -2.165 -16.048  0.00  0.00    -0.646 OA
HETATM   10  O           1     -36.231  -0.773 -17.153  0.00  0.00    -0.646 OA
ENDBRANCH   6   8
ENDBRANCH   3   6
ENDBRANCH   1   2
BRANCH   1  11
HETATM   11  C           1     -33.769  -3.119 -11.969  0.00  0.00     0.053 C 
BRANCH  11  12
HETATM   12  C           1     -33.844  -3.947 -10.693  0.00  0.00     0.115 C 
BRANCH  12  13
HETATM   13  C           1     -34.358  -5.328 -11.019  0.00  0.00     0.172 C 
HETATM   14  O           1     -34.297  -6.235 -10.162  0.00  0.00    -0.648 OA
HETATM   15  O           1     -34.844  -5.564 -12.147  0.00  0.00    -0.648 OA
ENDBRANCH  12  13
ENDBRANCH  11  12
ENDBRANCH   1  11
BRANCH   1  16
HETATM   16  N           1     -34.831  -1.633 -10.310  0.00  0.00    -0.066 N 
HETATM   17  H           1     -34.580  -0.726  -9.855  0.00  0.00     0.275 HD
HETATM   18  H           1     -35.870  -1.704 -10.391  0.00  0.00     0.275 HD
HETATM   19  H           1     -34.471  -2.425  -9.731  0.00  0.00     0.275 HD
ENDBRANCH   1  16
TORSDOF 7
ENDMDL
MODEL 2
REMARK VINA RESULT:      -6.1      9.314     10.518
REMARK  7 active torsions:
REMARK  status: ('A' for Active; 'I' for Inactive)
REMARK    1  A    between atoms: C_1  and  C_2 
REMARK    2  A    between atoms: C_1  and  N_5 
REMARK       I    between atoms: N_5  and  C_6 
REMARK    3  A    between atoms: C_6  and  C_7 
REMARK    4  A    between atoms: C_7  and  C_15 
REMARK    5  A    between atoms: C_7  and  N_13 
REMARK    6  A    between atoms: C_8  and  C_15 
REMARK    7  A    between atoms: C_8  and  C_10 
ROOT
HETATM    1  C           1     -29.714  -6.710 -17.916  0.00  0.00     0.275 C 
ENDROOT
BRANCH   1   2
HETATM    2  C           1     -28.550  -6.340 -18.803  0.00  0.00     0.249 C 
HETATM    3  N           1     -27.792  -7.320 -19.382  0.00  0.00    -0.345 N 
HETATM    4  H           1     -28.011  -8.294 -19.216  0.00  0.00     0.163 HD
HETATM    5  O           1     -28.289  -5.177 -19.001  0.00  0.00    -0.271 OA
BRANCH   3   6
HETATM    6  C           1     -26.674  -6.964 -20.235  0.00  0.00     0.181 C 
HETATM    7  C           1     -25.435  -6.736 -19.378  0.00  0.00     0.043 C 
BRANCH   6   8
HETATM    8  C           1     -26.411  -8.082 -21.212  0.00  0.00     0.196 C 
HETATM    9  O           1     -27.334  -8.862 -21.533  0.00  0.00    -0.646 OA
HETATM   10  O           1     -25.270  -8.230 -21.702  0.00  0.00    -0.646 OA
ENDBRANCH   6   8
ENDBRANCH   3   6
ENDBRANCH   1   2
BRANCH   1  11
HETATM   11  C           1     -29.908  -5.635 -16.855  0.00  0.00     0.053 C 
BRANCH  11  12
HETATM   12  C           1     -31.329  -5.093 -16.933  0.00  0.00     0.115 C 
BRANCH  12  13
HETATM   13  C           1     -31.295  -3.658 -17.402  0.00  0.00     0.172 C 
HETATM   14  O           1     -32.360  -3.073 -17.696  0.00  0.00    -0.648 OA
HETATM   15  O           1     -30.204  -3.056 -17.496  0.00  0.00    -0.648 OA
ENDBRANCH  12  13
ENDBRANCH  11  12
ENDBRANCH   1  11
BRANCH   1  16
HETATM   16  N           1     -29.434  -8.024 -17.250  0.00  0.00    -0.066 N 
HETATM   17  H           1     -28.733  -8.558 -17.812  0.00  0.00     0.275 HD
HETATM   18  H           1     -29.053  -7.855 -16.291  0.00  0.00     0.275 HD
HETATM   19  H           1     -30.319  -8.576 -17.181  0.00  0.00     0.275 HD
ENDBRANCH   1  16
TORSDOF 7
ENDMDL
MODEL 3
REMARK VINA RESULT:      -6.0     12.982     14.603
REMARK  7 active torsions:
REMARK  status: ('A' for Active; 'I' for Inactive)
REMARK    1  A    between atoms: C_1  and  C_2 
REMARK    2  A    between atoms: C_1  and  N_5 
REMARK       I    between atoms: N_5  and  C_6 
REMARK    3  A    between atoms: C_6  and  C_7 
REMARK    4  A    between atoms: C_7  and  C_15 
REMARK    5  A    between atoms: C_7  and  N_13 
REMARK    6  A    between atoms: C_8  and  C_15 
REMARK    7  A    between atoms: C_8  and  C_10 
ROOT
HETATM    1  C           1     -21.285  -5.934  -6.942  0.00  0.00     0.275 C 
ENDROOT
BRANCH   1   2
HETATM    2  C           1     -21.714  -4.711  -7.715  0.00  0.00     0.249 C 
HETATM    3  N           1     -22.224  -4.842  -8.978  0.00  0.00    -0.345 N 
HETATM    4  H           1     -22.313  -5.760  -9.394  0.00  0.00     0.163 HD
HETATM    5  O           1     -21.608  -3.615  -7.217  0.00  0.00    -0.271 OA
BRANCH   3   6
HETATM    6  C           1     -22.636  -3.666  -9.720  0.00  0.00     0.181 C 
HETATM    7  C           1     -21.740  -3.496 -10.939  0.00  0.00     0.043 C 
BRANCH   6   8
HETATM    8  C           1     -24.068  -3.831 -10.166  0.00  0.00     0.196 C 
HETATM    9  O           1     -24.634  -2.916 -10.802  0.00  0.00    -0.646 OA
HETATM   10  O           1     -24.689  -4.884  -9.899  0.00  0.00    -0.646 OA
ENDBRANCH   6   8
ENDBRANCH   3   6
ENDBRANCH   1   2
BRANCH   1  11
HETATM   11  C           1     -21.388  -5.655  -5.449  0.00  0.00     0.053 C 
BRANCH  11  12
HETATM   12  C           1     -21.785  -6.931  -4.719  0.00  0.00     0.115 C 
BRANCH  12  13
HETATM   13  C           1     -21.661  -6.719  -3.229  0.00  0.00     0.172 C 
HETATM   14  O           1     -22.436  -5.932  -2.644  0.00  0.00    -0.648 OA
HETATM   15  O           1     -20.784  -7.331  -2.582  0.00  0.00    -0.648 OA
ENDBRANCH  12  13
ENDBRANCH  11  12
ENDBRANCH   1  11
BRANCH   1  16
HETATM   16  N           1     -19.865  -6.271  -7.290  0.00  0.00    -0.066 N 
HETATM   17  H           1     -19.774  -7.304  -7.423  0.00  0.00     0.275 HD
HETATM   18  H           1     -19.598  -5.783  -8.175  0.00  0.00     0.275 HD
HETATM   19  H           1     -19.234  -5.961  -6.517  0.00  0.00     0.275 HD
ENDBRANCH   1  16
TORSDOF 7
ENDMDL
MODEL 4
REMARK VINA RESULT:      -5.6      8.314      9.847
REMARK  7 active torsions:
REMARK  status: ('A' for Active; 'I' for Inactive)
REMARK    1  A    between atoms: C_1  and  C_2 
REMARK    2  A    between atoms: C_1  and  N_5 
REMARK       I    between atoms: N_5  and  C_6 
REMARK    3  A    between atoms: C_6  and  C_7 
REMARK    4  A    between atoms: C_7  and  C_15 
REMARK    5  A    between atoms: C_7  and  N_13 
REMARK    6  A    between atoms: C_8  and  C_15 
REMARK    7  A    between atoms: C_8  and  C_10 
ROOT
HETATM    1  C           1     -29.101  -4.710 -17.068  0.00  0.00     0.275 C 
ENDROOT
BRANCH   1   2
HETATM    2  C           1     -28.161  -5.890 -17.122  0.00  0.00     0.249 C 
HETATM    3  N           1     -26.870  -5.719 -17.541  0.00  0.00    -0.345 N 
HETATM    4  H           1     -26.545  -4.800 -17.814  0.00  0.00     0.163 HD
HETATM    5  O           1     -28.551  -6.986 -16.796  0.00  0.00    -0.271 OA
BRANCH   3   6
HETATM    6  C           1     -25.968  -6.853 -17.593  0.00  0.00     0.181 C 
HETATM    7  C           1     -25.076  -6.735 -18.822  0.00  0.00     0.043 C 
BRANCH   6   8
HETATM    8  C           1     -25.114  -6.873 -16.350  0.00  0.00     0.196 C 
HETATM    9  O           1     -24.498  -7.913 -16.031  0.00  0.00    -0.646 OA
HETATM   10  O           1     -25.022  -5.849 -15.638  0.00  0.00    -0.646 OA
ENDBRANCH   6   8
ENDBRANCH   3   6
ENDBRANCH   1   2
BRANCH   1  11
HETATM   11  C           1     -30.331  -5.075 -16.248  0.00  0.00     0.053 C 
BRANCH  11  12
HETATM   12  C           1     -31.533  -5.222 -17.171  0.00  0.00     0.115 C 
BRANCH  12  13
HETATM   13  C           1     -32.463  -4.049 -16.977  0.00  0.00     0.172 C 
HETATM   14  O           1     -33.368  -4.107 -16.117  0.00  0.00    -0.648 OA
HETATM   15  O           1     -32.328  -3.022 -17.676  0.00  0.00    -0.648 OA
ENDBRANCH  12  13
ENDBRANCH  11  12
ENDBRANCH   1  11
BRANCH   1  16
HETATM   16  N           1     -29.520  -4.342 -18.460  0.00  0.00    -0.066 N 
HETATM   17  H           1     -29.324  -5.140 -19.105  0.00  0.00     0.275 HD
HETATM   18  H           1     -30.544  -4.130 -18.471  0.00  0.00     0.275 HD
HETATM   19  H           1     -28.987  -3.500 -18.774  0.00  0.00     0.275 HD
ENDBRANCH   1  16
TORSDOF 7
ENDMDL
MODEL 5
REMARK VINA RESULT:      -5.5     13.870     16.413
REMARK  7 active torsions:
REMARK  status: ('A' for Active; 'I' for Inactive)
REMARK    1  A    between atoms: C_1  and  C_2 
REMARK    2  A    between atoms: C_1  and  N_5 
REMARK       I    between atoms: N_5  and  C_6 
REMARK    3  A    between atoms: C_6  and  C_7 
REMARK    4  A    between atoms: C_7  and  C_15 
REMARK    5  A    between atoms: C_7  and  N_13 
REMARK    6  A    between atoms: C_8  and  C_15 
REMARK    7  A    between atoms: C_8  and  C_10 
ROOT
HETATM    1  C           1     -21.456  -4.739  -8.306  0.00  0.00     0.275 C 
ENDROOT
BRANCH   1   2
HETATM    2  C           1     -20.709  -5.236  -7.091  0.00  0.00     0.249 C 
HETATM    3  N           1     -21.336  -6.051  -6.189  0.00  0.00    -0.345 N 
HETATM    4  H           1     -22.300  -6.321  -6.336  0.00  0.00     0.163 HD
HETATM    5  O           1     -19.559  -4.912  -6.917  0.00  0.00    -0.271 OA
BRANCH   3   6
HETATM    6  C           1     -20.619  -6.527  -5.022  0.00  0.00     0.181 C 
HETATM    7  C           1     -21.452  -6.266  -3.774  0.00  0.00     0.043 C 
BRANCH   6   8
HETATM    8  C           1     -20.367  -8.009  -5.158  0.00  0.00     0.196 C 
HETATM    9  O           1     -19.436  -8.546  -4.520  0.00  0.00    -0.646 OA
HETATM   10  O           1     -21.090  -8.699  -5.910  0.00  0.00    -0.646 OA
ENDBRANCH   6   8
ENDBRANCH   3   6
ENDBRANCH   1   2
BRANCH   1  11
HETATM   11  C           1     -20.503  -3.963  -9.206  0.00  0.00     0.053 C 
BRANCH  11  12
HETATM   12  C           1     -20.562  -4.530 -10.618  0.00  0.00     0.115 C 
BRANCH  12  13
HETATM   13  C           1     -21.651  -3.832 -11.397  0.00  0.00     0.172 C 
HETATM   14  O           1     -22.641  -4.479 -11.803  0.00  0.00    -0.648 OA
HETATM   15  O           1     -21.563  -2.608 -11.634  0.00  0.00    -0.648 OA
ENDBRANCH  12  13
ENDBRANCH  11  12
ENDBRANCH   1  11
BRANCH   1  16
HETATM   16  N           1     -22.575  -3.840  -7.871  0.00  0.00    -0.066 N 
HETATM   17  H           1     -23.292  -3.784  -8.630  0.00  0.00     0.275 HD
HETATM   18  H           1     -23.015  -4.226  -7.005  0.00  0.00     0.275 HD
HETATM   19  H           1     -22.199  -2.885  -7.676  0.00  0.00     0.275 HD
ENDBRANCH   1  16
TORSDOF 7
ENDMDL
MODEL 6
REMARK VINA RESULT:      -5.4     12.800     15.462
REMARK  7 active torsions:
REMARK  status: ('A' for Active; 'I' for Inactive)
REMARK    1  A    between atoms: C_1  and  C_2 
REMARK    2  A    between atoms: C_1  and  N_5 
REMARK       I    between atoms: N_5  and  C_6 
REMARK    3  A    between atoms: C_6  and  C_7 
REMARK    4  A    between atoms: C_7  and  C_15 
REMARK    5  A    between atoms: C_7  and  N_13 
REMARK    6  A    between atoms: C_8  and  C_15 
REMARK    7  A    between atoms: C_8  and  C_10 
ROOT
HETATM    1  C           1     -21.604  -4.004  -7.824  0.00  0.00     0.275 C 
ENDROOT
BRANCH   1   2
HETATM    2  C           1     -22.218  -4.889  -6.767  0.00  0.00     0.249 C 
HETATM    3  N           1     -21.443  -5.797  -6.099  0.00  0.00    -0.345 N 
HETATM    4  H           1     -20.457  -5.875  -6.313  0.00  0.00     0.163 HD
HETATM    5  O           1     -23.395  -4.796  -6.511  0.00  0.00    -0.271 OA
BRANCH   3   6
HETATM    6  C           1     -22.033  -6.647  -5.083  0.00  0.00     0.181 C 
HETATM    7  C           1     -21.465  -8.055  -5.207  0.00  0.00     0.043 C 
BRANCH   6   8
HETATM    8  C           1     -21.713  -6.093  -3.716  0.00  0.00     0.196 C 
HETATM    9  O           1     -22.556  -6.170  -2.797  0.00  0.00    -0.646 OA
HETATM   10  O           1     -20.604  -5.556  -3.504  0.00  0.00    -0.646 OA
ENDBRANCH   6   8
ENDBRANCH   3   6
ENDBRANCH   1   2
BRANCH   1  11
HETATM   11  C           1     -21.980  -4.526  -9.205  0.00  0.00     0.053 C 
BRANCH  11  12
HETATM   12  C           1     -22.725  -3.442  -9.972  0.00  0.00     0.115 C 
BRANCH  12  13
HETATM   13  C           1     -23.992  -4.018 -10.556  0.00  0.00     0.172 C 
HETATM   14  O           1     -24.055  -5.236 -10.833  0.00  0.00    -0.648 OA
HETATM   15  O           1     -24.979  -3.279 -10.763  0.00  0.00    -0.648 OA
ENDBRANCH  12  13
ENDBRANCH  11  12
ENDBRANCH   1  11
BRANCH   1  16
HETATM   16  N           1     -20.112  -4.014  -7.677  0.00  0.00    -0.066 N 
HETATM   17  H           1     -19.818  -3.225  -7.056  0.00  0.00     0.275 HD
HETATM   18  H           1     -19.809  -4.920  -7.253  0.00  0.00     0.275 HD
HETATM   19  H           1     -19.667  -3.902  -8.616  0.00  0.00     0.275 HD
ENDBRANCH   1  16
TORSDOF 7
ENDMDL
MODEL 7
REMARK VINA RESULT:      -5.3     12.978     14.548
REMARK  7 active torsions:
REMARK  status: ('A' for Active; 'I' for Inactive)
REMARK    1  A    between atoms: C_1  and  C_2 
REMARK    2  A    between atoms: C_1  and  N_5 
REMARK       I    between atoms: N_5  and  C_6 
REMARK    3  A    between atoms: C_6  and  C_7 
REMARK    4  A    between atoms: C_7  and  C_15 
REMARK    5  A    between atoms: C_7  and  N_13 
REMARK    6  A    between atoms: C_8  and  C_15 
REMARK    7  A    between atoms: C_8  and  C_10 
ROOT
HETATM    1  C           1     -21.850  -5.144  -6.177  0.00  0.00     0.275 C 
ENDROOT
BRANCH   1   2
HETATM    2  C           1     -21.869  -4.235  -7.381  0.00  0.00     0.249 C 
HETATM    3  N           1     -22.715  -4.497  -8.424  0.00  0.00    -0.345 N 
HETATM    4  H           1     -23.329  -5.301  -8.387  0.00  0.00     0.163 HD
HETATM    5  O           1     -21.136  -3.276  -7.425  0.00  0.00    -0.271 OA
BRANCH   3   6
HETATM    6  C           1     -22.733  -3.624  -9.582  0.00  0.00     0.181 C 
HETATM    7  C           1     -21.841  -4.207 -10.670  0.00  0.00     0.043 C 
BRANCH   6   8
HETATM    8  C           1     -24.145  -3.503 -10.098  0.00  0.00     0.196 C 
HETATM    9  O           1     -24.457  -4.019 -11.192  0.00  0.00    -0.646 OA
HETATM   10  O           1     -25.004  -2.886  -9.430  0.00  0.00    -0.646 OA
ENDBRANCH   6   8
ENDBRANCH   3   6
ENDBRANCH   1   2
BRANCH   1  11
HETATM   11  C           1     -21.040  -6.394  -6.495  0.00  0.00     0.053 C 
BRANCH  11  12
HETATM   12  C           1     -21.369  -7.484  -5.484  0.00  0.00     0.115 C 
BRANCH  12  13
HETATM   13  C           1     -20.093  -8.155  -5.034  0.00  0.00     0.172 C 
HETATM   14  O           1     -19.926  -8.433  -3.827  0.00  0.00    -0.648 OA
HETATM   15  O           1     -19.204  -8.432  -5.868  0.00  0.00    -0.648 OA
ENDBRANCH  12  13
ENDBRANCH  11  12
ENDBRANCH   1  11
BRANCH   1  16
HETATM   16  N           1     -23.255  -5.536  -5.826  0.00  0.00    -0.066 N 
HETATM   17  H           1     -23.657  -4.836  -5.162  0.00  0.00     0.275 HD
HETATM   18  H           1     -23.836  -5.564  -6.694  0.00  0.00     0.275 HD
HETATM   19  H           1     -23.252  -6.480  -5.377  0.00  0.00     0.275 HD
ENDBRANCH   1  16
TORSDOF 7
ENDMDL
MODEL 8
REMARK VINA RESULT:      -5.2     15.110     16.875
REMARK  7 active torsions:
REMARK  status: ('A' for Active; 'I' for Inactive)
REMARK    1  A    between atoms: C_1  and  C_2 
REMARK    2  A    between atoms: C_1  and  N_5 
REMARK       I    between atoms: N_5  and  C_6 
REMARK    3  A    between atoms: C_6  and  C_7 
REMARK    4  A    between atoms: C_7  and  C_15 
REMARK    5  A    between atoms: C_7  and  N_13 
REMARK    6  A    between atoms: C_8  and  C_15 
REMARK    7  A    between atoms: C_8  and  C_10 
ROOT
HETATM    1  C           1     -21.774  -7.573  -3.945  0.00  0.00     0.275 C 
ENDROOT
BRANCH   1   2
HETATM    2  C           1     -21.525  -7.105  -5.359  0.00  0.00     0.249 C 
HETATM    3  N           1     -21.688  -5.786  -5.681  0.00  0.00    -0.345 N 
HETATM    4  H           1     -21.976  -5.123  -4.973  0.00  0.00     0.163 HD
HETATM    5  O           1     -21.182  -7.896  -6.205  0.00  0.00    -0.271 OA
BRANCH   3   6
HETATM    6  C           1     -21.449  -5.336  -7.040  0.00  0.00     0.181 C 
HETATM    7  C           1     -22.556  -4.377  -7.459  0.00  0.00     0.043 C 
BRANCH   6   8
HETATM    8  C           1     -20.118  -4.630  -7.108  0.00  0.00     0.196 C 
HETATM    9  O           1     -19.737  -4.115  -8.181  0.00  0.00    -0.646 OA
HETATM   10  O           1     -19.394  -4.561  -6.090  0.00  0.00    -0.646 OA
ENDBRANCH   6   8
ENDBRANCH   3   6
ENDBRANCH   1   2
BRANCH   1  11
HETATM   11  C           1     -21.202  -6.558  -2.965  0.00  0.00     0.053 C 
BRANCH  11  12
HETATM   12  C           1     -22.253  -6.211  -1.919  0.00  0.00     0.115 C 
BRANCH  12  13
HETATM   13  C           1     -22.203  -7.223  -0.800  0.00  0.00     0.172 C 
HETATM   14  O           1     -21.168  -7.899  -0.616  0.00  0.00    -0.648 OA
HETATM   15  O           1     -23.196  -7.385  -0.058  0.00  0.00    -0.648 OA
ENDBRANCH  12  13
ENDBRANCH  11  12
ENDBRANCH   1  11
BRANCH   1  16
HETATM   16  N           1     -21.108  -8.900  -3.735  0.00  0.00    -0.066 N 
HETATM   17  H           1     -20.095  -8.752  -3.520  0.00  0.00     0.275 HD
HETATM   18  H           1     -21.563  -9.396  -2.935  0.00  0.00     0.275 HD
HETATM   19  H           1     -21.199  -9.478  -4.601  0.00  0.00     0.275 HD
ENDBRANCH   1  16
TORSDOF 7
ENDMDL
MODEL 9
REMARK VINA RESULT:      -5.2     14.084     16.070
REMARK  7 active torsions:
REMARK  status: ('A' for Active; 'I' for Inactive)
REMARK    1  A    between atoms: C_1  and  C_2 
REMARK    2  A    between atoms: C_1  and  N_5 
REMARK       I    between atoms: N_5  and  C_6 
REMARK    3  A    between atoms: C_6  and  C_7 
REMARK    4  A    between atoms: C_7  and  C_15 
REMARK    5  A    between atoms: C_7  and  N_13 
REMARK    6  A    between atoms: C_8  and  C_15 
REMARK    7  A    between atoms: C_8  and  C_10 
ROOT
HETATM    1  C           1     -21.465  -7.250  -4.977  0.00  0.00     0.275 C 
ENDROOT
BRANCH   1   2
HETATM    2  C           1     -21.147  -5.968  -5.706  0.00  0.00     0.249 C 
HETATM    3  N           1     -21.405  -5.860  -7.045  0.00  0.00    -0.345 N 
HETATM    4  H           1     -21.810  -6.640  -7.547  0.00  0.00     0.163 HD
HETATM    5  O           1     -20.664  -5.037  -5.107  0.00  0.00    -0.271 OA
BRANCH   3   6
HETATM    6  C           1     -21.099  -4.627  -7.746  0.00  0.00     0.181 C 
HETATM    7  C           1     -20.060  -4.901  -8.824  0.00  0.00     0.043 C 
BRANCH   6   8
HETATM    8  C           1     -22.356  -4.087  -8.383  0.00  0.00     0.196 C 
HETATM    9  O           1     -22.298  -3.513  -9.492  0.00  0.00    -0.646 OA
HETATM   10  O           1     -23.456  -4.213  -7.801  0.00  0.00    -0.646 OA
ENDBRANCH   6   8
ENDBRANCH   3   6
ENDBRANCH   1   2
BRANCH   1  11
HETATM   11  C           1     -20.724  -7.276  -3.647  0.00  0.00     0.053 C 
BRANCH  11  12
HETATM   12  C           1     -21.633  -7.852  -2.569  0.00  0.00     0.115 C 
BRANCH  12  13
HETATM   13  C           1     -22.178  -6.731  -1.717  0.00  0.00     0.172 C 
HETATM   14  O           1     -22.029  -5.544  -2.079  0.00  0.00    -0.648 OA
HETATM   15  O           1     -22.778  -6.990  -0.652  0.00  0.00    -0.648 OA
ENDBRANCH  12  13
ENDBRANCH  11  12
ENDBRANCH   1  11
BRANCH   1  16
HETATM   16  N           1     -21.033  -8.419  -5.812  0.00  0.00    -0.066 N 
HETATM   17  H           1     -20.299  -8.111  -6.489  0.00  0.00     0.275 HD
HETATM   18  H           1     -20.642  -9.164  -5.192  0.00  0.00     0.275 HD
HETATM   19  H           1     -21.854  -8.796  -6.336  0.00  0.00     0.275 HD
ENDBRANCH   1  16
TORSDOF 7
ENDMDL
