MODEL 1
REMARK VINA RESULT:      -6.9      0.000      0.000
REMARK  5 active torsions:
REMARK  status: ('A' for Active; 'I' for Inactive)
REMARK    1  A    between atoms: C_2  and  C_13 
REMARK    2  A    between atoms: C_4  and  C_12 
REMARK    3  A    between atoms: C_12  and  C_13 
REMARK    4  A    between atoms: C_13  and  N_15 
REMARK       I    between atoms: N_15  and  C_16 
REMARK    5  A    between atoms: C_16  and  C_18 
ROOT
HETATM    1  C           1     -36.679  -0.368 -10.910  0.00  0.00     0.189 C 
ENDROOT
BRANCH   1   2
HETATM    2  C           1     -36.942   0.482  -9.692  0.00  0.00     0.197 C 
HETATM    3  O           1     -36.240   0.342  -8.668  0.00  0.00    -0.646 OA
HETATM    4  O           1     -37.863   1.328  -9.708  0.00  0.00    -0.646 OA
ENDBRANCH   1   2
BRANCH   1   5
HETATM    5  C           1     -37.675  -0.011 -12.005  0.00  0.00     0.070 C 
BRANCH   5   6
HETATM    6  C           1     -36.961   0.092 -13.317  0.00  0.00    -0.074 A 
HETATM    7  C           1     -35.638   0.533 -13.358  0.00  0.00     0.024 A 
HETATM    8  C           1     -34.973   0.630 -14.579  0.00  0.00    -0.022 A 
HETATM    9  C           1     -35.630   0.286 -15.761  0.00  0.00    -0.004 A 
HETATM   10  C           1     -36.953  -0.155 -15.720  0.00  0.00     0.000 A 
HETATM   11  C           1     -37.618  -0.252 -14.498  0.00  0.00     0.003 A 
ENDBRANCH   5   6
ENDBRANCH   1   5
BRANCH   1  12
HETATM   12  N           1     -36.826  -1.768 -10.562  0.00  0.00    -0.344 N 
HETATM   13  C           1     -35.851  -2.666 -10.907  0.00  0.00     0.252 C 
HETATM   14  O           1     -35.974  -3.832 -10.617  0.00  0.00    -0.271 OA
HETATM   15  H           1     -37.649  -2.081 -10.064  0.00  0.00     0.163 HD
BRANCH  13  16
HETATM   16  C           1     -34.624  -2.198 -11.649  0.00  0.00     0.345 C 
HETATM   17  N           1     -33.413  -2.488 -10.886  0.00  0.00     0.097 N 
HETATM   18  C           1     -33.161  -3.909 -11.105  0.00  0.00     0.271 C 
HETATM   19  H           1     -32.625  -1.945 -11.239  0.00  0.00     0.317 HD
HETATM   20  C           1     -33.480  -4.113 -12.576  0.00  0.00     0.033 C 
HETATM   21  C           1     -34.438  -2.984 -12.936  0.00  0.00     0.048 C 
ENDBRANCH  13  16
ENDBRANCH   1  12
TORSDOF 5
ENDMDL
MODEL 2
REMARK VINA RESULT:      -6.5     13.924     16.344
REMARK  5 active torsions:
REMARK  status: ('A' for Active; 'I' for Inactive)
REMARK    1  A    between atoms: C_2  and  C_13 
REMARK    2  A    between atoms: C_4  and  C_12 
REMARK    3  A    between atoms: C_12  and  C_13 
REMARK    4  A    between atoms: C_13  and  N_15 
REMARK       I    between atoms: N_15  and  C_16 
REMARK    5  A    between atoms: C_16  and  C_18 
ROOT
HETATM    1  C           1     -21.016  -5.026  -6.890  0.00  0.00     0.189 C 
ENDROOT
BRANCH   1   2
HETATM    2  C           1     -19.635  -5.266  -7.447  0.00  0.00     0.197 C 
HETATM    3  O           1     -19.312  -6.405  -7.848  0.00  0.00    -0.646 OA
HETATM    4  O           1     -18.813  -4.326  -7.506  0.00  0.00    -0.646 OA
ENDBRANCH   1   2
BRANCH   1   5
HETATM    5  C           1     -21.591  -3.749  -7.491  0.00  0.00     0.070 C 
BRANCH   5   6
HETATM    6  C           1     -22.237  -4.061  -8.805  0.00  0.00    -0.074 A 
HETATM    7  C           1     -23.608  -4.311  -8.866  0.00  0.00     0.024 A 
HETATM    8  C           1     -24.210  -4.603 -10.089  0.00  0.00    -0.022 A 
HETATM    9  C           1     -23.441  -4.643 -11.253  0.00  0.00    -0.004 A 
HETATM   10  C           1     -22.070  -4.393 -11.192  0.00  0.00     0.000 A 
HETATM   11  C           1     -21.468  -4.101  -9.968  0.00  0.00     0.003 A 
ENDBRANCH   5   6
ENDBRANCH   1   5
BRANCH   1  12
HETATM   12  N           1     -20.938  -4.888  -5.449  0.00  0.00    -0.344 N 
HETATM   13  C           1     -21.144  -5.977  -4.645  0.00  0.00     0.252 C 
HETATM   14  O           1     -21.079  -5.863  -3.444  0.00  0.00    -0.271 OA
HETATM   15  H           1     -20.732  -3.987  -5.037  0.00  0.00     0.163 HD
BRANCH  13  16
HETATM   16  C           1     -21.451  -7.321  -5.259  0.00  0.00     0.345 C 
HETATM   17  N           1     -20.227  -7.980  -5.707  0.00  0.00     0.097 N 
HETATM   18  C           1     -19.628  -8.527  -4.493  0.00  0.00     0.271 C 
HETATM   19  H           1     -20.442  -8.740  -6.352  0.00  0.00     0.317 HD
HETATM   20  C           1     -20.815  -9.064  -3.712  0.00  0.00     0.033 C 
HETATM   21  C           1     -22.016  -8.274  -4.220  0.00  0.00     0.048 C 
ENDBRANCH  13  16
ENDBRANCH   1  12
TORSDOF 5
ENDMDL
MODEL 3
REMARK VINA RESULT:      -6.5     15.832     18.154
REMARK  5 active torsions:
REMARK  status: ('A' for Active; 'I' for Inactive)
REMARK    1  A    between atoms: C_2  and  C_13 
REMARK    2  A    between atoms: C_4  and  C_12 
REMARK    3  A    between atoms: C_12  and  C_13 
REMARK    4  A    between atoms: C_13  and  N_15 
REMARK       I    between atoms: N_15  and  C_16 
REMARK    5  A    between atoms: C_16  and  C_18 
ROOT
HETATM    1  C           1     -21.334  -7.140  -4.317  0.00  0.00     0.189 C 
ENDROOT
BRANCH   1   2
HETATM    2  C           1     -21.546  -6.855  -2.852  0.00  0.00     0.197 C 
HETATM    3  O           1     -20.885  -7.476  -1.992  0.00  0.00    -0.646 OA
HETATM    4  O           1     -22.384  -5.998  -2.497  0.00  0.00    -0.646 OA
ENDBRANCH   1   2
BRANCH   1   5
HETATM    5  C           1     -22.262  -6.261  -5.146  0.00  0.00     0.070 C 
BRANCH   5   6
HETATM    6  C           1     -21.456  -5.471  -6.130  0.00  0.00    -0.074 A 
HETATM    7  C           1     -22.100  -4.668  -7.072  0.00  0.00     0.024 A 
HETATM    8  C           1     -21.350  -3.932  -7.990  0.00  0.00    -0.022 A 
HETATM    9  C           1     -19.957  -3.997  -7.964  0.00  0.00    -0.004 A 
HETATM   10  C           1     -19.314  -4.800  -7.021  0.00  0.00     0.000 A 
HETATM   11  C           1     -20.063  -5.535  -6.104  0.00  0.00     0.003 A 
ENDBRANCH   5   6
ENDBRANCH   1   5
BRANCH   1  12
HETATM   12  N           1     -21.624  -8.535  -4.585  0.00  0.00    -0.344 N 
HETATM   13  C           1     -20.601  -9.415  -4.820  0.00  0.00     0.252 C 
HETATM   14  O           1     -20.843 -10.577  -5.043  0.00  0.00    -0.271 OA
HETATM   15  H           1     -22.582  -8.859  -4.599  0.00  0.00     0.163 HD
BRANCH  13  16
HETATM   16  C           1     -19.171  -8.932  -4.799  0.00  0.00     0.345 C 
HETATM   17  N           1     -18.615  -9.013  -3.451  0.00  0.00     0.097 N 
HETATM   18  C           1     -18.278 -10.421  -3.266  0.00  0.00     0.271 C 
HETATM   19  H           1     -17.769  -8.448  -3.376  0.00  0.00     0.317 HD
HETATM   20  C           1     -17.695 -10.835  -4.607  0.00  0.00     0.033 C 
HETATM   21  C           1     -18.278  -9.851  -5.615  0.00  0.00     0.048 C 
ENDBRANCH  13  16
ENDBRANCH   1  12
TORSDOF 5
ENDMDL
MODEL 4
REMARK VINA RESULT:      -6.5      9.572     12.340
REMARK  5 active torsions:
REMARK  status: ('A' for Active; 'I' for Inactive)
REMARK    1  A    between atoms: C_2  and  C_13 
REMARK    2  A    between atoms: C_4  and  C_12 
REMARK    3  A    between atoms: C_12  and  C_13 
REMARK    4  A    between atoms: C_13  and  N_15 
REMARK       I    between atoms: N_15  and  C_16 
REMARK    5  A    between atoms: C_16  and  C_18 
ROOT
HETATM    1  C           1     -26.525  -6.245 -16.923  0.00  0.00     0.189 C 
ENDROOT
BRANCH   1   2
HETATM    2  C           1     -26.580  -7.118 -15.694  0.00  0.00     0.197 C 
HETATM    3  O           1     -25.523  -7.468 -15.127  0.00  0.00    -0.646 OA
HETATM    4  O           1     -27.685  -7.490 -15.242  0.00  0.00    -0.646 OA
ENDBRANCH   1   2
BRANCH   1   5
HETATM    5  C           1     -25.135  -6.325 -17.541  0.00  0.00     0.070 C 
BRANCH   5   6
HETATM    6  C           1     -25.234  -6.886 -18.925  0.00  0.00    -0.074 A 
HETATM    7  C           1     -24.114  -7.463 -19.525  0.00  0.00     0.024 A 
HETATM    8  C           1     -24.205  -7.985 -20.815  0.00  0.00    -0.022 A 
HETATM    9  C           1     -25.416  -7.933 -21.505  0.00  0.00    -0.004 A 
HETATM   10  C           1     -26.536  -7.356 -20.904  0.00  0.00     0.000 A 
HETATM   11  C           1     -26.445  -6.834 -19.615  0.00  0.00     0.003 A 
ENDBRANCH   5   6
ENDBRANCH   1   5
BRANCH   1  12
HETATM   12  N           1     -26.811  -4.873 -16.554  0.00  0.00    -0.344 N 
HETATM   13  C           1     -27.989  -4.291 -16.939  0.00  0.00     0.252 C 
HETATM   14  O           1     -28.228  -3.147 -16.631  0.00  0.00    -0.271 OA
HETATM   15  H           1     -26.140  -4.344 -16.011  0.00  0.00     0.163 HD
BRANCH  13  16
HETATM   16  C           1     -28.991  -5.079 -17.747  0.00  0.00     0.345 C 
HETATM   17  N           1     -29.734  -6.003 -16.895  0.00  0.00     0.097 N 
HETATM   18  C           1     -30.733  -5.177 -16.224  0.00  0.00     0.271 C 
HETATM   19  H           1     -30.203  -6.714 -17.457  0.00  0.00     0.317 HD
HETATM   20  C           1     -31.209  -4.227 -17.310  0.00  0.00     0.033 C 
HETATM   21  C           1     -30.065  -4.167 -18.315  0.00  0.00     0.048 C 
ENDBRANCH  13  16
ENDBRANCH   1  12
TORSDOF 5
ENDMDL
MODEL 5
REMARK VINA RESULT:      -6.4     16.059     18.914
REMARK  5 active torsions:
REMARK  status: ('A' for Active; 'I' for Inactive)
REMARK    1  A    between atoms: C_2  and  C_13 
REMARK    2  A    between atoms: C_4  and  C_12 
REMARK    3  A    between atoms: C_12  and  C_13 
REMARK    4  A    between atoms: C_13  and  N_15 
REMARK       I    between atoms: N_15  and  C_16 
REMARK    5  A    between atoms: C_16  and  C_18 
ROOT
HETATM    1  C           1     -20.217  -8.661  -4.169  0.00  0.00     0.189 C 
ENDROOT
BRANCH   1   2
HETATM    2  C           1     -20.451  -9.993  -4.836  0.00  0.00     0.197 C 
HETATM    3  O           1     -20.074 -11.047  -4.280  0.00  0.00    -0.646 OA
HETATM    4  O           1     -21.022 -10.043  -5.948  0.00  0.00    -0.646 OA
ENDBRANCH   1   2
BRANCH   1   5
HETATM    5  C           1     -19.745  -8.885  -2.738  0.00  0.00     0.070 C 
BRANCH   5   6
HETATM    6  C           1     -20.894  -8.699  -1.797  0.00  0.00    -0.074 A 
HETATM    7  C           1     -21.654  -9.799  -1.397  0.00  0.00     0.024 A 
HETATM    8  C           1     -22.725  -9.626  -0.522  0.00  0.00    -0.022 A 
HETATM    9  C           1     -23.037  -8.353  -0.044  0.00  0.00    -0.004 A 
HETATM   10  C           1     -22.277  -7.253  -0.443  0.00  0.00     0.000 A 
HETATM   11  C           1     -21.206  -7.426  -1.319  0.00  0.00     0.003 A 
ENDBRANCH   5   6
ENDBRANCH   1   5
BRANCH   1  12
HETATM   12  N           1     -21.453  -7.904  -4.156  0.00  0.00    -0.344 N 
HETATM   13  C           1     -21.547  -6.732  -4.859  0.00  0.00     0.252 C 
HETATM   14  O           1     -22.577  -6.102  -4.848  0.00  0.00    -0.271 OA
HETATM   15  H           1     -22.247  -8.241  -3.627  0.00  0.00     0.163 HD
BRANCH  13  16
HETATM   16  C           1     -20.363  -6.230  -5.648  0.00  0.00     0.345 C 
HETATM   17  N           1     -20.550  -6.471  -7.076  0.00  0.00     0.097 N 
HETATM   18  C           1     -21.457  -5.416  -7.520  0.00  0.00     0.271 C 
HETATM   19  H           1     -19.664  -6.390  -7.575  0.00  0.00     0.317 HD
HETATM   20  C           1     -20.973  -4.183  -6.777  0.00  0.00     0.033 C 
HETATM   21  C           1     -20.248  -4.719  -5.547  0.00  0.00     0.048 C 
ENDBRANCH  13  16
ENDBRANCH   1  12
TORSDOF 5
ENDMDL
MODEL 6
REMARK VINA RESULT:      -6.4     17.736     20.208
REMARK  5 active torsions:
REMARK  status: ('A' for Active; 'I' for Inactive)
REMARK    1  A    between atoms: C_2  and  C_13 
REMARK    2  A    between atoms: C_4  and  C_12 
REMARK    3  A    between atoms: C_12  and  C_13 
REMARK    4  A    between atoms: C_13  and  N_15 
REMARK       I    between atoms: N_15  and  C_16 
REMARK    5  A    between atoms: C_16  and  C_18 
ROOT
HETATM    1  C           1     -20.731  -8.925  -4.097  0.00  0.00     0.189 C 
ENDROOT
BRANCH   1   2
HETATM    2  C           1     -21.363  -7.808  -4.889  0.00  0.00     0.197 C 
HETATM    3  O           1     -22.026  -6.924  -4.305  0.00  0.00    -0.646 OA
HETATM    4  O           1     -21.224  -7.766  -6.131  0.00  0.00    -0.646 OA
ENDBRANCH   1   2
BRANCH   1   5
HETATM    5  C           1     -19.926  -9.819  -5.031  0.00  0.00     0.070 C 
BRANCH   5   6
HETATM    6  C           1     -18.480  -9.771  -4.647  0.00  0.00    -0.074 A 
HETATM    7  C           1     -17.494  -9.939  -5.621  0.00  0.00     0.024 A 
HETATM    8  C           1     -16.147  -9.896  -5.264  0.00  0.00    -0.022 A 
HETATM    9  C           1     -15.784  -9.683  -3.935  0.00  0.00    -0.004 A 
HETATM   10  C           1     -16.769  -9.515  -2.961  0.00  0.00     0.000 A 
HETATM   11  C           1     -18.117  -9.558  -3.318  0.00  0.00     0.003 A 
ENDBRANCH   5   6
ENDBRANCH   1   5
BRANCH   1  12
HETATM   12  N           1     -21.768  -9.708  -3.454  0.00  0.00    -0.344 N 
HETATM   13  C           1     -21.919  -9.660  -2.093  0.00  0.00     0.252 C 
HETATM   14  O           1     -22.783 -10.312  -1.558  0.00  0.00    -0.271 OA
HETATM   15  H           1     -22.380 -10.291  -4.010  0.00  0.00     0.163 HD
BRANCH  13  16
HETATM   16  C           1     -21.007  -8.790  -1.264  0.00  0.00     0.345 C 
HETATM   17  N           1     -21.382  -7.383  -1.380  0.00  0.00     0.097 N 
HETATM   18  C           1     -22.539  -7.228  -0.504  0.00  0.00     0.271 C 
HETATM   19  H           1     -20.626  -6.780  -1.055  0.00  0.00     0.317 HD
HETATM   20  C           1     -22.187  -8.064   0.715  0.00  0.00     0.033 C 
HETATM   21  C           1     -21.174  -9.088   0.216  0.00  0.00     0.048 C 
ENDBRANCH  13  16
ENDBRANCH   1  12
TORSDOF 5
ENDMDL
MODEL 7
REMARK VINA RESULT:      -6.2     18.001     19.753
REMARK  5 active torsions:
REMARK  status: ('A' for Active; 'I' for Inactive)
REMARK    1  A    between atoms: C_2  and  C_13 
REMARK    2  A    between atoms: C_4  and  C_12 
REMARK    3  A    between atoms: C_12  and  C_13 
REMARK    4  A    between atoms: C_13  and  N_15 
REMARK       I    between atoms: N_15  and  C_16 
REMARK    5  A    between atoms: C_16  and  C_18 
ROOT
HETATM    1  C           1     -21.662  -7.818  -1.968  0.00  0.00     0.189 C 
ENDROOT
BRANCH   1   2
HETATM    2  C           1     -21.984  -6.388  -2.324  0.00  0.00     0.197 C 
HETATM    3  O           1     -22.371  -5.595  -1.439  0.00  0.00    -0.646 OA
HETATM    4  O           1     -21.866  -5.997  -3.506  0.00  0.00    -0.646 OA
ENDBRANCH   1   2
BRANCH   1   5
HETATM    5  C           1     -21.747  -7.998  -0.458  0.00  0.00     0.070 C 
BRANCH   5   6
HETATM    6  C           1     -22.084  -9.421  -0.142  0.00  0.00    -0.074 A 
HETATM    7  C           1     -23.389  -9.883  -0.316  0.00  0.00     0.024 A 
HETATM    8  C           1     -23.705 -11.209  -0.020  0.00  0.00    -0.022 A 
HETATM    9  C           1     -22.716 -12.074   0.448  0.00  0.00    -0.004 A 
HETATM   10  C           1     -21.411 -11.612   0.622  0.00  0.00     0.000 A 
HETATM   11  C           1     -21.095 -10.286   0.326  0.00  0.00     0.003 A 
ENDBRANCH   5   6
ENDBRANCH   1   5
BRANCH   1  12
HETATM   12  N           1     -20.320  -8.136  -2.417  0.00  0.00    -0.344 N 
HETATM   13  C           1     -20.136  -8.931  -3.517  0.00  0.00     0.252 C 
HETATM   14  O           1     -19.018  -9.196  -3.891  0.00  0.00    -0.271 OA
HETATM   15  H           1     -19.520  -7.770  -1.918  0.00  0.00     0.163 HD
BRANCH  13  16
HETATM   16  C           1     -21.330  -9.476  -4.262  0.00  0.00     0.345 C 
HETATM   17  N           1     -20.954  -9.895  -5.609  0.00  0.00     0.097 N 
HETATM   18  C           1     -20.310 -11.193  -5.434  0.00  0.00     0.271 C 
HETATM   19  H           1     -21.781 -10.003  -6.197  0.00  0.00     0.317 HD
HETATM   20  C           1     -21.160 -11.883  -4.381  0.00  0.00     0.033 C 
HETATM   21  C           1     -21.836 -10.753  -3.613  0.00  0.00     0.048 C 
ENDBRANCH  13  16
ENDBRANCH   1  12
TORSDOF 5
ENDMDL
MODEL 8
REMARK VINA RESULT:      -6.1      9.929     12.329
REMARK  5 active torsions:
REMARK  status: ('A' for Active; 'I' for Inactive)
REMARK    1  A    between atoms: C_2  and  C_13 
REMARK    2  A    between atoms: C_4  and  C_12 
REMARK    3  A    between atoms: C_12  and  C_13 
REMARK    4  A    between atoms: C_13  and  N_15 
REMARK       I    between atoms: N_15  and  C_16 
REMARK    5  A    between atoms: C_16  and  C_18 
ROOT
HETATM    1  C           1     -26.337  -5.994 -16.996  0.00  0.00     0.189 C 
ENDROOT
BRANCH   1   2
HETATM    2  C           1     -25.884  -7.125 -16.106  0.00  0.00     0.197 C 
HETATM    3  O           1     -26.656  -7.583 -15.236  0.00  0.00    -0.646 OA
HETATM    4  O           1     -24.737  -7.603 -16.238  0.00  0.00    -0.646 OA
ENDBRANCH   1   2
BRANCH   1   5
HETATM    5  C           1     -27.088  -4.962 -16.165  0.00  0.00     0.070 C 
BRANCH   5   6
HETATM    6  C           1     -28.508  -4.882 -16.632  0.00  0.00    -0.074 A 
HETATM    7  C           1     -29.428  -5.852 -16.234  0.00  0.00     0.024 A 
HETATM    8  C           1     -30.751  -5.779 -16.669  0.00  0.00    -0.022 A 
HETATM    9  C           1     -31.155  -4.734 -17.500  0.00  0.00    -0.004 A 
HETATM   10  C           1     -30.235  -3.763 -17.897  0.00  0.00     0.000 A 
HETATM   11  C           1     -28.913  -3.837 -17.463  0.00  0.00     0.003 A 
ENDBRANCH   5   6
ENDBRANCH   1   5
BRANCH   1  12
HETATM   12  N           1     -27.213  -6.514 -18.027  0.00  0.00    -0.344 N 
HETATM   13  C           1     -26.739  -6.704 -19.298  0.00  0.00     0.252 C 
HETATM   14  O           1     -27.469  -7.137 -20.157  0.00  0.00    -0.271 OA
HETATM   15  H           1     -28.176  -6.735 -17.809  0.00  0.00     0.163 HD
BRANCH  13  16
HETATM   16  C           1     -25.303  -6.375 -19.624  0.00  0.00     0.345 C 
HETATM   17  N           1     -24.447  -7.543 -19.440  0.00  0.00     0.097 N 
HETATM   18  C           1     -24.663  -8.360 -20.629  0.00  0.00     0.271 C 
HETATM   19  H           1     -23.466  -7.267 -19.391  0.00  0.00     0.317 HD
HETATM   20  C           1     -24.731  -7.348 -21.760  0.00  0.00     0.033 C 
HETATM   21  C           1     -25.146  -6.039 -21.097  0.00  0.00     0.048 C 
ENDBRANCH  13  16
ENDBRANCH   1  12
TORSDOF 5
ENDMDL
MODEL 9
REMARK VINA RESULT:      -6.1     18.278     20.609
REMARK  5 active torsions:
REMARK  status: ('A' for Active; 'I' for Inactive)
REMARK    1  A    between atoms: C_2  and  C_13 
REMARK    2  A    between atoms: C_4  and  C_12 
REMARK    3  A    between atoms: C_12  and  C_13 
REMARK    4  A    between atoms: C_13  and  N_15 
REMARK       I    between atoms: N_15  and  C_16 
REMARK    5  A    between atoms: C_16  and  C_18 
ROOT
HETATM    1  C           1     -19.896  -9.462  -4.565  0.00  0.00     0.189 C 
ENDROOT
BRANCH   1   2
HETATM    2  C           1     -20.952 -10.368  -5.147  0.00  0.00     0.197 C 
HETATM    3  O           1     -21.660 -11.069  -4.393  0.00  0.00    -0.646 OA
HETATM    4  O           1     -21.118 -10.419  -6.385  0.00  0.00    -0.646 OA
ENDBRANCH   1   2
BRANCH   1   5
HETATM    5  C           1     -20.378  -8.018  -4.621  0.00  0.00     0.070 C 
BRANCH   5   6
HETATM    6  C           1     -20.978  -7.640  -3.303  0.00  0.00    -0.074 A 
HETATM    7  C           1     -20.797  -8.464  -2.192  0.00  0.00     0.024 A 
HETATM    8  C           1     -21.357  -8.113  -0.964  0.00  0.00    -0.022 A 
HETATM    9  C           1     -22.098  -6.938  -0.846  0.00  0.00    -0.004 A 
HETATM   10  C           1     -22.279  -6.113  -1.957  0.00  0.00     0.000 A 
HETATM   11  C           1     -21.719  -6.464  -3.184  0.00  0.00     0.003 A 
ENDBRANCH   5   6
ENDBRANCH   1   5
BRANCH   1  12
HETATM   12  N           1     -18.672  -9.592  -5.332  0.00  0.00    -0.344 N 
HETATM   13  C           1     -17.467  -9.691  -4.689  0.00  0.00     0.252 C 
HETATM   14  O           1     -16.448  -9.799  -5.328  0.00  0.00    -0.271 OA
HETATM   15  H           1     -18.708  -9.609  -6.344  0.00  0.00     0.163 HD
BRANCH  13  16
HETATM   16  C           1     -17.413  -9.666  -3.181  0.00  0.00     0.345 C 
HETATM   17  N           1     -17.871 -10.936  -2.624  0.00  0.00     0.097 N 
HETATM   18  C           1     -16.739 -11.845  -2.778  0.00  0.00     0.271 C 
HETATM   19  H           1     -18.094 -10.836  -1.634  0.00  0.00     0.317 HD
HETATM   20  C           1     -15.533 -10.987  -2.434  0.00  0.00     0.033 C 
HETATM   21  C           1     -15.979  -9.552  -2.693  0.00  0.00     0.048 C 
ENDBRANCH  13  16
ENDBRANCH   1  12
TORSDOF 5
ENDMDL
