MODEL 1
REMARK VINA RESULT:      -6.2      0.000      0.000
REMARK  8 active torsions:
REMARK  status: ('A' for Active; 'I' for Inactive)
REMARK    1  A    between atoms: C_2  and  C_16 
REMARK    2  A    between atoms: C_2  and  C_3 
REMARK    3  A    between atoms: C_2  and  N_19 
REMARK    4  A    between atoms: O_7  and  C_8 
REMARK    5  A    between atoms: C_8  and  C_17 
REMARK    6  A    between atoms: O_11  and  C_16 
REMARK    7  A    between atoms: N_15  and  C_17 
REMARK    8  A    between atoms: C_17  and  C_20 
REMARK       I    between atoms: N_19  and  C_20 
ROOT
HETATM    1  H           1     -22.178  -5.781  -9.573  0.00  0.00     0.163 HD
HETATM    2  O           1     -21.758  -3.568  -7.390  0.00  0.00    -0.271 OA
HETATM    3  N           1     -22.179  -4.855  -9.166  0.00  0.00    -0.342 N 
HETATM    4  C           1     -21.756  -4.674  -7.876  0.00  0.00     0.251 C 
ENDROOT
BRANCH   4   5
HETATM    5  C           1     -21.288  -5.855  -7.063  0.00  0.00     0.302 C 
BRANCH   5   6
HETATM    6  C           1     -21.390  -5.524  -5.580  0.00  0.00     0.153 C 
HETATM    7  C           1     -21.422  -6.816  -4.773  0.00  0.00     0.042 C 
BRANCH   6   8
HETATM    8  O           1     -20.281  -4.759  -5.193  0.00  0.00    -0.393 OA
HETATM    9  H           1     -20.389  -3.907  -5.579  0.00  0.00     0.210 HD
ENDBRANCH   6   8
ENDBRANCH   5   6
BRANCH   5  10
HETATM   10  N           1     -19.861  -6.165  -7.408  0.00  0.00    -0.064 N 
HETATM   11  H           1     -19.833  -6.880  -8.170  0.00  0.00     0.275 HD
HETATM   12  H           1     -19.384  -5.293  -7.731  0.00  0.00     0.275 HD
HETATM   13  H           1     -19.372  -6.537  -6.563  0.00  0.00     0.275 HD
ENDBRANCH   5  10
ENDBRANCH   4   5
BRANCH   3  14
HETATM   14  C           1     -22.629  -3.719  -9.947  0.00  0.00     0.214 C 
BRANCH  14  15
HETATM   15  C           1     -21.855  -3.667 -11.257  0.00  0.00     0.147 C 
HETATM   16  C           1     -20.444  -4.195 -11.034  0.00  0.00     0.042 C 
BRANCH  15  17
HETATM   17  O           1     -22.504  -4.458 -12.216  0.00  0.00    -0.393 OA
HETATM   18  H           1     -22.494  -3.974 -13.023  0.00  0.00     0.210 HD
ENDBRANCH  15  17
ENDBRANCH  14  15
BRANCH  14  19
HETATM   19  C           1     -24.103  -3.863 -10.239  0.00  0.00     0.199 C 
HETATM   20  O           1     -24.722  -2.934 -10.800  0.00  0.00    -0.646 OA
HETATM   21  O           1     -24.704  -4.911  -9.920  0.00  0.00    -0.646 OA
ENDBRANCH  14  19
ENDBRANCH   3  14
TORSDOF 8
ENDMDL
MODEL 2
REMARK VINA RESULT:      -6.2     13.094     14.726
REMARK  8 active torsions:
REMARK  status: ('A' for Active; 'I' for Inactive)
REMARK    1  A    between atoms: C_2  and  C_16 
REMARK    2  A    between atoms: C_2  and  C_3 
REMARK    3  A    between atoms: C_2  and  N_19 
REMARK    4  A    between atoms: O_7  and  C_8 
REMARK    5  A    between atoms: C_8  and  C_17 
REMARK    6  A    between atoms: O_11  and  C_16 
REMARK    7  A    between atoms: N_15  and  C_17 
REMARK    8  A    between atoms: C_17  and  C_20 
REMARK       I    between atoms: N_19  and  C_20 
ROOT
HETATM    1  H           1     -34.148  -1.374 -14.349  0.00  0.00     0.163 HD
HETATM    2  O           1     -36.515  -1.482 -12.294  0.00  0.00    -0.271 OA
HETATM    3  N           1     -35.079  -1.222 -13.985  0.00  0.00    -0.342 N 
HETATM    4  C           1     -35.402  -1.662 -12.729  0.00  0.00     0.251 C 
ENDROOT
BRANCH   4   5
HETATM    5  C           1     -34.369  -2.370 -11.888  0.00  0.00     0.302 C 
BRANCH   5   6
HETATM    6  C           1     -34.858  -3.774 -11.556  0.00  0.00     0.153 C 
HETATM    7  C           1     -33.798  -4.501 -10.739  0.00  0.00     0.042 C 
BRANCH   6   8
HETATM    8  O           1     -36.045  -3.692 -10.815  0.00  0.00    -0.393 OA
HETATM    9  H           1     -36.753  -3.659 -11.435  0.00  0.00     0.210 HD
ENDBRANCH   6   8
ENDBRANCH   5   6
BRANCH   5  10
HETATM   10  N           1     -34.148  -1.605 -10.618  0.00  0.00    -0.064 N 
HETATM   11  H           1     -33.443  -0.851 -10.782  0.00  0.00     0.275 HD
HETATM   12  H           1     -35.049  -1.176 -10.308  0.00  0.00     0.275 HD
HETATM   13  H           1     -33.798  -2.254  -9.877  0.00  0.00     0.275 HD
ENDBRANCH   5  10
ENDBRANCH   4   5
BRANCH   3  14
HETATM   14  C           1     -36.072  -0.541 -14.792  0.00  0.00     0.214 C 
BRANCH  14  15
HETATM   15  C           1     -35.899   0.964 -14.646  0.00  0.00     0.147 C 
HETATM   16  C           1     -34.524   1.262 -14.062  0.00  0.00     0.042 C 
BRANCH  15  17
HETATM   17  O           1     -36.014   1.572 -15.905  0.00  0.00    -0.393 OA
HETATM   18  H           1     -36.841   2.023 -15.916  0.00  0.00     0.210 HD
ENDBRANCH  15  17
ENDBRANCH  14  15
BRANCH  14  19
HETATM   19  C           1     -35.896  -0.930 -16.239  0.00  0.00     0.199 C 
HETATM   20  O           1     -36.839  -0.783 -17.046  0.00  0.00    -0.646 OA
HETATM   21  O           1     -34.805  -1.399 -16.632  0.00  0.00    -0.646 OA
ENDBRANCH  14  19
ENDBRANCH   3  14
TORSDOF 8
ENDMDL
MODEL 3
REMARK VINA RESULT:      -6.0     12.409     14.327
REMARK  8 active torsions:
REMARK  status: ('A' for Active; 'I' for Inactive)
REMARK    1  A    between atoms: C_2  and  C_16 
REMARK    2  A    between atoms: C_2  and  C_3 
REMARK    3  A    between atoms: C_2  and  N_19 
REMARK    4  A    between atoms: O_7  and  C_8 
REMARK    5  A    between atoms: C_8  and  C_17 
REMARK    6  A    between atoms: O_11  and  C_16 
REMARK    7  A    between atoms: N_15  and  C_17 
REMARK    8  A    between atoms: C_17  and  C_20 
REMARK       I    between atoms: N_19  and  C_20 
ROOT
HETATM    1  H           1     -35.924  -2.220 -13.375  0.00  0.00     0.163 HD
HETATM    2  O           1     -33.852  -1.583 -11.107  0.00  0.00    -0.271 OA
HETATM    3  N           1     -35.450  -1.678 -12.665  0.00  0.00    -0.342 N 
HETATM    4  C           1     -34.418  -2.231 -11.955  0.00  0.00     0.251 C 
ENDROOT
BRANCH   4   5
HETATM    5  C           1     -33.988  -3.650 -12.232  0.00  0.00     0.302 C 
BRANCH   5   6
HETATM    6  C           1     -34.942  -4.616 -11.541  0.00  0.00     0.153 C 
HETATM    7  C           1     -34.171  -5.456 -10.532  0.00  0.00     0.042 C 
BRANCH   6   8
HETATM    8  O           1     -35.942  -3.890 -10.878  0.00  0.00    -0.393 OA
HETATM    9  H           1     -36.602  -4.509 -10.618  0.00  0.00     0.210 HD
ENDBRANCH   6   8
ENDBRANCH   5   6
BRANCH   5  10
HETATM   10  N           1     -32.598  -3.862 -11.710  0.00  0.00    -0.064 N 
HETATM   11  H           1     -32.588  -4.688 -11.068  0.00  0.00     0.275 HD
HETATM   12  H           1     -31.948  -4.036 -12.509  0.00  0.00     0.275 HD
HETATM   13  H           1     -32.289  -3.012 -11.187  0.00  0.00     0.275 HD
ENDBRANCH   5  10
ENDBRANCH   4   5
BRANCH   3  14
HETATM   14  C           1     -35.863  -0.314 -12.398  0.00  0.00     0.214 C 
BRANCH  14  15
HETATM   15  C           1     -36.625   0.229 -13.600  0.00  0.00     0.147 C 
HETATM   16  C           1     -35.646   0.526 -14.729  0.00  0.00     0.042 C 
BRANCH  15  17
HETATM   17  O           1     -37.559  -0.724 -14.030  0.00  0.00    -0.393 OA
HETATM   18  H           1     -38.366  -0.538 -13.581  0.00  0.00     0.210 HD
ENDBRANCH  15  17
ENDBRANCH  14  15
BRANCH  14  19
HETATM   19  C           1     -36.757  -0.287 -11.183  0.00  0.00     0.199 C 
HETATM   20  O           1     -37.674  -1.128 -11.063  0.00  0.00    -0.646 OA
HETATM   21  O           1     -36.579   0.575 -10.295  0.00  0.00    -0.646 OA
ENDBRANCH  14  19
ENDBRANCH   3  14
TORSDOF 8
ENDMDL
MODEL 4
REMARK VINA RESULT:      -5.8     12.757     15.159
REMARK  8 active torsions:
REMARK  status: ('A' for Active; 'I' for Inactive)
REMARK    1  A    between atoms: C_2  and  C_16 
REMARK    2  A    between atoms: C_2  and  C_3 
REMARK    3  A    between atoms: C_2  and  N_19 
REMARK    4  A    between atoms: O_7  and  C_8 
REMARK    5  A    between atoms: C_8  and  C_17 
REMARK    6  A    between atoms: O_11  and  C_16 
REMARK    7  A    between atoms: N_15  and  C_17 
REMARK    8  A    between atoms: C_17  and  C_20 
REMARK       I    between atoms: N_19  and  C_20 
ROOT
HETATM    1  H           1     -33.989  -1.354 -13.823  0.00  0.00     0.163 HD
HETATM    2  O           1     -36.959  -0.993 -12.878  0.00  0.00    -0.271 OA
HETATM    3  N           1     -34.832  -1.535 -13.293  0.00  0.00    -0.342 N 
HETATM    4  C           1     -35.952  -0.778 -13.511  0.00  0.00     0.251 C 
ENDROOT
BRANCH   4   5
HETATM    5  C           1     -35.930   0.323 -14.542  0.00  0.00     0.302 C 
BRANCH   5   6
HETATM    6  C           1     -36.661  -0.139 -15.796  0.00  0.00     0.153 C 
HETATM    7  C           1     -35.760  -1.070 -16.595  0.00  0.00     0.042 C 
BRANCH   6   8
HETATM    8  O           1     -37.831  -0.820 -15.430  0.00  0.00    -0.393 OA
HETATM    9  H           1     -38.183  -0.375 -14.678  0.00  0.00     0.210 HD
ENDBRANCH   6   8
ENDBRANCH   5   6
BRANCH   5  10
HETATM   10  N           1     -34.509   0.656 -14.887  0.00  0.00    -0.064 N 
HETATM   11  H           1     -33.913   0.575 -14.033  0.00  0.00     0.275 HD
HETATM   12  H           1     -34.163  -0.008 -15.617  0.00  0.00     0.275 HD
HETATM   13  H           1     -34.459   1.634 -15.254  0.00  0.00     0.275 HD
ENDBRANCH   5  10
ENDBRANCH   4   5
BRANCH   3  14
HETATM   14  C           1     -34.853  -2.593 -12.303  0.00  0.00     0.214 C 
BRANCH  14  15
HETATM   15  C           1     -34.147  -3.822 -12.859  0.00  0.00     0.147 C 
HETATM   16  C           1     -34.800  -5.079 -12.299  0.00  0.00     0.042 C 
BRANCH  15  17
HETATM   17  O           1     -34.249  -3.826 -14.258  0.00  0.00    -0.393 OA
HETATM   18  H           1     -33.423  -4.131 -14.592  0.00  0.00     0.210 HD
ENDBRANCH  15  17
ENDBRANCH  14  15
BRANCH  14  19
HETATM   19  C           1     -34.146  -2.128 -11.054  0.00  0.00     0.199 C 
HETATM   20  O           1     -34.754  -1.434 -10.212  0.00  0.00    -0.646 OA
HETATM   21  O           1     -32.949  -2.438 -10.862  0.00  0.00    -0.646 OA
ENDBRANCH  14  19
ENDBRANCH   3  14
TORSDOF 8
ENDMDL
MODEL 5
REMARK VINA RESULT:      -5.7      9.886     11.881
REMARK  8 active torsions:
REMARK  status: ('A' for Active; 'I' for Inactive)
REMARK    1  A    between atoms: C_2  and  C_16 
REMARK    2  A    between atoms: C_2  and  C_3 
REMARK    3  A    between atoms: C_2  and  N_19 
REMARK    4  A    between atoms: O_7  and  C_8 
REMARK    5  A    between atoms: C_8  and  C_17 
REMARK    6  A    between atoms: O_11  and  C_16 
REMARK    7  A    between atoms: N_15  and  C_17 
REMARK    8  A    between atoms: C_17  and  C_20 
REMARK       I    between atoms: N_19  and  C_20 
ROOT
HETATM    1  H           1     -26.237  -6.560 -17.234  0.00  0.00     0.163 HD
HETATM    2  O           1     -27.286  -6.144 -20.162  0.00  0.00    -0.271 OA
HETATM    3  N           1     -26.900  -6.362 -17.972  0.00  0.00    -0.342 N 
HETATM    4  C           1     -26.494  -6.382 -19.280  0.00  0.00     0.251 C 
ENDROOT
BRANCH   4   5
HETATM    5  C           1     -25.060  -6.702 -19.620  0.00  0.00     0.302 C 
BRANCH   5   6
HETATM    6  C           1     -25.010  -7.490 -20.923  0.00  0.00     0.153 C 
HETATM    7  C           1     -23.673  -8.213 -21.027  0.00  0.00     0.042 C 
BRANCH   6   8
HETATM    8  O           1     -26.050  -8.429 -20.941  0.00  0.00    -0.393 OA
HETATM    9  H           1     -25.776  -9.152 -20.403  0.00  0.00     0.210 HD
ENDBRANCH   6   8
ENDBRANCH   5   6
BRANCH   5  10
HETATM   10  N           1     -24.455  -7.520 -18.518  0.00  0.00    -0.064 N 
HETATM   11  H           1     -23.469  -7.212 -18.355  0.00  0.00     0.275 HD
HETATM   12  H           1     -25.009  -7.387 -17.642  0.00  0.00     0.275 HD
HETATM   13  H           1     -24.465  -8.529 -18.788  0.00  0.00     0.275 HD
ENDBRANCH   5  10
ENDBRANCH   4   5
BRANCH   3  14
HETATM   14  C           1     -28.278  -6.054 -17.646  0.00  0.00     0.214 C 
BRANCH  14  15
HETATM   15  C           1     -28.681  -6.809 -16.386  0.00  0.00     0.147 C 
HETATM   16  C           1     -27.430  -7.245 -15.634  0.00  0.00     0.042 C 
BRANCH  15  17
HETATM   17  O           1     -29.452  -5.972 -15.566  0.00  0.00    -0.393 OA
HETATM   18  H           1     -29.018  -5.136 -15.544  0.00  0.00     0.210 HD
ENDBRANCH  15  17
ENDBRANCH  14  15
BRANCH  14  19
HETATM   19  C           1     -28.421  -4.571 -17.411  0.00  0.00     0.199 C 
HETATM   20  O           1     -27.616  -3.977 -16.662  0.00  0.00    -0.646 OA
HETATM   21  O           1     -29.344  -3.936 -17.966  0.00  0.00    -0.646 OA
ENDBRANCH  14  19
ENDBRANCH   3  14
TORSDOF 8
ENDMDL
MODEL 6
REMARK VINA RESULT:      -5.6     10.051     12.290
REMARK  8 active torsions:
REMARK  status: ('A' for Active; 'I' for Inactive)
REMARK    1  A    between atoms: C_2  and  C_16 
REMARK    2  A    between atoms: C_2  and  C_3 
REMARK    3  A    between atoms: C_2  and  N_19 
REMARK    4  A    between atoms: O_7  and  C_8 
REMARK    5  A    between atoms: C_8  and  C_17 
REMARK    6  A    between atoms: O_11  and  C_16 
REMARK    7  A    between atoms: N_15  and  C_17 
REMARK    8  A    between atoms: C_17  and  C_20 
REMARK       I    between atoms: N_19  and  C_20 
ROOT
HETATM    1  H           1     -27.050  -7.489 -17.389  0.00  0.00     0.163 HD
HETATM    2  O           1     -28.287  -5.313 -19.279  0.00  0.00    -0.271 OA
HETATM    3  N           1     -27.722  -6.811 -17.721  0.00  0.00    -0.342 N 
HETATM    4  C           1     -27.484  -6.124 -18.883  0.00  0.00     0.251 C 
ENDROOT
BRANCH   4   5
HETATM    5  C           1     -26.221  -6.382 -19.666  0.00  0.00     0.302 C 
BRANCH   5   6
HETATM    6  C           1     -26.525  -7.320 -20.827  0.00  0.00     0.153 C 
HETATM    7  C           1     -25.255  -8.058 -21.228  0.00  0.00     0.042 C 
BRANCH   6   8
HETATM    8  O           1     -27.501  -8.247 -20.436  0.00  0.00    -0.393 OA
HETATM    9  H           1     -27.725  -8.748 -21.202  0.00  0.00     0.210 HD
ENDBRANCH   6   8
ENDBRANCH   5   6
BRANCH   5  10
HETATM   10  N           1     -25.197  -7.012 -18.770  0.00  0.00    -0.064 N 
HETATM   11  H           1     -24.862  -7.905 -19.196  0.00  0.00     0.275 HD
HETATM   12  H           1     -24.389  -6.359 -18.652  0.00  0.00     0.275 HD
HETATM   13  H           1     -25.624  -7.209 -17.837  0.00  0.00     0.275 HD
ENDBRANCH   5  10
ENDBRANCH   4   5
BRANCH   3  14
HETATM   14  C           1     -28.936  -6.564 -16.969  0.00  0.00     0.214 C 
BRANCH  14  15
HETATM   15  C           1     -29.958  -7.648 -17.285  0.00  0.00     0.147 C 
HETATM   16  C           1     -31.288  -7.001 -17.648  0.00  0.00     0.042 C 
BRANCH  15  17
HETATM   17  O           1     -29.502  -8.418 -18.364  0.00  0.00    -0.393 OA
HETATM   18  H           1     -28.578  -8.254 -18.447  0.00  0.00     0.210 HD
ENDBRANCH  15  17
ENDBRANCH  14  15
BRANCH  14  19
HETATM   19  C           1     -28.625  -6.581 -15.493  0.00  0.00     0.199 C 
HETATM   20  O           1     -29.124  -5.719 -14.738  0.00  0.00    -0.646 OA
HETATM   21  O           1     -27.867  -7.458 -15.024  0.00  0.00    -0.646 OA
ENDBRANCH  14  19
ENDBRANCH   3  14
TORSDOF 8
ENDMDL
MODEL 7
REMARK VINA RESULT:      -5.2     12.087     14.391
REMARK  8 active torsions:
REMARK  status: ('A' for Active; 'I' for Inactive)
REMARK    1  A    between atoms: C_2  and  C_16 
REMARK    2  A    between atoms: C_2  and  C_3 
REMARK    3  A    between atoms: C_2  and  N_19 
REMARK    4  A    between atoms: O_7  and  C_8 
REMARK    5  A    between atoms: C_8  and  C_17 
REMARK    6  A    between atoms: O_11  and  C_16 
REMARK    7  A    between atoms: N_15  and  C_17 
REMARK    8  A    between atoms: C_17  and  C_20 
REMARK       I    between atoms: N_19  and  C_20 
ROOT
HETATM    1  H           1     -35.403  -2.219 -14.451  0.00  0.00     0.163 HD
HETATM    2  O           1     -34.957  -1.664 -11.396  0.00  0.00    -0.271 OA
HETATM    3  N           1     -35.385  -1.692 -13.588  0.00  0.00    -0.342 N 
HETATM    4  C           1     -34.978  -2.294 -12.427  0.00  0.00     0.251 C 
ENDROOT
BRANCH   4   5
HETATM    5  C           1     -34.557  -3.742 -12.436  0.00  0.00     0.302 C 
BRANCH   5   6
HETATM    6  C           1     -33.608  -4.003 -11.273  0.00  0.00     0.153 C 
HETATM    7  C           1     -32.970  -5.376 -11.438  0.00  0.00     0.042 C 
BRANCH   6   8
HETATM    8  O           1     -32.607  -3.022 -11.258  0.00  0.00    -0.393 OA
HETATM    9  H           1     -31.924  -3.319 -11.835  0.00  0.00     0.210 HD
ENDBRANCH   6   8
ENDBRANCH   5   6
BRANCH   5  10
HETATM   10  N           1     -33.862  -4.053 -13.728  0.00  0.00    -0.064 N 
HETATM   11  H           1     -33.531  -3.166 -14.169  0.00  0.00     0.275 HD
HETATM   12  H           1     -33.043  -4.675 -13.541  0.00  0.00     0.275 HD
HETATM   13  H           1     -34.527  -4.537 -14.373  0.00  0.00     0.275 HD
ENDBRANCH   5  10
ENDBRANCH   4   5
BRANCH   3  14
HETATM   14  C           1     -35.789  -0.299 -13.580  0.00  0.00     0.214 C 
BRANCH  14  15
HETATM   15  C           1     -35.450   0.335 -14.922  0.00  0.00     0.147 C 
HETATM   16  C           1     -35.421  -0.742 -15.998  0.00  0.00     0.042 C 
BRANCH  15  17
HETATM   17  O           1     -36.424   1.292 -15.245  0.00  0.00    -0.393 OA
HETATM   18  H           1     -36.927   1.444 -14.463  0.00  0.00     0.210 HD
ENDBRANCH  15  17
ENDBRANCH  14  15
BRANCH  14  19
HETATM   19  C           1     -37.276  -0.209 -13.341  0.00  0.00     0.199 C 
HETATM   20  O           1     -37.711   0.366 -12.320  0.00  0.00    -0.646 OA
HETATM   21  O           1     -38.073  -0.709 -14.164  0.00  0.00    -0.646 OA
ENDBRANCH  14  19
ENDBRANCH   3  14
TORSDOF 8
ENDMDL
MODEL 8
REMARK VINA RESULT:      -4.9      1.683      5.551
REMARK  8 active torsions:
REMARK  status: ('A' for Active; 'I' for Inactive)
REMARK    1  A    between atoms: C_2  and  C_16 
REMARK    2  A    between atoms: C_2  and  C_3 
REMARK    3  A    between atoms: C_2  and  N_19 
REMARK    4  A    between atoms: O_7  and  C_8 
REMARK    5  A    between atoms: C_8  and  C_17 
REMARK    6  A    between atoms: O_11  and  C_16 
REMARK    7  A    between atoms: N_15  and  C_17 
REMARK    8  A    between atoms: C_17  and  C_20 
REMARK       I    between atoms: N_19  and  C_20 
ROOT
HETATM    1  H           1     -22.172  -6.516  -8.208  0.00  0.00     0.163 HD
HETATM    2  O           1     -22.370  -3.388  -8.337  0.00  0.00    -0.271 OA
HETATM    3  N           1     -22.034  -5.557  -7.920  0.00  0.00    -0.342 N 
HETATM    4  C           1     -22.535  -4.535  -8.681  0.00  0.00     0.251 C 
ENDROOT
BRANCH   4   5
HETATM    5  C           1     -23.295  -4.840  -9.948  0.00  0.00     0.302 C 
BRANCH   5   6
HETATM    6  C           1     -22.631  -4.134 -11.123  0.00  0.00     0.153 C 
HETATM    7  C           1     -21.135  -4.419 -11.106  0.00  0.00     0.042 C 
BRANCH   6   8
HETATM    8  O           1     -23.183  -4.602 -12.323  0.00  0.00    -0.393 OA
HETATM    9  H           1     -22.907  -4.009 -13.001  0.00  0.00     0.210 HD
ENDBRANCH   6   8
ENDBRANCH   5   6
BRANCH   5  10
HETATM   10  N           1     -24.710  -4.360  -9.811  0.00  0.00    -0.064 N 
HETATM   11  H           1     -25.186  -4.409 -10.740  0.00  0.00     0.275 HD
HETATM   12  H           1     -25.218  -4.965  -9.127  0.00  0.00     0.275 HD
HETATM   13  H           1     -24.710  -3.372  -9.471  0.00  0.00     0.275 HD
ENDBRANCH   5  10
ENDBRANCH   4   5
BRANCH   3  14
HETATM   14  C           1     -21.304  -5.263  -6.702  0.00  0.00     0.214 C 
BRANCH  14  15
HETATM   15  C           1     -21.832  -6.136  -5.572  0.00  0.00     0.147 C 
HETATM   16  C           1     -21.082  -5.810  -4.287  0.00  0.00     0.042 C 
BRANCH  15  17
HETATM   17  O           1     -23.200  -5.888  -5.391  0.00  0.00    -0.393 OA
HETATM   18  H           1     -23.275  -5.272  -4.681  0.00  0.00     0.210 HD
ENDBRANCH  15  17
ENDBRANCH  14  15
BRANCH  14  19
HETATM   19  C           1     -19.837  -5.546  -6.914  0.00  0.00     0.199 C 
HETATM   20  O           1     -19.018  -4.604  -6.960  0.00  0.00    -0.646 OA
HETATM   21  O           1     -19.441  -6.725  -7.044  0.00  0.00    -0.646 OA
ENDBRANCH  14  19
ENDBRANCH   3  14
TORSDOF 8
ENDMDL
MODEL 9
REMARK VINA RESULT:      -4.9      2.190      5.435
REMARK  8 active torsions:
REMARK  status: ('A' for Active; 'I' for Inactive)
REMARK    1  A    between atoms: C_2  and  C_16 
REMARK    2  A    between atoms: C_2  and  C_3 
REMARK    3  A    between atoms: C_2  and  N_19 
REMARK    4  A    between atoms: O_7  and  C_8 
REMARK    5  A    between atoms: C_8  and  C_17 
REMARK    6  A    between atoms: O_11  and  C_16 
REMARK    7  A    between atoms: N_15  and  C_17 
REMARK    8  A    between atoms: C_17  and  C_20 
REMARK       I    between atoms: N_19  and  C_20 
ROOT
HETATM    1  H           1     -22.110  -6.156  -7.860  0.00  0.00     0.163 HD
HETATM    2  O           1     -21.062  -3.378  -6.848  0.00  0.00    -0.271 OA
HETATM    3  N           1     -21.672  -5.491  -7.236  0.00  0.00    -0.342 N 
HETATM    4  C           1     -21.584  -4.172  -7.594  0.00  0.00     0.251 C 
ENDROOT
BRANCH   4   5
HETATM    5  C           1     -22.140  -3.711  -8.918  0.00  0.00     0.302 C 
BRANCH   5   6
HETATM    6  C           1     -23.662  -3.744  -8.869  0.00  0.00     0.153 C 
HETATM    7  C           1     -24.180  -4.766  -9.872  0.00  0.00     0.042 C 
BRANCH   6   8
HETATM    8  O           1     -24.081  -4.100  -7.580  0.00  0.00    -0.393 OA
HETATM    9  H           1     -24.863  -3.606  -7.400  0.00  0.00     0.210 HD
ENDBRANCH   6   8
ENDBRANCH   5   6
BRANCH   5  10
HETATM   10  N           1     -21.655  -4.620 -10.008  0.00  0.00    -0.064 N 
HETATM   11  H           1     -21.169  -5.443  -9.586  0.00  0.00     0.275 HD
HETATM   12  H           1     -22.470  -4.950 -10.574  0.00  0.00     0.275 HD
HETATM   13  H           1     -20.990  -4.100 -10.624  0.00  0.00     0.275 HD
ENDBRANCH   5  10
ENDBRANCH   4   5
BRANCH   3  14
HETATM   14  C           1     -21.138  -5.934  -5.963  0.00  0.00     0.214 C 
BRANCH  14  15
HETATM   15  C           1     -22.265  -6.503  -5.111  0.00  0.00     0.147 C 
HETATM   16  C           1     -21.936  -6.305  -3.637  0.00  0.00     0.042 C 
BRANCH  15  17
HETATM   17  O           1     -23.462  -5.839  -5.416  0.00  0.00    -0.393 OA
HETATM   18  H           1     -23.710  -6.108  -6.284  0.00  0.00     0.210 HD
ENDBRANCH  15  17
ENDBRANCH  14  15
BRANCH  14  19
HETATM   19  C           1     -20.098  -7.001  -6.199  0.00  0.00     0.199 C 
HETATM   20  O           1     -20.199  -8.110  -5.631  0.00  0.00    -0.646 OA
HETATM   21  O           1     -19.134  -6.776  -6.963  0.00  0.00    -0.646 OA
ENDBRANCH  14  19
ENDBRANCH   3  14
TORSDOF 8
ENDMDL
