MODEL 1
REMARK VINA RESULT:      -8.1      0.000      0.000
REMARK  12 active torsions:
REMARK  status: ('A' for Active; 'I' for Inactive)
REMARK    1  A    between atoms: C_1  and  O_27 
REMARK    2  A    between atoms: C_3  and  C_25 
REMARK    3  A    between atoms: C_4  and  C_10 
REMARK    4  A    between atoms: C_4  and  C_5 
REMARK    5  A    between atoms: C_10  and  C_12 
REMARK    6  A    between atoms: C_10  and  N_30 
REMARK       I    between atoms: C_12  and  N_22 
REMARK    7  A    between atoms: O_18  and  P_28 
REMARK    8  A    between atoms: N_22  and  C_35 
REMARK    9  A    between atoms: C_23  and  C_35 
REMARK   10  A    between atoms: C_25  and  C_35 
REMARK   11  A    between atoms: P_28  and  O_34 
REMARK   12  A    between atoms: C_33  and  O_34 
ROOT
HETATM    1  O           1     -21.582  -6.325  -2.746  0.00  0.00    -0.271 OA
HETATM    2  C           1     -21.575  -7.482  -3.095  0.00  0.00     0.249 C 
HETATM    3  H           1     -23.031  -8.061  -4.449  0.00  0.00     0.163 HD
HETATM    4  N           1     -22.054  -7.826  -4.332  0.00  0.00    -0.344 N 
ENDROOT
BRANCH   4   5
HETATM    5  C           1     -21.160  -7.854  -5.473  0.00  0.00     0.189 C 
BRANCH   5   6
HETATM    6  C           1     -20.171  -8.982  -5.308  0.00  0.00     0.197 C 
HETATM    7  O           1     -20.539 -10.165  -5.475  0.00  0.00    -0.646 OA
HETATM    8  O           1     -18.985  -8.733  -5.003  0.00  0.00    -0.646 OA
ENDBRANCH   5   6
BRANCH   5   9
HETATM    9  C           1     -20.410  -6.530  -5.561  0.00  0.00     0.074 C 
BRANCH   9  10
HETATM   10  C           1     -20.987  -5.703  -6.669  0.00  0.00    -0.056 A 
HETATM   11  C           1     -22.228  -5.087  -6.505  0.00  0.00     0.010 A 
HETATM   12  C           1     -22.765  -4.317  -7.537  0.00  0.00     0.038 A 
HETATM   13  C           1     -22.061  -4.162  -8.730  0.00  0.00     0.081 A 
HETATM   14  C           1     -20.821  -4.778  -8.894  0.00  0.00     0.038 A 
HETATM   15  C           1     -20.283  -5.549  -7.863  0.00  0.00     0.010 A 
BRANCH  13  16
HETATM   16  O           1     -22.583  -3.413  -9.733  0.00  0.00    -0.247 OA
BRANCH  16  17
HETATM   17  P           1     -23.567  -4.138 -10.788  0.00  0.00     0.411 P 
HETATM   18  O           1     -24.780  -3.312 -10.980  0.00  0.00    -0.624 OA
HETATM   19  O           1     -23.953  -5.468 -10.268  0.00  0.00    -0.624 OA
BRANCH  17  20
HETATM   20  O           1     -22.805  -4.313 -12.202  0.00  0.00    -0.300 OA
HETATM   21  H           1     -23.472  -4.590 -12.806  0.00  0.00     0.223 HD
ENDBRANCH  17  20
ENDBRANCH  16  17
ENDBRANCH  13  16
ENDBRANCH   9  10
ENDBRANCH   5   9
ENDBRANCH   4   5
BRANCH   2  22
HETATM   22  C           1     -21.039  -8.546  -2.170  0.00  0.00     0.278 C 
BRANCH  22  23
HETATM   23  C           1     -21.702  -8.414  -0.805  0.00  0.00     0.081 C 
BRANCH  23  24
HETATM   24  C           1     -22.120  -9.767  -0.320  0.00  0.00    -0.056 A 
HETATM   25  C           1     -21.179 -10.627   0.245  0.00  0.00     0.010 A 
HETATM   26  C           1     -21.569 -11.888   0.697  0.00  0.00     0.037 A 
HETATM   27  C           1     -22.901 -12.288   0.585  0.00  0.00     0.065 A 
HETATM   28  C           1     -23.842 -11.428   0.021  0.00  0.00     0.037 A 
HETATM   29  C           1     -23.452 -10.168  -0.431  0.00  0.00     0.010 A 
BRANCH  27  30
HETATM   30  O           1     -23.279 -13.513   1.024  0.00  0.00    -0.361 OA
HETATM   31  H           1     -23.582 -13.422   1.944  0.00  0.00     0.217 HD
ENDBRANCH  27  30
ENDBRANCH  23  24
ENDBRANCH  22  23
BRANCH  22  32
HETATM   32  N           1     -19.556  -8.380  -2.023  0.00  0.00    -0.066 N 
HETATM   33  H           1     -19.153  -9.232  -1.571  0.00  0.00     0.275 HD
HETATM   34  H           1     -19.125  -8.249  -2.966  0.00  0.00     0.275 HD
HETATM   35  H           1     -19.357  -7.543  -1.430  0.00  0.00     0.275 HD
ENDBRANCH  22  32
ENDBRANCH   2  22
TORSDOF 12
ENDMDL
MODEL 2
REMARK VINA RESULT:      -8.0      3.342      9.709
REMARK  12 active torsions:
REMARK  status: ('A' for Active; 'I' for Inactive)
REMARK    1  A    between atoms: C_1  and  O_27 
REMARK    2  A    between atoms: C_3  and  C_25 
REMARK    3  A    between atoms: C_4  and  C_10 
REMARK    4  A    between atoms: C_4  and  C_5 
REMARK    5  A    between atoms: C_10  and  C_12 
REMARK    6  A    between atoms: C_10  and  N_30 
REMARK       I    between atoms: C_12  and  N_22 
REMARK    7  A    between atoms: O_18  and  P_28 
REMARK    8  A    between atoms: N_22  and  C_35 
REMARK    9  A    between atoms: C_23  and  C_35 
REMARK   10  A    between atoms: C_25  and  C_35 
REMARK   11  A    between atoms: P_28  and  O_34 
REMARK   12  A    between atoms: C_33  and  O_34 
ROOT
HETATM    1  O           1     -19.439  -4.917  -5.894  0.00  0.00    -0.271 OA
HETATM    2  C           1     -20.181  -5.784  -6.292  0.00  0.00     0.249 C 
HETATM    3  H           1     -19.302  -7.433  -7.183  0.00  0.00     0.163 HD
HETATM    4  N           1     -19.749  -7.083  -6.346  0.00  0.00    -0.344 N 
ENDROOT
BRANCH   4   5
HETATM    5  C           1     -19.932  -7.955  -5.202  0.00  0.00     0.189 C 
BRANCH   5   6
HETATM    6  C           1     -18.840  -8.996  -5.186  0.00  0.00     0.197 C 
HETATM    7  O           1     -18.550  -9.616  -6.233  0.00  0.00    -0.646 OA
HETATM    8  O           1     -18.225  -9.240  -4.125  0.00  0.00    -0.646 OA
ENDBRANCH   5   6
BRANCH   5   9
HETATM    9  C           1     -21.288  -8.643  -5.301  0.00  0.00     0.074 C 
BRANCH   9  10
HETATM   10  C           1     -21.622  -9.279  -3.988  0.00  0.00    -0.056 A 
HETATM   11  C           1     -22.096 -10.591  -3.949  0.00  0.00     0.010 A 
HETATM   12  C           1     -22.409 -11.184  -2.726  0.00  0.00     0.038 A 
HETATM   13  C           1     -22.246 -10.465  -1.541  0.00  0.00     0.081 A 
HETATM   14  C           1     -21.772  -9.154  -1.580  0.00  0.00     0.038 A 
HETATM   15  C           1     -21.460  -8.561  -2.803  0.00  0.00     0.010 A 
BRANCH  13  16
HETATM   16  O           1     -22.549 -11.041  -0.352  0.00  0.00    -0.247 OA
BRANCH  16  17
HETATM   17  P           1     -21.345 -11.697   0.502  0.00  0.00     0.411 P 
HETATM   18  O           1     -20.339 -12.267  -0.422  0.00  0.00    -0.624 OA
HETATM   19  O           1     -21.883 -12.769   1.369  0.00  0.00    -0.624 OA
BRANCH  17  20
HETATM   20  O           1     -20.652 -10.560   1.416  0.00  0.00    -0.300 OA
HETATM   21  H           1     -19.806 -10.417   1.029  0.00  0.00     0.223 HD
ENDBRANCH  17  20
ENDBRANCH  16  17
ENDBRANCH  13  16
ENDBRANCH   9  10
ENDBRANCH   5   9
ENDBRANCH   4   5
BRANCH   2  22
HETATM   22  C           1     -21.582  -5.435  -6.729  0.00  0.00     0.278 C 
BRANCH  22  23
HETATM   23  C           1     -21.619  -3.993  -7.216  0.00  0.00     0.081 C 
BRANCH  23  24
HETATM   24  C           1     -21.667  -3.971  -8.711  0.00  0.00    -0.056 A 
HETATM   25  C           1     -22.895  -3.921  -9.369  0.00  0.00     0.010 A 
HETATM   26  C           1     -22.939  -3.900 -10.763  0.00  0.00     0.037 A 
HETATM   27  C           1     -21.754  -3.929 -11.499  0.00  0.00     0.065 A 
HETATM   28  C           1     -20.526  -3.979 -10.841  0.00  0.00     0.037 A 
HETATM   29  C           1     -20.482  -3.999  -9.447  0.00  0.00     0.010 A 
BRANCH  27  30
HETATM   30  O           1     -21.797  -3.910 -12.854  0.00  0.00    -0.361 OA
HETATM   31  H           1     -21.954  -2.992 -13.135  0.00  0.00     0.217 HD
ENDBRANCH  27  30
ENDBRANCH  23  24
ENDBRANCH  22  23
BRANCH  22  32
HETATM   32  N           1     -22.521  -5.596  -5.571  0.00  0.00    -0.066 N 
HETATM   33  H           1     -23.301  -6.237  -5.841  0.00  0.00     0.275 HD
HETATM   34  H           1     -22.005  -5.999  -4.756  0.00  0.00     0.275 HD
HETATM   35  H           1     -22.912  -4.663  -5.307  0.00  0.00     0.275 HD
ENDBRANCH  22  32
ENDBRANCH   2  22
TORSDOF 12
ENDMDL
MODEL 3
REMARK VINA RESULT:      -7.6      3.621      8.845
REMARK  12 active torsions:
REMARK  status: ('A' for Active; 'I' for Inactive)
REMARK    1  A    between atoms: C_1  and  O_27 
REMARK    2  A    between atoms: C_3  and  C_25 
REMARK    3  A    between atoms: C_4  and  C_10 
REMARK    4  A    between atoms: C_4  and  C_5 
REMARK    5  A    between atoms: C_10  and  C_12 
REMARK    6  A    between atoms: C_10  and  N_30 
REMARK       I    between atoms: C_12  and  N_22 
REMARK    7  A    between atoms: O_18  and  P_28 
REMARK    8  A    between atoms: N_22  and  C_35 
REMARK    9  A    between atoms: C_23  and  C_35 
REMARK   10  A    between atoms: C_25  and  C_35 
REMARK   11  A    between atoms: P_28  and  O_34 
REMARK   12  A    between atoms: C_33  and  O_34 
ROOT
HETATM    1  O           1     -22.509  -6.367  -4.446  0.00  0.00    -0.271 OA
HETATM    2  C           1     -21.319  -6.550  -4.344  0.00  0.00     0.249 C 
HETATM    3  H           1     -20.510  -6.411  -2.443  0.00  0.00     0.163 HD
HETATM    4  N           1     -20.801  -7.045  -3.176  0.00  0.00    -0.344 N 
ENDROOT
BRANCH   4   5
HETATM    5  C           1     -20.670  -8.477  -2.991  0.00  0.00     0.189 C 
BRANCH   5   6
HETATM    6  C           1     -21.813  -8.980  -2.144  0.00  0.00     0.197 C 
HETATM    7  O           1     -22.331 -10.092  -2.389  0.00  0.00    -0.646 OA
HETATM    8  O           1     -22.244  -8.284  -1.200  0.00  0.00    -0.646 OA
ENDBRANCH   5   6
BRANCH   5   9
HETATM    9  C           1     -19.350  -8.778  -2.293  0.00  0.00     0.074 C 
BRANCH   9  10
HETATM   10  C           1     -18.346  -9.244  -3.302  0.00  0.00    -0.056 A 
HETATM   11  C           1     -17.007  -9.392  -2.937  0.00  0.00     0.010 A 
HETATM   12  C           1     -16.073  -9.825  -3.877  0.00  0.00     0.038 A 
HETATM   13  C           1     -16.476 -10.112  -5.181  0.00  0.00     0.081 A 
HETATM   14  C           1     -17.814  -9.965  -5.545  0.00  0.00     0.038 A 
HETATM   15  C           1     -18.750  -9.531  -4.606  0.00  0.00     0.010 A 
BRANCH  13  16
HETATM   16  O           1     -15.568 -10.534  -6.094  0.00  0.00    -0.247 OA
BRANCH  16  17
HETATM   17  P           1     -15.412 -12.124  -6.331  0.00  0.00     0.411 P 
HETATM   18  O           1     -15.715 -12.842  -5.073  0.00  0.00    -0.624 OA
HETATM   19  O           1     -14.026 -12.426  -6.750  0.00  0.00    -0.624 OA
BRANCH  17  20
HETATM   20  O           1     -16.440 -12.600  -7.483  0.00  0.00    -0.300 OA
HETATM   21  H           1     -17.291 -12.348  -7.169  0.00  0.00     0.223 HD
ENDBRANCH  17  20
ENDBRANCH  16  17
ENDBRANCH  13  16
ENDBRANCH   9  10
ENDBRANCH   5   9
ENDBRANCH   4   5
BRANCH   2  22
HETATM   22  C           1     -20.405  -6.234  -5.501  0.00  0.00     0.278 C 
BRANCH  22  23
HETATM   23  C           1     -20.397  -4.731  -5.747  0.00  0.00     0.081 C 
BRANCH  23  24
HETATM   24  C           1     -20.888  -4.448  -7.132  0.00  0.00    -0.056 A 
HETATM   25  C           1     -22.248  -4.239  -7.360  0.00  0.00     0.010 A 
HETATM   26  C           1     -22.706  -3.975  -8.651  0.00  0.00     0.037 A 
HETATM   27  C           1     -21.804  -3.922  -9.714  0.00  0.00     0.065 A 
HETATM   28  C           1     -20.445  -4.131  -9.486  0.00  0.00     0.037 A 
HETATM   29  C           1     -19.987  -4.394  -8.195  0.00  0.00     0.010 A 
BRANCH  27  30
HETATM   30  O           1     -22.250  -3.666 -10.968  0.00  0.00    -0.361 OA
HETATM   31  H           1     -21.601  -4.027 -11.596  0.00  0.00     0.217 HD
ENDBRANCH  27  30
ENDBRANCH  23  24
ENDBRANCH  22  23
BRANCH  22  32
HETATM   32  N           1     -20.893  -6.939  -6.731  0.00  0.00    -0.066 N 
HETATM   33  H           1     -20.221  -7.697  -6.988  0.00  0.00     0.275 HD
HETATM   34  H           1     -21.834  -7.355  -6.544  0.00  0.00     0.275 HD
HETATM   35  H           1     -20.966  -6.255  -7.519  0.00  0.00     0.275 HD
ENDBRANCH  22  32
ENDBRANCH   2  22
TORSDOF 12
ENDMDL
MODEL 4
REMARK VINA RESULT:      -7.6      3.129      4.615
REMARK  12 active torsions:
REMARK  status: ('A' for Active; 'I' for Inactive)
REMARK    1  A    between atoms: C_1  and  O_27 
REMARK    2  A    between atoms: C_3  and  C_25 
REMARK    3  A    between atoms: C_4  and  C_10 
REMARK    4  A    between atoms: C_4  and  C_5 
REMARK    5  A    between atoms: C_10  and  C_12 
REMARK    6  A    between atoms: C_10  and  N_30 
REMARK       I    between atoms: C_12  and  N_22 
REMARK    7  A    between atoms: O_18  and  P_28 
REMARK    8  A    between atoms: N_22  and  C_35 
REMARK    9  A    between atoms: C_23  and  C_35 
REMARK   10  A    between atoms: C_25  and  C_35 
REMARK   11  A    between atoms: P_28  and  O_34 
REMARK   12  A    between atoms: C_33  and  O_34 
ROOT
HETATM    1  O           1     -18.886 -13.391  -2.588  0.00  0.00    -0.271 OA
HETATM    2  C           1     -19.282 -12.479  -1.903  0.00  0.00     0.249 C 
HETATM    3  H           1     -17.847 -11.247  -1.060  0.00  0.00     0.163 HD
HETATM    4  N           1     -18.540 -11.333  -1.793  0.00  0.00    -0.344 N 
ENDROOT
BRANCH   4   5
HETATM    5  C           1     -18.746 -10.243  -2.726  0.00  0.00     0.189 C 
BRANCH   5   6
HETATM    6  C           1     -17.423  -9.846  -3.334  0.00  0.00     0.197 C 
HETATM    7  O           1     -17.179 -10.114  -4.531  0.00  0.00    -0.646 OA
HETATM    8  O           1     -16.571  -9.251  -2.640  0.00  0.00    -0.646 OA
ENDBRANCH   5   6
BRANCH   5   9
HETATM    9  C           1     -19.344  -9.051  -1.990  0.00  0.00     0.074 C 
BRANCH   9  10
HETATM   10  C           1     -20.178  -8.245  -2.938  0.00  0.00    -0.056 A 
HETATM   11  C           1     -20.934  -7.172  -2.463  0.00  0.00     0.010 A 
HETATM   12  C           1     -21.711  -6.423  -3.345  0.00  0.00     0.038 A 
HETATM   13  C           1     -21.732  -6.745  -4.702  0.00  0.00     0.081 A 
HETATM   14  C           1     -20.977  -7.817  -5.177  0.00  0.00     0.038 A 
HETATM   15  C           1     -20.200  -8.568  -4.294  0.00  0.00     0.010 A 
BRANCH  13  16
HETATM   16  O           1     -22.487  -6.015  -5.560  0.00  0.00    -0.247 OA
BRANCH  16  17
HETATM   17  P           1     -21.725  -5.103  -6.654  0.00  0.00     0.411 P 
HETATM   18  O           1     -21.168  -5.968  -7.717  0.00  0.00    -0.624 OA
HETATM   19  O           1     -20.627  -4.361  -5.996  0.00  0.00    -0.624 OA
BRANCH  17  20
HETATM   20  O           1     -22.769  -4.057  -7.303  0.00  0.00    -0.300 OA
HETATM   21  H           1     -22.258  -3.542  -7.903  0.00  0.00     0.223 HD
ENDBRANCH  17  20
ENDBRANCH  16  17
ENDBRANCH  13  16
ENDBRANCH   9  10
ENDBRANCH   5   9
ENDBRANCH   4   5
BRANCH   2  22
HETATM   22  C           1     -20.595 -12.601  -1.169  0.00  0.00     0.278 C 
BRANCH  22  23
HETATM   23  C           1     -20.458 -11.997   0.222  0.00  0.00     0.081 C 
BRANCH  23  24
HETATM   24  C           1     -21.322 -10.779   0.326  0.00  0.00    -0.056 A 
HETATM   25  C           1     -22.599 -10.780  -0.236  0.00  0.00     0.010 A 
HETATM   26  C           1     -23.404  -9.645  -0.139  0.00  0.00     0.037 A 
HETATM   27  C           1     -22.932  -8.509   0.519  0.00  0.00     0.065 A 
HETATM   28  C           1     -21.656  -8.508   1.080  0.00  0.00     0.037 A 
HETATM   29  C           1     -20.851  -9.643   0.984  0.00  0.00     0.010 A 
BRANCH  27  30
HETATM   30  O           1     -23.715  -7.406   0.612  0.00  0.00    -0.361 OA
HETATM   31  H           1     -23.285  -6.691   0.114  0.00  0.00     0.217 HD
ENDBRANCH  27  30
ENDBRANCH  23  24
ENDBRANCH  22  23
BRANCH  22  32
HETATM   32  N           1     -20.968 -14.048  -1.051  0.00  0.00    -0.066 N 
HETATM   33  H           1     -21.781 -14.147  -0.401  0.00  0.00     0.275 HD
HETATM   34  H           1     -21.228 -14.420  -1.993  0.00  0.00     0.275 HD
HETATM   35  H           1     -20.155 -14.588  -0.676  0.00  0.00     0.275 HD
ENDBRANCH  22  32
ENDBRANCH   2  22
TORSDOF 12
ENDMDL
MODEL 5
REMARK VINA RESULT:      -7.6      3.267      8.530
REMARK  12 active torsions:
REMARK  status: ('A' for Active; 'I' for Inactive)
REMARK    1  A    between atoms: C_1  and  O_27 
REMARK    2  A    between atoms: C_3  and  C_25 
REMARK    3  A    between atoms: C_4  and  C_10 
REMARK    4  A    between atoms: C_4  and  C_5 
REMARK    5  A    between atoms: C_10  and  C_12 
REMARK    6  A    between atoms: C_10  and  N_30 
REMARK       I    between atoms: C_12  and  N_22 
REMARK    7  A    between atoms: O_18  and  P_28 
REMARK    8  A    between atoms: N_22  and  C_35 
REMARK    9  A    between atoms: C_23  and  C_35 
REMARK   10  A    between atoms: C_25  and  C_35 
REMARK   11  A    between atoms: P_28  and  O_34 
REMARK   12  A    between atoms: C_33  and  O_34 
ROOT
HETATM    1  O           1     -22.800  -6.036  -4.875  0.00  0.00    -0.271 OA
HETATM    2  C           1     -21.661  -6.208  -4.511  0.00  0.00     0.249 C 
HETATM    3  H           1     -21.191  -5.606  -2.586  0.00  0.00     0.163 HD
HETATM    4  N           1     -21.389  -6.400  -3.182  0.00  0.00    -0.344 N 
ENDROOT
BRANCH   4   5
HETATM    5  C           1     -21.385  -7.740  -2.629  0.00  0.00     0.189 C 
BRANCH   5   6
HETATM    6  C           1     -21.960  -7.709  -1.235  0.00  0.00     0.197 C 
HETATM    7  O           1     -21.700  -8.630  -0.430  0.00  0.00    -0.646 OA
HETATM    8  O           1     -22.699  -6.763  -0.884  0.00  0.00    -0.646 OA
ENDBRANCH   5   6
BRANCH   5   9
HETATM    9  C           1     -19.955  -8.262  -2.577  0.00  0.00     0.074 C 
BRANCH   9  10
HETATM   10  C           1     -19.696  -9.130  -3.769  0.00  0.00    -0.056 A 
HETATM   11  C           1     -18.412  -9.208  -4.310  0.00  0.00     0.010 A 
HETATM   12  C           1     -18.171 -10.016  -5.421  0.00  0.00     0.038 A 
HETATM   13  C           1     -19.213 -10.747  -5.990  0.00  0.00     0.081 A 
HETATM   14  C           1     -20.497 -10.669  -5.451  0.00  0.00     0.038 A 
HETATM   15  C           1     -20.739  -9.860  -4.339  0.00  0.00     0.010 A 
BRANCH  13  16
HETATM   16  O           1     -18.979 -11.533  -7.070  0.00  0.00    -0.247 OA
BRANCH  16  17
HETATM   17  P           1     -18.176 -12.915  -6.842  0.00  0.00     0.411 P 
HETATM   18  O           1     -16.736 -12.697  -7.104  0.00  0.00    -0.624 OA
HETATM   19  O           1     -18.696 -13.945  -7.768  0.00  0.00    -0.624 OA
BRANCH  17  20
HETATM   20  O           1     -18.377 -13.409  -5.318  0.00  0.00    -0.300 OA
HETATM   21  H           1     -17.790 -14.139  -5.218  0.00  0.00     0.223 HD
ENDBRANCH  17  20
ENDBRANCH  16  17
ENDBRANCH  13  16
ENDBRANCH   9  10
ENDBRANCH   5   9
ENDBRANCH   4   5
BRANCH   2  22
HETATM   22  C           1     -20.539  -6.212  -5.519  0.00  0.00     0.278 C 
BRANCH  22  23
HETATM   23  C           1     -20.188  -4.778  -5.896  0.00  0.00     0.081 C 
BRANCH  23  24
HETATM   24  C           1     -20.714  -4.479  -7.264  0.00  0.00    -0.056 A 
HETATM   25  C           1     -22.027  -4.035  -7.425  0.00  0.00     0.010 A 
HETATM   26  C           1     -22.517  -3.755  -8.701  0.00  0.00     0.037 A 
HETATM   27  C           1     -21.695  -3.919  -9.815  0.00  0.00     0.065 A 
HETATM   28  C           1     -20.383  -4.363  -9.655  0.00  0.00     0.037 A 
HETATM   29  C           1     -19.893  -4.642  -8.380  0.00  0.00     0.010 A 
BRANCH  27  30
HETATM   30  O           1     -22.172  -3.648 -11.055  0.00  0.00    -0.361 OA
HETATM   31  H           1     -22.535  -2.746 -11.045  0.00  0.00     0.217 HD
ENDBRANCH  27  30
ENDBRANCH  23  24
ENDBRANCH  22  23
BRANCH  22  32
HETATM   32  N           1     -20.971  -6.959  -6.745  0.00  0.00    -0.066 N 
HETATM   33  H           1     -21.387  -7.877  -6.465  0.00  0.00     0.275 HD
HETATM   34  H           1     -21.684  -6.397  -7.263  0.00  0.00     0.275 HD
HETATM   35  H           1     -20.144  -7.125  -7.362  0.00  0.00     0.275 HD
ENDBRANCH  22  32
ENDBRANCH   2  22
TORSDOF 12
ENDMDL
MODEL 6
REMARK VINA RESULT:      -7.4      3.229      9.778
REMARK  12 active torsions:
REMARK  status: ('A' for Active; 'I' for Inactive)
REMARK    1  A    between atoms: C_1  and  O_27 
REMARK    2  A    between atoms: C_3  and  C_25 
REMARK    3  A    between atoms: C_4  and  C_10 
REMARK    4  A    between atoms: C_4  and  C_5 
REMARK    5  A    between atoms: C_10  and  C_12 
REMARK    6  A    between atoms: C_10  and  N_30 
REMARK       I    between atoms: C_12  and  N_22 
REMARK    7  A    between atoms: O_18  and  P_28 
REMARK    8  A    between atoms: N_22  and  C_35 
REMARK    9  A    between atoms: C_23  and  C_35 
REMARK   10  A    between atoms: C_25  and  C_35 
REMARK   11  A    between atoms: P_28  and  O_34 
REMARK   12  A    between atoms: C_33  and  O_34 
ROOT
HETATM    1  O           1     -19.128  -7.191  -6.391  0.00  0.00    -0.271 OA
HETATM    2  C           1     -20.257  -6.774  -6.504  0.00  0.00     0.249 C 
HETATM    3  H           1     -21.683  -8.106  -7.197  0.00  0.00     0.163 HD
HETATM    4  N           1     -21.318  -7.631  -6.381  0.00  0.00    -0.344 N 
ENDROOT
BRANCH   4   5
HETATM    5  C           1     -21.918  -7.860  -5.081  0.00  0.00     0.189 C 
BRANCH   5   6
HETATM    6  C           1     -22.427  -6.552  -4.527  0.00  0.00     0.197 C 
HETATM    7  O           1     -21.870  -6.034  -3.534  0.00  0.00    -0.646 OA
HETATM    8  O           1     -23.407  -5.987  -5.059  0.00  0.00    -0.646 OA
ENDBRANCH   5   6
BRANCH   5   9
HETATM    9  C           1     -20.874  -8.440  -4.135  0.00  0.00     0.074 C 
BRANCH   9  10
HETATM   10  C           1     -21.530  -9.408  -3.199  0.00  0.00    -0.056 A 
HETATM   11  C           1     -21.397  -9.243  -1.820  0.00  0.00     0.010 A 
HETATM   12  C           1     -22.007 -10.144  -0.948  0.00  0.00     0.038 A 
HETATM   13  C           1     -22.752 -11.209  -1.455  0.00  0.00     0.081 A 
HETATM   14  C           1     -22.885 -11.374  -2.834  0.00  0.00     0.038 A 
HETATM   15  C           1     -22.274 -10.473  -3.707  0.00  0.00     0.010 A 
BRANCH  13  16
HETATM   16  O           1     -23.346 -12.085  -0.608  0.00  0.00    -0.247 OA
BRANCH  16  17
HETATM   17  P           1     -22.459 -13.309  -0.038  0.00  0.00     0.411 P 
HETATM   18  O           1     -21.346 -13.589  -0.972  0.00  0.00    -0.624 OA
HETATM   19  O           1     -23.308 -14.513   0.094  0.00  0.00    -0.624 OA
BRANCH  17  20
HETATM   20  O           1     -21.860 -12.910   1.408  0.00  0.00    -0.300 OA
HETATM   21  H           1     -22.581 -12.521   1.872  0.00  0.00     0.223 HD
ENDBRANCH  17  20
ENDBRANCH  16  17
ENDBRANCH  13  16
ENDBRANCH   9  10
ENDBRANCH   5   9
ENDBRANCH   4   5
BRANCH   2  22
HETATM   22  C           1     -20.497  -5.310  -6.779  0.00  0.00     0.278 C 
BRANCH  22  23
HETATM   23  C           1     -20.177  -5.007  -8.236  0.00  0.00     0.081 C 
BRANCH  23  24
HETATM   24  C           1     -21.417  -4.545  -8.935  0.00  0.00    -0.056 A 
HETATM   25  C           1     -22.597  -4.364  -8.213  0.00  0.00     0.010 A 
HETATM   26  C           1     -23.753  -3.932  -8.865  0.00  0.00     0.037 A 
HETATM   27  C           1     -23.728  -3.683 -10.237  0.00  0.00     0.065 A 
HETATM   28  C           1     -22.549  -3.864 -10.958  0.00  0.00     0.037 A 
HETATM   29  C           1     -21.393  -4.295 -10.307  0.00  0.00     0.010 A 
BRANCH  27  30
HETATM   30  O           1     -24.852  -3.265 -10.869  0.00  0.00    -0.361 OA
HETATM   31  H           1     -24.945  -2.309 -10.714  0.00  0.00     0.217 HD
ENDBRANCH  27  30
ENDBRANCH  23  24
ENDBRANCH  22  23
BRANCH  22  32
HETATM   32  N           1     -19.615  -4.484  -5.891  0.00  0.00    -0.066 N 
HETATM   33  H           1     -19.846  -3.472  -6.015  0.00  0.00     0.275 HD
HETATM   34  H           1     -19.768  -4.758  -4.894  0.00  0.00     0.275 HD
HETATM   35  H           1     -18.614  -4.647  -6.146  0.00  0.00     0.275 HD
ENDBRANCH  22  32
ENDBRANCH   2  22
TORSDOF 12
ENDMDL
MODEL 7
REMARK VINA RESULT:      -7.3      4.580      8.732
REMARK  12 active torsions:
REMARK  status: ('A' for Active; 'I' for Inactive)
REMARK    1  A    between atoms: C_1  and  O_27 
REMARK    2  A    between atoms: C_3  and  C_25 
REMARK    3  A    between atoms: C_4  and  C_10 
REMARK    4  A    between atoms: C_4  and  C_5 
REMARK    5  A    between atoms: C_10  and  C_12 
REMARK    6  A    between atoms: C_10  and  N_30 
REMARK       I    between atoms: C_12  and  N_22 
REMARK    7  A    between atoms: O_18  and  P_28 
REMARK    8  A    between atoms: N_22  and  C_35 
REMARK    9  A    between atoms: C_23  and  C_35 
REMARK   10  A    between atoms: C_25  and  C_35 
REMARK   11  A    between atoms: P_28  and  O_34 
REMARK   12  A    between atoms: C_33  and  O_34 
ROOT
HETATM    1  O           1     -21.508  -7.777  -5.193  0.00  0.00    -0.271 OA
HETATM    2  C           1     -20.841  -8.339  -4.356  0.00  0.00     0.249 C 
HETATM    3  H           1     -19.900  -7.144  -2.951  0.00  0.00     0.163 HD
HETATM    4  N           1     -20.675  -7.773  -3.120  0.00  0.00    -0.344 N 
ENDROOT
BRANCH   4   5
HETATM    5  C           1     -21.611  -8.073  -2.053  0.00  0.00     0.189 C 
BRANCH   5   6
HETATM    6  C           1     -22.271  -6.798  -1.592  0.00  0.00     0.197 C 
HETATM    7  O           1     -22.341  -5.815  -2.362  0.00  0.00    -0.646 OA
HETATM    8  O           1     -22.747  -6.723  -0.438  0.00  0.00    -0.646 OA
ENDBRANCH   5   6
BRANCH   5   9
HETATM    9  C           1     -20.863  -8.709  -0.888  0.00  0.00     0.074 C 
BRANCH   9  10
HETATM   10  C           1     -21.569  -9.960  -0.465  0.00  0.00    -0.056 A 
HETATM   11  C           1     -22.880 -10.196  -0.880  0.00  0.00     0.010 A 
HETATM   12  C           1     -23.539 -11.359  -0.485  0.00  0.00     0.038 A 
HETATM   13  C           1     -22.885 -12.289   0.324  0.00  0.00     0.081 A 
HETATM   14  C           1     -21.575 -12.054   0.740  0.00  0.00     0.038 A 
HETATM   15  C           1     -20.916 -10.889   0.346  0.00  0.00     0.010 A 
BRANCH  13  16
HETATM   16  O           1     -23.525 -13.421   0.708  0.00  0.00    -0.247 OA
BRANCH  16  17
HETATM   17  P           1     -23.607 -14.641  -0.347  0.00  0.00     0.411 P 
HETATM   18  O           1     -24.872 -14.549  -1.110  0.00  0.00    -0.624 OA
HETATM   19  O           1     -23.563 -15.927   0.382  0.00  0.00    -0.624 OA
BRANCH  17  20
HETATM   20  O           1     -22.357 -14.556  -1.366  0.00  0.00    -0.300 OA
HETATM   21  H           1     -22.224 -13.635  -1.514  0.00  0.00     0.223 HD
ENDBRANCH  17  20
ENDBRANCH  16  17
ENDBRANCH  13  16
ENDBRANCH   9  10
ENDBRANCH   5   9
ENDBRANCH   4   5
BRANCH   2  22
HETATM   22  C           1     -20.191  -9.663  -4.673  0.00  0.00     0.278 C 
BRANCH  22  23
HETATM   23  C           1     -18.700  -9.456  -4.903  0.00  0.00     0.081 C 
BRANCH  23  24
HETATM   24  C           1     -17.933 -10.029  -3.754  0.00  0.00    -0.056 A 
HETATM   25  C           1     -18.558 -10.902  -2.863  0.00  0.00     0.010 A 
HETATM   26  C           1     -17.843 -11.437  -1.792  0.00  0.00     0.037 A 
HETATM   27  C           1     -16.501 -11.099  -1.611  0.00  0.00     0.065 A 
HETATM   28  C           1     -15.876 -10.227  -2.500  0.00  0.00     0.037 A 
HETATM   29  C           1     -16.591  -9.692  -3.572  0.00  0.00     0.010 A 
BRANCH  27  30
HETATM   30  O           1     -15.807 -11.618  -0.569  0.00  0.00    -0.361 OA
HETATM   31  H           1     -15.197 -12.289  -0.920  0.00  0.00     0.217 HD
ENDBRANCH  27  30
ENDBRANCH  23  24
ENDBRANCH  22  23
BRANCH  22  32
HETATM   32  N           1     -20.812 -10.241  -5.910  0.00  0.00    -0.066 N 
HETATM   33  H           1     -20.200 -10.040  -6.733  0.00  0.00     0.275 HD
HETATM   34  H           1     -20.917 -11.274  -5.797  0.00  0.00     0.275 HD
HETATM   35  H           1     -21.752  -9.810  -6.061  0.00  0.00     0.275 HD
ENDBRANCH  22  32
ENDBRANCH   2  22
TORSDOF 12
ENDMDL
MODEL 8
REMARK VINA RESULT:      -7.3      4.240      9.668
REMARK  12 active torsions:
REMARK  status: ('A' for Active; 'I' for Inactive)
REMARK    1  A    between atoms: C_1  and  O_27 
REMARK    2  A    between atoms: C_3  and  C_25 
REMARK    3  A    between atoms: C_4  and  C_10 
REMARK    4  A    between atoms: C_4  and  C_5 
REMARK    5  A    between atoms: C_10  and  C_12 
REMARK    6  A    between atoms: C_10  and  N_30 
REMARK       I    between atoms: C_12  and  N_22 
REMARK    7  A    between atoms: O_18  and  P_28 
REMARK    8  A    between atoms: N_22  and  C_35 
REMARK    9  A    between atoms: C_23  and  C_35 
REMARK   10  A    between atoms: C_25  and  C_35 
REMARK   11  A    between atoms: P_28  and  O_34 
REMARK   12  A    between atoms: C_33  and  O_34 
ROOT
HETATM    1  O           1     -22.214  -6.178  -5.416  0.00  0.00    -0.271 OA
HETATM    2  C           1     -21.006  -6.169  -5.412  0.00  0.00     0.249 C 
HETATM    3  H           1     -20.072  -6.475  -3.589  0.00  0.00     0.163 HD
HETATM    4  N           1     -20.319  -6.896  -4.475  0.00  0.00    -0.344 N 
ENDROOT
BRANCH   4   5
HETATM    5  C           1     -19.946  -8.270  -4.753  0.00  0.00     0.189 C 
BRANCH   5   6
HETATM    6  C           1     -21.190  -9.085  -5.004  0.00  0.00     0.197 C 
HETATM    7  O           1     -21.400  -9.575  -6.136  0.00  0.00    -0.646 OA
HETATM    8  O           1     -22.013  -9.271  -4.082  0.00  0.00    -0.646 OA
ENDBRANCH   5   6
BRANCH   5   9
HETATM    9  C           1     -19.196  -8.843  -3.558  0.00  0.00     0.074 C 
BRANCH   9  10
HETATM   10  C           1     -17.922  -9.478  -4.026  0.00  0.00    -0.056 A 
HETATM   11  C           1     -17.770  -9.829  -5.367  0.00  0.00     0.010 A 
HETATM   12  C           1     -16.585 -10.421  -5.803  0.00  0.00     0.038 A 
HETATM   13  C           1     -15.552 -10.660  -4.897  0.00  0.00     0.081 A 
HETATM   14  C           1     -15.704 -10.310  -3.556  0.00  0.00     0.038 A 
HETATM   15  C           1     -16.889  -9.718  -3.119  0.00  0.00     0.010 A 
BRANCH  13  16
HETATM   16  O           1     -14.399 -11.235  -5.320  0.00  0.00    -0.247 OA
BRANCH  16  17
HETATM   17  P           1     -14.120 -12.771  -4.905  0.00  0.00     0.411 P 
HETATM   18  O           1     -15.409 -13.468  -4.698  0.00  0.00    -0.624 OA
HETATM   19  O           1     -13.334 -12.808  -3.652  0.00  0.00    -0.624 OA
BRANCH  17  20
HETATM   20  O           1     -13.294 -13.505  -6.082  0.00  0.00    -0.300 OA
HETATM   21  H           1     -13.069 -12.819  -6.686  0.00  0.00     0.223 HD
ENDBRANCH  17  20
ENDBRANCH  16  17
ENDBRANCH  13  16
ENDBRANCH   9  10
ENDBRANCH   5   9
ENDBRANCH   4   5
BRANCH   2  22
HETATM   22  C           1     -20.253  -5.359  -6.438  0.00  0.00     0.278 C 
BRANCH  22  23
HETATM   23  C           1     -21.085  -4.148  -6.839  0.00  0.00     0.081 C 
BRANCH  23  24
HETATM   24  C           1     -21.371  -4.202  -8.307  0.00  0.00    -0.056 A 
HETATM   25  C           1     -22.658  -4.498  -8.756  0.00  0.00     0.010 A 
HETATM   26  C           1     -22.925  -4.549 -10.124  0.00  0.00     0.037 A 
HETATM   27  C           1     -21.905  -4.303 -11.043  0.00  0.00     0.065 A 
HETATM   28  C           1     -20.618  -4.007 -10.595  0.00  0.00     0.037 A 
HETATM   29  C           1     -20.352  -3.957  -9.227  0.00  0.00     0.010 A 
BRANCH  27  30
HETATM   30  O           1     -22.164  -4.353 -12.373  0.00  0.00    -0.361 OA
HETATM   31  H           1     -21.816  -3.540 -12.777  0.00  0.00     0.217 HD
ENDBRANCH  27  30
ENDBRANCH  23  24
ENDBRANCH  22  23
BRANCH  22  32
HETATM   32  N           1     -19.988  -6.205  -7.647  0.00  0.00    -0.066 N 
HETATM   33  H           1     -20.298  -7.186  -7.460  0.00  0.00     0.275 HD
HETATM   34  H           1     -20.516  -5.822  -8.464  0.00  0.00     0.275 HD
HETATM   35  H           1     -18.965  -6.198  -7.860  0.00  0.00     0.275 HD
ENDBRANCH  22  32
ENDBRANCH   2  22
TORSDOF 12
ENDMDL
MODEL 9
REMARK VINA RESULT:      -7.1      3.308      9.711
REMARK  12 active torsions:
REMARK  status: ('A' for Active; 'I' for Inactive)
REMARK    1  A    between atoms: C_1  and  O_27 
REMARK    2  A    between atoms: C_3  and  C_25 
REMARK    3  A    between atoms: C_4  and  C_10 
REMARK    4  A    between atoms: C_4  and  C_5 
REMARK    5  A    between atoms: C_10  and  C_12 
REMARK    6  A    between atoms: C_10  and  N_30 
REMARK       I    between atoms: C_12  and  N_22 
REMARK    7  A    between atoms: O_18  and  P_28 
REMARK    8  A    between atoms: N_22  and  C_35 
REMARK    9  A    between atoms: C_23  and  C_35 
REMARK   10  A    between atoms: C_25  and  C_35 
REMARK   11  A    between atoms: P_28  and  O_34 
REMARK   12  A    between atoms: C_33  and  O_34 
ROOT
HETATM    1  O           1     -21.775  -4.028  -6.133  0.00  0.00    -0.271 OA
HETATM    2  C           1     -20.787  -4.683  -5.899  0.00  0.00     0.249 C 
HETATM    3  H           1     -19.872  -4.378  -4.066  0.00  0.00     0.163 HD
HETATM    4  N           1     -20.465  -4.997  -4.605  0.00  0.00    -0.344 N 
ENDROOT
BRANCH   4   5
HETATM    5  C           1     -20.973  -6.216  -4.007  0.00  0.00     0.189 C 
BRANCH   5   6
HETATM    6  C           1     -22.044  -6.801  -4.894  0.00  0.00     0.197 C 
HETATM    7  O           1     -21.780  -7.775  -5.634  0.00  0.00    -0.646 OA
HETATM    8  O           1     -23.194  -6.312  -4.891  0.00  0.00    -0.646 OA
ENDBRANCH   5   6
BRANCH   5   9
HETATM    9  C           1     -21.564  -5.900  -2.638  0.00  0.00     0.074 C 
BRANCH   9  10
HETATM   10  C           1     -21.513  -7.125  -1.778  0.00  0.00    -0.056 A 
HETATM   11  C           1     -22.399  -7.263  -0.709  0.00  0.00     0.010 A 
HETATM   12  C           1     -22.352  -8.403   0.093  0.00  0.00     0.038 A 
HETATM   13  C           1     -21.419  -9.405  -0.175  0.00  0.00     0.081 A 
HETATM   14  C           1     -20.534  -9.267  -1.243  0.00  0.00     0.038 A 
HETATM   15  C           1     -20.580  -8.127  -2.045  0.00  0.00     0.010 A 
BRANCH  13  16
HETATM   16  O           1     -21.373 -10.514   0.604  0.00  0.00    -0.247 OA
BRANCH  16  17
HETATM   17  P           1     -21.978 -11.887   0.006  0.00  0.00     0.411 P 
HETATM   18  O           1     -23.097 -11.575  -0.910  0.00  0.00    -0.624 OA
HETATM   19  O           1     -22.470 -12.733   1.116  0.00  0.00    -0.624 OA
BRANCH  17  20
HETATM   20  O           1     -20.824 -12.676  -0.803  0.00  0.00    -0.300 OA
HETATM   21  H           1     -21.264 -13.066  -1.538  0.00  0.00     0.223 HD
ENDBRANCH  17  20
ENDBRANCH  16  17
ENDBRANCH  13  16
ENDBRANCH   9  10
ENDBRANCH   5   9
ENDBRANCH   4   5
BRANCH   2  22
HETATM   22  C           1     -19.909  -5.156  -7.031  0.00  0.00     0.278 C 
BRANCH  22  23
HETATM   23  C           1     -19.657  -4.004  -7.995  0.00  0.00     0.081 C 
BRANCH  23  24
HETATM   24  C           1     -20.550  -4.146  -9.187  0.00  0.00    -0.056 A 
HETATM   25  C           1     -21.924  -3.944  -9.057  0.00  0.00     0.010 A 
HETATM   26  C           1     -22.757  -4.076 -10.169  0.00  0.00     0.037 A 
HETATM   27  C           1     -22.215  -4.411 -11.410  0.00  0.00     0.065 A 
HETATM   28  C           1     -20.841  -4.612 -11.541  0.00  0.00     0.037 A 
HETATM   29  C           1     -20.009  -4.480 -10.429  0.00  0.00     0.010 A 
BRANCH  27  30
HETATM   30  O           1     -23.024  -4.540 -12.490  0.00  0.00    -0.361 OA
HETATM   31  H           1     -23.693  -3.835 -12.449  0.00  0.00     0.217 HD
ENDBRANCH  27  30
ENDBRANCH  23  24
ENDBRANCH  22  23
BRANCH  22  32
HETATM   32  N           1     -20.591  -6.276  -7.758  0.00  0.00    -0.066 N 
HETATM   33  H           1     -20.873  -5.952  -8.711  0.00  0.00     0.275 HD
HETATM   34  H           1     -19.936  -7.086  -7.845  0.00  0.00     0.275 HD
HETATM   35  H           1     -21.440  -6.571  -7.224  0.00  0.00     0.275 HD
ENDBRANCH  22  32
ENDBRANCH   2  22
TORSDOF 12
ENDMDL
