MODEL 1
REMARK VINA RESULT:      -6.8      0.000      0.000
REMARK  6 active torsions:
REMARK  status: ('A' for Active; 'I' for Inactive)
REMARK    1  A    between atoms: C_8  and  C_21 
REMARK    2  A    between atoms: C_10  and  C_17 
REMARK    3  A    between atoms: C_10  and  C_20 
REMARK    4  A    between atoms: C_10  and  N_18 
REMARK    5  A    between atoms: N_11  and  C_21 
REMARK       I    between atoms: N_11  and  C_17 
REMARK    6  A    between atoms: C_19  and  C_20 
ROOT
HETATM    1  C           1     -28.888  -6.037 -17.617  0.00  0.00     0.280 C 
ENDROOT
BRANCH   1   2
HETATM    2  C           1     -27.562  -5.863 -16.919  0.00  0.00     0.249 C 
HETATM    3  N           1     -26.895  -6.955 -16.434  0.00  0.00    -0.349 N 
HETATM    4  H           1     -27.291  -7.880 -16.544  0.00  0.00     0.163 HD
HETATM    5  O           1     -27.089  -4.759 -16.786  0.00  0.00    -0.271 OA
BRANCH   3   6
HETATM    6  C           1     -25.621  -6.788 -15.762  0.00  0.00     0.235 C 
BRANCH   6   7
HETATM    7  C           1     -24.526  -7.406 -16.597  0.00  0.00     0.191 C 
HETATM    8  O           1     -23.995  -8.479 -16.236  0.00  0.00    -0.647 OA
HETATM    9  O           1     -24.154  -6.848 -17.652  0.00  0.00    -0.647 OA
ENDBRANCH   6   7
ENDBRANCH   3   6
ENDBRANCH   1   2
BRANCH   1  10
HETATM   10  C           1     -30.009  -6.035 -16.585  0.00  0.00     0.101 C 
BRANCH  10  11
HETATM   11  C           1     -30.980  -4.941 -16.903  0.00  0.00     0.028 A 
HETATM   12  C           1     -30.657  -3.771 -17.547  0.00  0.00     0.114 A 
HETATM   13  N           1     -31.830  -3.074 -17.626  0.00  0.00    -0.360 N 
HETATM   14  C           1     -32.799  -3.834 -17.037  0.00  0.00     0.180 A 
HETATM   15  H           1     -31.962  -2.127 -18.059  0.00  0.00     0.166 HD
HETATM   16  N           1     -32.315  -4.970 -16.589  0.00  0.00    -0.355 N 
ATOM     17  HN          1     -32.822  -5.714 -16.111  1.00  0.00     0.166 HD
ENDBRANCH  10  11
ENDBRANCH   1  10
BRANCH   1  18
HETATM   18  N           1     -28.895  -7.340 -18.358  0.00  0.00    -0.066 N 
HETATM   19  H           1     -29.799  -7.444 -18.871  0.00  0.00     0.275 HD
HETATM   20  H           1     -28.104  -7.357 -19.041  0.00  0.00     0.275 HD
HETATM   21  H           1     -28.786  -8.129 -17.680  0.00  0.00     0.275 HD
ENDBRANCH   1  18
TORSDOF 6
ENDMDL
MODEL 2
REMARK VINA RESULT:      -6.3      2.410      2.680
REMARK  6 active torsions:
REMARK  status: ('A' for Active; 'I' for Inactive)
REMARK    1  A    between atoms: C_8  and  C_21 
REMARK    2  A    between atoms: C_10  and  C_17 
REMARK    3  A    between atoms: C_10  and  C_20 
REMARK    4  A    between atoms: C_10  and  N_18 
REMARK    5  A    between atoms: N_11  and  C_21 
REMARK       I    between atoms: N_11  and  C_17 
REMARK    6  A    between atoms: C_19  and  C_20 
ROOT
HETATM    1  C           1     -28.766  -6.347 -17.958  0.00  0.00     0.280 C 
ENDROOT
BRANCH   1   2
HETATM    2  C           1     -27.318  -6.351 -18.382  0.00  0.00     0.249 C 
HETATM    3  N           1     -26.975  -6.763 -19.642  0.00  0.00    -0.349 N 
HETATM    4  H           1     -27.693  -7.063 -20.289  0.00  0.00     0.163 HD
HETATM    5  O           1     -26.460  -5.994 -17.610  0.00  0.00    -0.271 OA
BRANCH   3   6
HETATM    6  C           1     -25.584  -6.768 -20.050  0.00  0.00     0.235 C 
BRANCH   6   7
HETATM    7  C           1     -25.353  -7.886 -21.037  0.00  0.00     0.191 C 
HETATM    8  O           1     -26.315  -8.581 -21.431  0.00  0.00    -0.647 OA
HETATM    9  O           1     -24.200  -8.115 -21.463  0.00  0.00    -0.647 OA
ENDBRANCH   6   7
ENDBRANCH   3   6
ENDBRANCH   1   2
BRANCH   1  10
HETATM   10  C           1     -28.965  -5.330 -16.841  0.00  0.00     0.101 C 
BRANCH  10  11
HETATM   11  C           1     -30.315  -4.698 -16.974  0.00  0.00     0.028 A 
HETATM   12  C           1     -30.563  -3.511 -17.622  0.00  0.00     0.114 A 
HETATM   13  N           1     -31.911  -3.316 -17.500  0.00  0.00    -0.360 N 
HETATM   14  C           1     -32.416  -4.371 -16.796  0.00  0.00     0.180 A 
HETATM   15  H           1     -32.457  -2.503 -17.878  0.00  0.00     0.166 HD
HETATM   16  N           1     -31.474  -5.224 -16.463  0.00  0.00    -0.355 N 
ATOM     17  HN          1     -31.581  -6.091 -15.937  1.00  0.00     0.166 HD
ENDBRANCH  10  11
ENDBRANCH   1  10
BRANCH   1  18
HETATM   18  N           1     -29.146  -7.711 -17.464  0.00  0.00    -0.066 N 
HETATM   19  H           1     -28.283  -8.277 -17.305  0.00  0.00     0.275 HD
HETATM   20  H           1     -29.674  -7.621 -16.566  0.00  0.00     0.275 HD
HETATM   21  H           1     -29.749  -8.185 -18.175  0.00  0.00     0.275 HD
ENDBRANCH   1  18
TORSDOF 6
ENDMDL
MODEL 3
REMARK VINA RESULT:      -5.9      8.955     10.516
REMARK  6 active torsions:
REMARK  status: ('A' for Active; 'I' for Inactive)
REMARK    1  A    between atoms: C_8  and  C_21 
REMARK    2  A    between atoms: C_10  and  C_17 
REMARK    3  A    between atoms: C_10  and  C_20 
REMARK    4  A    between atoms: C_10  and  N_18 
REMARK    5  A    between atoms: N_11  and  C_21 
REMARK       I    between atoms: N_11  and  C_17 
REMARK    6  A    between atoms: C_19  and  C_20 
ROOT
HETATM    1  C           1     -34.203  -2.119 -11.652  0.00  0.00     0.280 C 
ENDROOT
BRANCH   1   2
HETATM    2  C           1     -34.920  -0.944 -12.270  0.00  0.00     0.249 C 
HETATM    3  N           1     -34.978  -0.817 -13.631  0.00  0.00    -0.349 N 
HETATM    4  H           1     -34.541  -1.512 -14.224  0.00  0.00     0.163 HD
HETATM    5  O           1     -35.441  -0.114 -11.563  0.00  0.00    -0.271 OA
BRANCH   3   6
HETATM    6  C           1     -35.667   0.312 -14.226  0.00  0.00     0.235 C 
BRANCH   6   7
HETATM    7  C           1     -36.857  -0.180 -15.012  0.00  0.00     0.191 C 
HETATM    8  O           1     -36.891  -0.032 -16.253  0.00  0.00    -0.647 OA
HETATM    9  O           1     -37.807  -0.740 -14.423  0.00  0.00    -0.647 OA
ENDBRANCH   6   7
ENDBRANCH   3   6
ENDBRANCH   1   2
BRANCH   1  10
HETATM   10  C           1     -35.224  -3.149 -11.186  0.00  0.00     0.101 C 
BRANCH  10  11
HETATM   11  C           1     -34.570  -4.492 -11.083  0.00  0.00     0.028 A 
HETATM   12  C           1     -33.343  -4.807 -11.617  0.00  0.00     0.114 A 
HETATM   13  N           1     -33.141  -6.119 -11.290  0.00  0.00    -0.360 N 
HETATM   14  C           1     -34.232  -6.539 -10.584  0.00  0.00     0.180 A 
HETATM   15  H           1     -32.301  -6.698 -11.536  0.00  0.00     0.166 HD
HETATM   16  N           1     -35.114  -5.576 -10.444  0.00  0.00    -0.355 N 
ATOM     17  HN          1     -36.012  -5.624  -9.962  1.00  0.00     0.166 HD
ENDBRANCH  10  11
ENDBRANCH   1  10
BRANCH   1  18
HETATM   18  N           1     -33.394  -1.652 -10.479  0.00  0.00    -0.066 N 
HETATM   19  H           1     -33.375  -2.398  -9.749  0.00  0.00     0.275 HD
HETATM   20  H           1     -32.418  -1.444 -10.790  0.00  0.00     0.275 HD
HETATM   21  H           1     -33.824  -0.786 -10.081  0.00  0.00     0.275 HD
ENDBRANCH   1  18
TORSDOF 6
ENDMDL
MODEL 4
REMARK VINA RESULT:      -5.9     10.529     12.385
REMARK  6 active torsions:
REMARK  status: ('A' for Active; 'I' for Inactive)
REMARK    1  A    between atoms: C_8  and  C_21 
REMARK    2  A    between atoms: C_10  and  C_17 
REMARK    3  A    between atoms: C_10  and  C_20 
REMARK    4  A    between atoms: C_10  and  N_18 
REMARK    5  A    between atoms: N_11  and  C_21 
REMARK       I    between atoms: N_11  and  C_17 
REMARK    6  A    between atoms: C_19  and  C_20 
ROOT
HETATM    1  C           1     -21.968  -4.587  -7.171  0.00  0.00     0.280 C 
ENDROOT
BRANCH   1   2
HETATM    2  C           1     -21.601  -5.808  -6.363  0.00  0.00     0.249 C 
HETATM    3  N           1     -22.084  -5.956  -5.090  0.00  0.00    -0.349 N 
HETATM    4  H           1     -22.687  -5.248  -4.692  0.00  0.00     0.163 HD
HETATM    5  O           1     -20.879  -6.653  -6.837  0.00  0.00    -0.271 OA
BRANCH   3   6
HETATM    6  C           1     -21.731  -7.127  -4.313  0.00  0.00     0.235 C 
BRANCH   6   7
HETATM    7  C           1     -21.654  -6.758  -2.851  0.00  0.00     0.191 C 
HETATM    8  O           1     -22.465  -5.935  -2.372  0.00  0.00    -0.647 OA
HETATM    9  O           1     -20.783  -7.277  -2.120  0.00  0.00    -0.647 OA
ENDBRANCH   6   7
ENDBRANCH   3   6
ENDBRANCH   1   2
BRANCH   1  10
HETATM   10  C           1     -21.954  -4.938  -8.654  0.00  0.00     0.101 C 
BRANCH  10  11
HETATM   11  C           1     -23.169  -4.365  -9.315  0.00  0.00     0.028 A 
HETATM   12  C           1     -23.515  -4.571 -10.629  0.00  0.00     0.114 A 
HETATM   13  N           1     -24.676  -3.871 -10.804  0.00  0.00    -0.360 N 
HETATM   14  C           1     -24.982  -3.280  -9.611  0.00  0.00     0.180 A 
HETATM   15  H           1     -25.232  -3.801 -11.692  0.00  0.00     0.166 HD
HETATM   16  N           1     -24.088  -3.560  -8.692  0.00  0.00    -0.355 N 
ATOM     17  HN          1     -24.078  -3.246  -7.721  1.00  0.00     0.166 HD
ENDBRANCH  10  11
ENDBRANCH   1  10
BRANCH   1  18
HETATM   18  N           1     -20.975  -3.495  -6.907  0.00  0.00    -0.066 N 
HETATM   19  H           1     -21.431  -2.567  -7.053  0.00  0.00     0.275 HD
HETATM   20  H           1     -20.635  -3.565  -5.921  0.00  0.00     0.275 HD
HETATM   21  H           1     -20.166  -3.593  -7.562  0.00  0.00     0.275 HD
ENDBRANCH   1  18
TORSDOF 6
ENDMDL
MODEL 5
REMARK VINA RESULT:      -5.7      8.588     10.681
REMARK  6 active torsions:
REMARK  status: ('A' for Active; 'I' for Inactive)
REMARK    1  A    between atoms: C_8  and  C_21 
REMARK    2  A    between atoms: C_10  and  C_17 
REMARK    3  A    between atoms: C_10  and  C_20 
REMARK    4  A    between atoms: C_10  and  N_18 
REMARK    5  A    between atoms: N_11  and  C_21 
REMARK       I    between atoms: N_11  and  C_17 
REMARK    6  A    between atoms: C_19  and  C_20 
ROOT
HETATM    1  C           1     -35.780  -0.649 -11.517  0.00  0.00     0.280 C 
ENDROOT
BRANCH   1   2
HETATM    2  C           1     -36.479  -0.442 -12.838  0.00  0.00     0.249 C 
HETATM    3  N           1     -35.826   0.181 -13.868  0.00  0.00    -0.349 N 
HETATM    4  H           1     -34.874   0.501 -13.743  0.00  0.00     0.163 HD
HETATM    5  O           1     -37.615  -0.823 -12.987  0.00  0.00    -0.271 OA
BRANCH   3   6
HETATM    6  C           1     -36.497   0.381 -15.137  0.00  0.00     0.235 C 
BRANCH   6   7
HETATM    7  C           1     -36.113  -0.725 -16.090  0.00  0.00     0.191 C 
HETATM    8  O           1     -36.713  -0.846 -17.180  0.00  0.00    -0.647 OA
HETATM    9  O           1     -35.194  -1.517 -15.790  0.00  0.00    -0.647 OA
ENDBRANCH   6   7
ENDBRANCH   3   6
ENDBRANCH   1   2
BRANCH   1  10
HETATM   10  C           1     -36.115  -2.034 -10.977  0.00  0.00     0.101 C 
BRANCH  10  11
HETATM   11  C           1     -34.948  -2.948 -11.183  0.00  0.00     0.028 A 
HETATM   12  C           1     -33.634  -2.545 -11.211  0.00  0.00     0.114 A 
HETATM   13  N           1     -32.916  -3.689 -11.422  0.00  0.00    -0.360 N 
HETATM   14  C           1     -33.807  -4.721 -11.513  0.00  0.00     0.180 A 
HETATM   15  H           1     -31.872  -3.762 -11.500  0.00  0.00     0.166 HD
HETATM   16  N           1     -35.044  -4.302 -11.373  0.00  0.00    -0.355 N 
ATOM     17  HN          1     -35.895  -4.865 -11.399  1.00  0.00     0.166 HD
ENDBRANCH  10  11
ENDBRANCH   1  10
BRANCH   1  18
HETATM   18  N           1     -36.237   0.392 -10.540  0.00  0.00    -0.066 N 
HETATM   19  H           1     -37.227   0.655 -10.749  0.00  0.00     0.275 HD
HETATM   20  H           1     -36.177   0.009  -9.569  0.00  0.00     0.275 HD
HETATM   21  H           1     -35.628   1.238 -10.619  0.00  0.00     0.275 HD
ENDBRANCH   1  18
TORSDOF 6
ENDMDL
MODEL 6
REMARK VINA RESULT:      -5.7     10.457     13.074
REMARK  6 active torsions:
REMARK  status: ('A' for Active; 'I' for Inactive)
REMARK    1  A    between atoms: C_8  and  C_21 
REMARK    2  A    between atoms: C_10  and  C_17 
REMARK    3  A    between atoms: C_10  and  C_20 
REMARK    4  A    between atoms: C_10  and  N_18 
REMARK    5  A    between atoms: N_11  and  C_21 
REMARK       I    between atoms: N_11  and  C_17 
REMARK    6  A    between atoms: C_19  and  C_20 
ROOT
HETATM    1  C           1     -20.704  -4.903  -7.219  0.00  0.00     0.280 C 
ENDROOT
BRANCH   1   2
HETATM    2  C           1     -22.149  -4.558  -7.487  0.00  0.00     0.249 C 
HETATM    3  N           1     -22.533  -4.143  -8.734  0.00  0.00    -0.349 N 
HETATM    4  H           1     -21.849  -4.069  -9.476  0.00  0.00     0.163 HD
HETATM    5  O           1     -22.966  -4.646  -6.602  0.00  0.00    -0.271 OA
BRANCH   3   6
HETATM    6  C           1     -23.920  -3.811  -8.992  0.00  0.00     0.235 C 
BRANCH   6   7
HETATM    7  C           1     -24.124  -3.613 -10.474  0.00  0.00     0.191 C 
HETATM    8  O           1     -23.202  -3.888 -11.274  0.00  0.00    -0.647 OA
HETATM    9  O           1     -25.214  -3.178 -10.903  0.00  0.00    -0.647 OA
ENDBRANCH   6   7
ENDBRANCH   3   6
ENDBRANCH   1   2
BRANCH   1  10
HETATM   10  C           1     -20.402  -4.709  -5.739  0.00  0.00     0.101 C 
BRANCH  10  11
HETATM   11  C           1     -20.757  -5.954  -4.988  0.00  0.00     0.028 A 
HETATM   12  C           1     -20.257  -7.204  -5.266  0.00  0.00     0.114 A 
HETATM   13  N           1     -20.841  -8.032  -4.348  0.00  0.00    -0.360 N 
HETATM   14  C           1     -21.658  -7.266  -3.566  0.00  0.00     0.180 A 
HETATM   15  H           1     -20.691  -9.067  -4.261  0.00  0.00     0.166 HD
HETATM   16  N           1     -21.627  -6.004  -3.930  0.00  0.00    -0.355 N 
ATOM     17  HN          1     -22.142  -5.227  -3.515  1.00  0.00     0.166 HD
ENDBRANCH  10  11
ENDBRANCH   1  10
BRANCH   1  18
HETATM   18  N           1     -19.817  -4.007  -8.031  0.00  0.00    -0.066 N 
HETATM   19  H           1     -19.433  -4.540  -8.843  0.00  0.00     0.275 HD
HETATM   20  H           1     -20.372  -3.192  -8.380  0.00  0.00     0.275 HD
HETATM   21  H           1     -19.030  -3.662  -7.436  0.00  0.00     0.275 HD
ENDBRANCH   1  18
TORSDOF 6
ENDMDL
MODEL 7
REMARK VINA RESULT:      -5.7      9.624     11.816
REMARK  6 active torsions:
REMARK  status: ('A' for Active; 'I' for Inactive)
REMARK    1  A    between atoms: C_8  and  C_21 
REMARK    2  A    between atoms: C_10  and  C_17 
REMARK    3  A    between atoms: C_10  and  C_20 
REMARK    4  A    between atoms: C_10  and  N_18 
REMARK    5  A    between atoms: N_11  and  C_21 
REMARK       I    between atoms: N_11  and  C_17 
REMARK    6  A    between atoms: C_19  and  C_20 
ROOT
HETATM    1  C           1     -35.870  -1.133 -11.559  0.00  0.00     0.280 C 
ENDROOT
BRANCH   1   2
HETATM    2  C           1     -35.499  -1.201 -13.021  0.00  0.00     0.249 C 
HETATM    3  N           1     -35.875  -0.195 -13.869  0.00  0.00    -0.349 N 
HETATM    4  H           1     -36.399   0.595 -13.517  0.00  0.00     0.163 HD
HETATM    5  O           1     -34.873  -2.145 -13.443  0.00  0.00    -0.271 OA
BRANCH   3   6
HETATM    6  C           1     -35.520  -0.260 -15.273  0.00  0.00     0.235 C 
BRANCH   6   7
HETATM    7  C           1     -36.761  -0.091 -16.115  0.00  0.00     0.191 C 
HETATM    8  O           1     -37.533   0.869 -15.904  0.00  0.00    -0.647 OA
HETATM    9  O           1     -37.014  -0.909 -17.026  0.00  0.00    -0.647 OA
ENDBRANCH   6   7
ENDBRANCH   3   6
ENDBRANCH   1   2
BRANCH   1  10
HETATM   10  C           1     -36.529   0.208 -11.265  0.00  0.00     0.101 C 
BRANCH  10  11
HETATM   11  C           1     -36.817   0.313  -9.800  0.00  0.00     0.028 A 
HETATM   12  C           1     -37.591  -0.573  -9.089  0.00  0.00     0.114 A 
HETATM   13  N           1     -37.586  -0.099  -7.807  0.00  0.00    -0.360 N 
HETATM   14  C           1     -36.825   1.035  -7.792  0.00  0.00     0.180 A 
HETATM   15  H           1     -38.077  -0.527  -6.984  0.00  0.00     0.166 HD
HETATM   16  N           1     -36.347   1.310  -8.984  0.00  0.00    -0.355 N 
ATOM     17  HN          1     -35.753   2.096  -9.247  1.00  0.00     0.166 HD
ENDBRANCH  10  11
ENDBRANCH   1  10
BRANCH   1  18
HETATM   18  N           1     -34.634  -1.277 -10.723  0.00  0.00    -0.066 N 
HETATM   19  H           1     -34.865  -1.081  -9.723  0.00  0.00     0.275 HD
HETATM   20  H           1     -34.266  -2.252 -10.810  0.00  0.00     0.275 HD
HETATM   21  H           1     -33.908  -0.600 -11.052  0.00  0.00     0.275 HD
ENDBRANCH   1  18
TORSDOF 6
ENDMDL
MODEL 8
REMARK VINA RESULT:      -5.6     10.296     12.340
REMARK  6 active torsions:
REMARK  status: ('A' for Active; 'I' for Inactive)
REMARK    1  A    between atoms: C_8  and  C_21 
REMARK    2  A    between atoms: C_10  and  C_17 
REMARK    3  A    between atoms: C_10  and  C_20 
REMARK    4  A    between atoms: C_10  and  N_18 
REMARK    5  A    between atoms: N_11  and  C_21 
REMARK       I    between atoms: N_11  and  C_17 
REMARK    6  A    between atoms: C_19  and  C_20 
ROOT
HETATM    1  C           1     -22.523  -4.834  -7.547  0.00  0.00     0.280 C 
ENDROOT
BRANCH   1   2
HETATM    2  C           1     -21.560  -5.006  -6.398  0.00  0.00     0.249 C 
HETATM    3  N           1     -21.925  -5.746  -5.305  0.00  0.00    -0.349 N 
HETATM    4  H           1     -22.840  -6.178  -5.268  0.00  0.00     0.163 HD
HETATM    5  O           1     -20.469  -4.491  -6.441  0.00  0.00    -0.271 OA
BRANCH   3   6
HETATM    6  C           1     -21.001  -5.911  -4.200  0.00  0.00     0.235 C 
BRANCH   6   7
HETATM    7  C           1     -21.706  -6.591  -3.052  0.00  0.00     0.191 C 
HETATM    8  O           1     -22.415  -5.922  -2.269  0.00  0.00    -0.647 OA
HETATM    9  O           1     -21.583  -7.824  -2.885  0.00  0.00    -0.647 OA
ENDBRANCH   6   7
ENDBRANCH   3   6
ENDBRANCH   1   2
BRANCH   1  10
HETATM   10  C           1     -21.978  -3.790  -8.513  0.00  0.00     0.101 C 
BRANCH  10  11
HETATM   11  C           1     -22.298  -4.192  -9.919  0.00  0.00     0.028 A 
HETATM   12  C           1     -21.410  -4.142 -10.968  0.00  0.00     0.114 A 
HETATM   13  N           1     -22.114  -4.594 -12.049  0.00  0.00    -0.360 N 
HETATM   14  C           1     -23.376  -4.893 -11.621  0.00  0.00     0.180 A 
HETATM   15  H           1     -21.752  -4.692 -13.029  0.00  0.00     0.166 HD
HETATM   16  N           1     -23.517  -4.660 -10.336  0.00  0.00    -0.355 N 
ATOM     17  HN          1     -24.354  -4.797  -9.770  1.00  0.00     0.166 HD
ENDBRANCH  10  11
ENDBRANCH   1  10
BRANCH   1  18
HETATM   18  N           1     -23.853  -4.383  -7.023  0.00  0.00    -0.066 N 
HETATM   19  H           1     -24.590  -4.567  -7.739  0.00  0.00     0.275 HD
HETATM   20  H           1     -24.079  -4.910  -6.148  0.00  0.00     0.275 HD
HETATM   21  H           1     -23.817  -3.360  -6.813  0.00  0.00     0.275 HD
ENDBRANCH   1  18
TORSDOF 6
ENDMDL
MODEL 9
REMARK VINA RESULT:      -5.4     11.689     14.113
REMARK  6 active torsions:
REMARK  status: ('A' for Active; 'I' for Inactive)
REMARK    1  A    between atoms: C_8  and  C_21 
REMARK    2  A    between atoms: C_10  and  C_17 
REMARK    3  A    between atoms: C_10  and  C_20 
REMARK    4  A    between atoms: C_10  and  N_18 
REMARK    5  A    between atoms: N_11  and  C_21 
REMARK       I    between atoms: N_11  and  C_17 
REMARK    6  A    between atoms: C_19  and  C_20 
ROOT
HETATM    1  C           1     -21.741  -6.482  -5.533  0.00  0.00     0.280 C 
ENDROOT
BRANCH   1   2
HETATM    2  C           1     -21.512  -5.693  -6.800  0.00  0.00     0.249 C 
HETATM    3  N           1     -22.278  -4.590  -7.066  0.00  0.00    -0.349 N 
HETATM    4  H           1     -22.996  -4.302  -6.414  0.00  0.00     0.163 HD
HETATM    5  O           1     -20.655  -6.035  -7.579  0.00  0.00    -0.271 OA
BRANCH   3   6
HETATM    6  C           1     -22.059  -3.832  -8.282  0.00  0.00     0.235 C 
BRANCH   6   7
HETATM    7  C           1     -23.164  -4.128  -9.267  0.00  0.00     0.191 C 
HETATM    8  O           1     -24.290  -3.607  -9.117  0.00  0.00    -0.647 OA
HETATM    9  O           1     -22.951  -4.892 -10.233  0.00  0.00    -0.647 OA
ENDBRANCH   6   7
ENDBRANCH   3   6
ENDBRANCH   1   2
BRANCH   1  10
HETATM   10  C           1     -20.905  -5.888  -4.407  0.00  0.00     0.101 C 
BRANCH  10  11
HETATM   11  C           1     -21.361  -6.448  -3.096  0.00  0.00     0.028 A 
HETATM   12  C           1     -20.869  -7.596  -2.523  0.00  0.00     0.114 A 
HETATM   13  N           1     -21.558  -7.731  -1.350  0.00  0.00    -0.360 N 
HETATM   14  C           1     -22.425  -6.679  -1.261  0.00  0.00     0.180 A 
HETATM   15  H           1     -21.444  -8.501  -0.646  0.00  0.00     0.166 HD
HETATM   16  N           1     -22.329  -5.886  -2.304  0.00  0.00    -0.355 N 
ATOM     17  HN          1     -22.860  -5.035  -2.486  1.00  0.00     0.166 HD
ENDBRANCH  10  11
ENDBRANCH   1  10
BRANCH   1  18
HETATM   18  N           1     -21.340  -7.909  -5.754  0.00  0.00    -0.066 N 
HETATM   19  H           1     -21.586  -8.475  -4.911  0.00  0.00     0.275 HD
HETATM   20  H           1     -21.846  -8.288  -6.587  0.00  0.00     0.275 HD
HETATM   21  H           1     -20.309  -7.961  -5.920  0.00  0.00     0.275 HD
ENDBRANCH   1  18
TORSDOF 6
ENDMDL
