MODEL 1
REMARK VINA RESULT:      -7.6      0.000      0.000
REMARK  8 active torsions:
REMARK  status: ('A' for Active; 'I' for Inactive)
REMARK    1  A    between atoms: C_1  and  C_24 
REMARK       I    between atoms: C_9  and  N_25 
REMARK    2  A    between atoms: C_9  and  C_10 
REMARK    3  A    between atoms: C_10  and  C_11 
REMARK    4  A    between atoms: C_10  and  N_15 
REMARK    5  A    between atoms: C_11  and  C_12 
REMARK    6  A    between atoms: C_18  and  C_20 
REMARK    7  A    between atoms: C_20  and  C_24 
REMARK    8  A    between atoms: C_20  and  N_25 
ROOT
HETATM    1  C           1     -21.347  -6.215  -5.298  0.00  0.00     0.190 C 
ENDROOT
BRANCH   1   2
HETATM    2  C           1     -20.747  -7.458  -5.908  0.00  0.00     0.197 C 
HETATM    3  O           1     -19.577  -7.435  -6.351  0.00  0.00    -0.646 OA
HETATM    4  O           1     -21.419  -8.509  -5.971  0.00  0.00    -0.646 OA
ENDBRANCH   1   2
BRANCH   1   5
HETATM    5  C           1     -20.845  -4.988  -6.048  0.00  0.00     0.077 C 
BRANCH   5   6
HETATM    6  C           1     -21.798  -4.654  -7.154  0.00  0.00    -0.028 A 
HETATM    7  C           1     -23.153  -4.456  -7.025  0.00  0.00     0.096 A 
HETATM    8  N           1     -23.655  -4.172  -8.268  0.00  0.00    -0.365 N 
HETATM    9  C           1     -22.645  -4.182  -9.203  0.00  0.00     0.042 A 
HETATM   10  H           1     -24.664  -3.975  -8.477  0.00  0.00     0.165 HD
HETATM   11  C           1     -22.687  -3.950 -10.583  0.00  0.00     0.030 A 
HETATM   12  C           1     -21.463  -4.483  -8.526  0.00  0.00    -0.002 A 
HETATM   13  C           1     -21.482  -4.030 -11.289  0.00  0.00     0.002 A 
HETATM   14  C           1     -20.286  -4.329 -10.639  0.00  0.00     0.001 A 
HETATM   15  C           1     -20.262  -4.558  -9.258  0.00  0.00     0.014 A 
ENDBRANCH   5   6
ENDBRANCH   1   5
BRANCH   1  16
HETATM   16  N           1     -20.954  -6.122  -3.905  0.00  0.00    -0.344 N 
HETATM   17  H           1     -20.708  -5.225  -3.508  0.00  0.00     0.163 HD
HETATM   18  C           1     -20.914  -7.249  -3.128  0.00  0.00     0.249 C 
HETATM   19  O           1     -19.898  -7.899  -3.058  0.00  0.00    -0.271 OA
BRANCH  18  20
HETATM   20  C           1     -22.140  -7.680  -2.362  0.00  0.00     0.284 C 
BRANCH  20  21
HETATM   21  C           1     -22.271  -6.840  -1.098  0.00  0.00     0.155 C 
BRANCH  21  22
HETATM   22  C           1     -22.340  -7.749   0.106  0.00  0.00     0.175 C 
HETATM   23  O           1     -23.450  -8.096   0.562  0.00  0.00    -0.648 OA
HETATM   24  O           1     -21.287  -8.153   0.645  0.00  0.00    -0.648 OA
ENDBRANCH  21  22
ENDBRANCH  20  21
BRANCH  20  25
HETATM   25  N           1     -22.014  -9.127  -1.988  0.00  0.00    -0.066 N 
HETATM   26  H           1     -22.586  -9.708  -2.641  0.00  0.00     0.275 HD
HETATM   27  H           1     -21.012  -9.417  -2.052  0.00  0.00     0.275 HD
HETATM   28  H           1     -22.356  -9.264  -1.010  0.00  0.00     0.275 HD
ENDBRANCH  20  25
ENDBRANCH  18  20
ENDBRANCH   1  16
TORSDOF 8
ENDMDL
MODEL 2
REMARK VINA RESULT:      -7.5      3.200      7.555
REMARK  8 active torsions:
REMARK  status: ('A' for Active; 'I' for Inactive)
REMARK    1  A    between atoms: C_1  and  C_24 
REMARK       I    between atoms: C_9  and  N_25 
REMARK    2  A    between atoms: C_9  and  C_10 
REMARK    3  A    between atoms: C_10  and  C_11 
REMARK    4  A    between atoms: C_10  and  N_15 
REMARK    5  A    between atoms: C_11  and  C_12 
REMARK    6  A    between atoms: C_18  and  C_20 
REMARK    7  A    between atoms: C_20  and  C_24 
REMARK    8  A    between atoms: C_20  and  N_25 
ROOT
HETATM    1  C           1     -20.398  -5.256  -6.188  0.00  0.00     0.190 C 
ENDROOT
BRANCH   1   2
HETATM    2  C           1     -19.460  -5.185  -7.367  0.00  0.00     0.197 C 
HETATM    3  O           1     -18.577  -4.300  -7.412  0.00  0.00    -0.646 OA
HETATM    4  O           1     -19.565  -6.011  -8.300  0.00  0.00    -0.646 OA
ENDBRANCH   1   2
BRANCH   1   5
HETATM    5  C           1     -21.108  -6.604  -6.183  0.00  0.00     0.077 C 
BRANCH   5   6
HETATM    6  C           1     -20.664  -7.398  -4.995  0.00  0.00    -0.028 A 
HETATM    7  C           1     -19.739  -8.416  -4.999  0.00  0.00     0.096 A 
HETATM    8  N           1     -19.618  -8.879  -3.715  0.00  0.00    -0.365 N 
HETATM    9  C           1     -20.453  -8.175  -2.875  0.00  0.00     0.042 A 
HETATM   10  H           1     -18.981  -9.656  -3.414  0.00  0.00     0.165 HD
HETATM   11  C           1     -20.663  -8.299  -1.497  0.00  0.00     0.030 A 
HETATM   12  C           1     -21.124  -7.235  -3.658  0.00  0.00    -0.002 A 
HETATM   13  C           1     -21.589  -7.433  -0.904  0.00  0.00     0.002 A 
HETATM   14  C           1     -22.273  -6.485  -1.661  0.00  0.00     0.001 A 
HETATM   15  C           1     -22.051  -6.375  -3.039  0.00  0.00     0.014 A 
ENDBRANCH   5   6
ENDBRANCH   1   5
BRANCH   1  16
HETATM   16  N           1     -21.380  -4.194  -6.287  0.00  0.00    -0.344 N 
HETATM   17  H           1     -21.217  -3.310  -5.822  0.00  0.00     0.163 HD
HETATM   18  C           1     -22.527  -4.386  -7.009  0.00  0.00     0.249 C 
HETATM   19  O           1     -23.511  -4.834  -6.471  0.00  0.00    -0.271 OA
BRANCH  18  20
HETATM   20  C           1     -22.561  -4.040  -8.477  0.00  0.00     0.284 C 
BRANCH  20  21
HETATM   21  C           1     -23.974  -3.629  -8.871  0.00  0.00     0.155 C 
BRANCH  21  22
HETATM   22  C           1     -24.011  -3.304 -10.345  0.00  0.00     0.175 C 
HETATM   23  O           1     -25.108  -3.208 -10.935  0.00  0.00    -0.648 OA
HETATM   24  O           1     -22.945  -3.132 -10.974  0.00  0.00    -0.648 OA
ENDBRANCH  21  22
ENDBRANCH  20  21
BRANCH  20  25
HETATM   25  N           1     -22.145  -5.235  -9.283  0.00  0.00    -0.066 N 
HETATM   26  H           1     -22.284  -6.102  -8.717  0.00  0.00     0.275 HD
HETATM   27  H           1     -22.725  -5.288 -10.150  0.00  0.00     0.275 HD
HETATM   28  H           1     -21.137  -5.145  -9.541  0.00  0.00     0.275 HD
ENDBRANCH  20  25
ENDBRANCH  18  20
ENDBRANCH   1  16
TORSDOF 8
ENDMDL
MODEL 3
REMARK VINA RESULT:      -7.2      2.687      7.980
REMARK  8 active torsions:
REMARK  status: ('A' for Active; 'I' for Inactive)
REMARK    1  A    between atoms: C_1  and  C_24 
REMARK       I    between atoms: C_9  and  N_25 
REMARK    2  A    between atoms: C_9  and  C_10 
REMARK    3  A    between atoms: C_10  and  C_11 
REMARK    4  A    between atoms: C_10  and  N_15 
REMARK    5  A    between atoms: C_11  and  C_12 
REMARK    6  A    between atoms: C_18  and  C_20 
REMARK    7  A    between atoms: C_20  and  C_24 
REMARK    8  A    between atoms: C_20  and  N_25 
ROOT
HETATM    1  C           1     -21.269  -7.318  -5.681  0.00  0.00     0.190 C 
ENDROOT
BRANCH   1   2
HETATM    2  C           1     -22.005  -6.272  -4.881  0.00  0.00     0.197 C 
HETATM    3  O           1     -23.212  -6.040  -5.115  0.00  0.00    -0.646 OA
HETATM    4  O           1     -21.409  -5.637  -3.985  0.00  0.00    -0.646 OA
ENDBRANCH   1   2
BRANCH   1   5
HETATM    5  C           1     -20.309  -8.072  -4.771  0.00  0.00     0.077 C 
BRANCH   5   6
HETATM    6  C           1     -21.078  -9.031  -3.918  0.00  0.00    -0.028 A 
HETATM    7  C           1     -21.662 -10.204  -4.338  0.00  0.00     0.096 A 
HETATM    8  N           1     -22.266 -10.784  -3.255  0.00  0.00    -0.365 N 
HETATM    9  C           1     -22.083 -10.005  -2.134  0.00  0.00     0.042 A 
HETATM   10  H           1     -22.792 -11.693  -3.275  0.00  0.00     0.165 HD
HETATM   11  C           1     -22.518 -10.198  -0.817  0.00  0.00     0.030 A 
HETATM   12  C           1     -21.337  -8.893  -2.525  0.00  0.00    -0.002 A 
HETATM   13  C           1     -22.177  -9.222   0.125  0.00  0.00     0.002 A 
HETATM   14  C           1     -21.433  -8.102  -0.237  0.00  0.00     0.001 A 
HETATM   15  C           1     -21.006  -7.924  -1.559  0.00  0.00     0.014 A 
ENDBRANCH   5   6
ENDBRANCH   1   5
BRANCH   1  16
HETATM   16  N           1     -20.521  -6.675  -6.745  0.00  0.00    -0.344 N 
HETATM   17  H           1     -19.805  -7.189  -7.241  0.00  0.00     0.163 HD
HETATM   18  C           1     -20.783  -5.372  -7.076  0.00  0.00     0.249 C 
HETATM   19  O           1     -20.187  -4.478  -6.526  0.00  0.00    -0.271 OA
BRANCH  18  20
HETATM   20  C           1     -21.818  -5.056  -8.127  0.00  0.00     0.284 C 
BRANCH  20  21
HETATM   21  C           1     -21.148  -4.377  -9.313  0.00  0.00     0.155 C 
BRANCH  21  22
HETATM   22  C           1     -22.181  -4.084 -10.376  0.00  0.00     0.175 C 
HETATM   23  O           1     -22.049  -3.086 -11.116  0.00  0.00    -0.648 OA
HETATM   24  O           1     -23.167  -4.839 -10.514  0.00  0.00    -0.648 OA
ENDBRANCH  21  22
ENDBRANCH  20  21
BRANCH  20  25
HETATM   25  N           1     -22.856  -4.140  -7.548  0.00  0.00    -0.066 N 
HETATM   26  H           1     -23.282  -4.584  -6.704  0.00  0.00     0.275 HD
HETATM   27  H           1     -22.408  -3.235  -7.277  0.00  0.00     0.275 HD
HETATM   28  H           1     -23.599  -3.962  -8.261  0.00  0.00     0.275 HD
ENDBRANCH  20  25
ENDBRANCH  18  20
ENDBRANCH   1  16
TORSDOF 8
ENDMDL
MODEL 4
REMARK VINA RESULT:      -7.1      2.139      3.040
REMARK  8 active torsions:
REMARK  status: ('A' for Active; 'I' for Inactive)
REMARK    1  A    between atoms: C_1  and  C_24 
REMARK       I    between atoms: C_9  and  N_25 
REMARK    2  A    between atoms: C_9  and  C_10 
REMARK    3  A    between atoms: C_10  and  C_11 
REMARK    4  A    between atoms: C_10  and  N_15 
REMARK    5  A    between atoms: C_11  and  C_12 
REMARK    6  A    between atoms: C_18  and  C_20 
REMARK    7  A    between atoms: C_20  and  C_24 
REMARK    8  A    between atoms: C_20  and  N_25 
ROOT
HETATM    1  C           1     -20.309  -9.357  -4.608  0.00  0.00     0.190 C 
ENDROOT
BRANCH   1   2
HETATM    2  C           1     -19.869 -10.552  -5.417  0.00  0.00     0.197 C 
HETATM    3  O           1     -20.542 -10.922  -6.404  0.00  0.00    -0.646 OA
HETATM    4  O           1     -18.831 -11.173  -5.101  0.00  0.00    -0.646 OA
ENDBRANCH   1   2
BRANCH   1   5
HETATM    5  C           1     -19.669  -8.096  -5.175  0.00  0.00     0.077 C 
BRANCH   5   6
HETATM    6  C           1     -20.734  -7.094  -5.491  0.00  0.00    -0.028 A 
HETATM    7  C           1     -21.995  -7.050  -4.944  0.00  0.00     0.096 A 
HETATM    8  N           1     -22.656  -5.985  -5.498  0.00  0.00    -0.365 N 
HETATM    9  C           1     -21.841  -5.336  -6.398  0.00  0.00     0.042 A 
HETATM   10  H           1     -23.641  -5.704  -5.268  0.00  0.00     0.165 HD
HETATM   11  C           1     -22.088  -4.210  -7.193  0.00  0.00     0.030 A 
HETATM   12  C           1     -20.623  -6.016  -6.413  0.00  0.00    -0.002 A 
HETATM   13  C           1     -21.056  -3.769  -8.027  0.00  0.00     0.002 A 
HETATM   14  C           1     -19.829  -4.428  -8.062  0.00  0.00     0.001 A 
HETATM   15  C           1     -19.599  -5.553  -7.261  0.00  0.00     0.014 A 
ENDBRANCH   5   6
ENDBRANCH   1   5
BRANCH   1  16
HETATM   16  N           1     -19.897  -9.529  -3.228  0.00  0.00    -0.344 N 
HETATM   17  H           1     -18.984  -9.210  -2.930  0.00  0.00     0.163 HD
HETATM   18  C           1     -20.741 -10.124  -2.330  0.00  0.00     0.249 C 
HETATM   19  O           1     -20.709 -11.321  -2.173  0.00  0.00    -0.271 OA
BRANCH  18  20
HETATM   20  C           1     -21.713  -9.284  -1.539  0.00  0.00     0.284 C 
BRANCH  20  21
HETATM   21  C           1     -21.122  -7.900  -1.312  0.00  0.00     0.155 C 
BRANCH  21  22
HETATM   22  C           1     -22.239  -6.900  -1.125  0.00  0.00     0.175 C 
HETATM   23  O           1     -22.313  -5.901  -1.872  0.00  0.00    -0.648 OA
HETATM   24  O           1     -23.087  -7.072  -0.224  0.00  0.00    -0.648 OA
ENDBRANCH  21  22
ENDBRANCH  20  21
BRANCH  20  25
HETATM   25  N           1     -21.976  -9.938  -0.214  0.00  0.00    -0.066 N 
HETATM   26  H           1     -22.971 -10.254  -0.173  0.00  0.00     0.275 HD
HETATM   27  H           1     -21.344 -10.762  -0.102  0.00  0.00     0.275 HD
HETATM   28  H           1     -21.797  -9.252   0.553  0.00  0.00     0.275 HD
ENDBRANCH  20  25
ENDBRANCH  18  20
ENDBRANCH   1  16
TORSDOF 8
ENDMDL
MODEL 5
REMARK VINA RESULT:      -7.1      3.309      6.946
REMARK  8 active torsions:
REMARK  status: ('A' for Active; 'I' for Inactive)
REMARK    1  A    between atoms: C_1  and  C_24 
REMARK       I    between atoms: C_9  and  N_25 
REMARK    2  A    between atoms: C_9  and  C_10 
REMARK    3  A    between atoms: C_10  and  C_11 
REMARK    4  A    between atoms: C_10  and  N_15 
REMARK    5  A    between atoms: C_11  and  C_12 
REMARK    6  A    between atoms: C_18  and  C_20 
REMARK    7  A    between atoms: C_20  and  C_24 
REMARK    8  A    between atoms: C_20  and  N_25 
ROOT
HETATM    1  C           1     -21.290  -8.070  -2.772  0.00  0.00     0.190 C 
ENDROOT
BRANCH   1   2
HETATM    2  C           1     -22.016  -8.263  -1.464  0.00  0.00     0.197 C 
HETATM    3  O           1     -22.421  -7.269  -0.821  0.00  0.00    -0.646 OA
HETATM    4  O           1     -22.214  -9.415  -1.023  0.00  0.00    -0.646 OA
ENDBRANCH   1   2
BRANCH   1   5
HETATM    5  C           1     -19.843  -8.519  -2.621  0.00  0.00     0.077 C 
BRANCH   5   6
HETATM    6  C           1     -19.426  -9.281  -3.840  0.00  0.00    -0.028 A 
HETATM    7  C           1     -20.255  -9.720  -4.846  0.00  0.00     0.096 A 
HETATM    8  N           1     -19.484 -10.371  -5.772  0.00  0.00    -0.365 N 
HETATM    9  C           1     -18.164 -10.361  -5.382  0.00  0.00     0.042 A 
HETATM   10  H           1     -19.847 -10.813  -6.652  0.00  0.00     0.165 HD
HETATM   11  C           1     -17.032 -10.900  -6.007  0.00  0.00     0.030 A 
HETATM   12  C           1     -18.100  -9.680  -4.167  0.00  0.00    -0.002 A 
HETATM   13  C           1     -15.800 -10.734  -5.366  0.00  0.00     0.002 A 
HETATM   14  C           1     -15.706 -10.057  -4.152  0.00  0.00     0.001 A 
HETATM   15  C           1     -16.848  -9.526  -3.540  0.00  0.00     0.014 A 
ENDBRANCH   5   6
ENDBRANCH   1   5
BRANCH   1  16
HETATM   16  N           1     -21.324  -6.668  -3.141  0.00  0.00    -0.344 N 
HETATM   17  H           1     -21.129  -5.958  -2.446  0.00  0.00     0.163 HD
HETATM   18  C           1     -21.620  -6.305  -4.427  0.00  0.00     0.249 C 
HETATM   19  O           1     -22.766  -6.106  -4.750  0.00  0.00    -0.271 OA
BRANCH  18  20
HETATM   20  C           1     -20.513  -6.155  -5.442  0.00  0.00     0.284 C 
BRANCH  20  21
HETATM   21  C           1     -20.164  -4.681  -5.600  0.00  0.00     0.155 C 
BRANCH  21  22
HETATM   22  C           1     -20.572  -4.213  -6.977  0.00  0.00     0.175 C 
HETATM   23  O           1     -19.740  -4.215  -7.909  0.00  0.00    -0.648 OA
HETATM   24  O           1     -21.742  -3.822  -7.183  0.00  0.00    -0.648 OA
ENDBRANCH  21  22
ENDBRANCH  20  21
BRANCH  20  25
HETATM   25  N           1     -20.966  -6.706  -6.762  0.00  0.00    -0.066 N 
HETATM   26  H           1     -20.554  -6.139  -7.536  0.00  0.00     0.275 HD
HETATM   27  H           1     -20.652  -7.698  -6.850  0.00  0.00     0.275 HD
HETATM   28  H           1     -22.009  -6.663  -6.815  0.00  0.00     0.275 HD
ENDBRANCH  20  25
ENDBRANCH  18  20
ENDBRANCH   1  16
TORSDOF 8
ENDMDL
MODEL 6
REMARK VINA RESULT:      -6.9      2.606      7.296
REMARK  8 active torsions:
REMARK  status: ('A' for Active; 'I' for Inactive)
REMARK    1  A    between atoms: C_1  and  C_24 
REMARK       I    between atoms: C_9  and  N_25 
REMARK    2  A    between atoms: C_9  and  C_10 
REMARK    3  A    between atoms: C_10  and  C_11 
REMARK    4  A    between atoms: C_10  and  N_15 
REMARK    5  A    between atoms: C_11  and  C_12 
REMARK    6  A    between atoms: C_18  and  C_20 
REMARK    7  A    between atoms: C_20  and  C_24 
REMARK    8  A    between atoms: C_20  and  N_25 
ROOT
HETATM    1  C           1     -19.834  -7.883  -5.286  0.00  0.00     0.190 C 
ENDROOT
BRANCH   1   2
HETATM    2  C           1     -18.784  -8.960  -5.166  0.00  0.00     0.197 C 
HETATM    3  O           1     -18.209  -9.153  -4.072  0.00  0.00    -0.646 OA
HETATM    4  O           1     -18.490  -9.660  -6.159  0.00  0.00    -0.646 OA
ENDBRANCH   1   2
BRANCH   1   5
HETATM    5  C           1     -21.217  -8.521  -5.304  0.00  0.00     0.077 C 
BRANCH   5   6
HETATM    6  C           1     -21.542  -9.046  -3.941  0.00  0.00    -0.028 A 
HETATM    7  C           1     -21.642 -10.371  -3.584  0.00  0.00     0.096 A 
HETATM    8  N           1     -21.955 -10.425  -2.252  0.00  0.00    -0.365 N 
HETATM    9  C           1     -22.059  -9.152  -1.736  0.00  0.00     0.042 A 
HETATM   10  H           1     -22.093 -11.308  -1.702  0.00  0.00     0.165 HD
HETATM   11  C           1     -22.358  -8.724  -0.437  0.00  0.00     0.030 A 
HETATM   12  C           1     -21.804  -8.264  -2.781  0.00  0.00    -0.002 A 
HETATM   13  C           1     -22.396  -7.345  -0.203  0.00  0.00     0.002 A 
HETATM   14  C           1     -22.145  -6.436  -1.228  0.00  0.00     0.001 A 
HETATM   15  C           1     -21.848  -6.881  -2.522  0.00  0.00     0.014 A 
ENDBRANCH   5   6
ENDBRANCH   1   5
BRANCH   1  16
HETATM   16  N           1     -19.628  -7.143  -6.516  0.00  0.00    -0.344 N 
HETATM   17  H           1     -19.152  -7.580  -7.296  0.00  0.00     0.163 HD
HETATM   18  C           1     -20.075  -5.853  -6.623  0.00  0.00     0.249 C 
HETATM   19  O           1     -19.356  -4.937  -6.306  0.00  0.00    -0.271 OA
BRANCH  18  20
HETATM   20  C           1     -21.467  -5.579  -7.136  0.00  0.00     0.284 C 
BRANCH  20  21
HETATM   21  C           1     -21.438  -4.375  -8.068  0.00  0.00     0.155 C 
BRANCH  21  22
HETATM   22  C           1     -22.669  -4.387  -8.944  0.00  0.00     0.175 C 
HETATM   23  O           1     -22.580  -4.736 -10.140  0.00  0.00    -0.648 OA
HETATM   24  O           1     -23.775  -4.048  -8.472  0.00  0.00    -0.648 OA
ENDBRANCH  21  22
ENDBRANCH  20  21
BRANCH  20  25
HETATM   25  N           1     -22.379  -5.293  -5.979  0.00  0.00    -0.066 N 
HETATM   26  H           1     -21.863  -5.441  -5.083  0.00  0.00     0.275 HD
HETATM   27  H           1     -22.708  -4.302  -6.032  0.00  0.00     0.275 HD
HETATM   28  H           1     -23.201  -5.936  -6.018  0.00  0.00     0.275 HD
ENDBRANCH  20  25
ENDBRANCH  18  20
ENDBRANCH   1  16
TORSDOF 8
ENDMDL
MODEL 7
REMARK VINA RESULT:      -6.8      3.208      7.504
REMARK  8 active torsions:
REMARK  status: ('A' for Active; 'I' for Inactive)
REMARK    1  A    between atoms: C_1  and  C_24 
REMARK       I    between atoms: C_9  and  N_25 
REMARK    2  A    between atoms: C_9  and  C_10 
REMARK    3  A    between atoms: C_10  and  C_11 
REMARK    4  A    between atoms: C_10  and  N_15 
REMARK    5  A    between atoms: C_11  and  C_12 
REMARK    6  A    between atoms: C_18  and  C_20 
REMARK    7  A    between atoms: C_20  and  C_24 
REMARK    8  A    between atoms: C_20  and  N_25 
ROOT
HETATM    1  C           1     -20.616  -5.059  -6.399  0.00  0.00     0.190 C 
ENDROOT
BRANCH   1   2
HETATM    2  C           1     -19.562  -5.118  -7.477  0.00  0.00     0.197 C 
HETATM    3  O           1     -18.561  -4.370  -7.415  0.00  0.00    -0.646 OA
HETATM    4  O           1     -19.689  -5.914  -8.432  0.00  0.00    -0.646 OA
ENDBRANCH   1   2
BRANCH   1   5
HETATM    5  C           1     -21.301  -6.414  -6.283  0.00  0.00     0.077 C 
BRANCH   5   6
HETATM    6  C           1     -21.205  -6.903  -4.872  0.00  0.00    -0.028 A 
HETATM    7  C           1     -21.974  -6.482  -3.813  0.00  0.00     0.096 A 
HETATM    8  N           1     -21.572  -7.174  -2.701  0.00  0.00    -0.365 N 
HETATM    9  C           1     -20.551  -8.040  -3.023  0.00  0.00     0.042 A 
HETATM   10  H           1     -21.983  -7.061  -1.742  0.00  0.00     0.165 HD
HETATM   11  C           1     -19.837  -8.936  -2.218  0.00  0.00     0.030 A 
HETATM   12  C           1     -20.301  -7.889  -4.387  0.00  0.00    -0.002 A 
HETATM   13  C           1     -18.837  -9.699  -2.831  0.00  0.00     0.002 A 
HETATM   14  C           1     -18.566  -9.569  -4.191  0.00  0.00     0.001 A 
HETATM   15  C           1     -19.289  -8.668  -4.981  0.00  0.00     0.014 A 
ENDBRANCH   5   6
ENDBRANCH   1   5
BRANCH   1  16
HETATM   16  N           1     -21.600  -4.049  -6.740  0.00  0.00    -0.344 N 
HETATM   17  H           1     -21.398  -3.071  -6.576  0.00  0.00     0.163 HD
HETATM   18  C           1     -22.801  -4.418  -7.284  0.00  0.00     0.249 C 
HETATM   19  O           1     -23.741  -4.658  -6.565  0.00  0.00    -0.271 OA
BRANCH  18  20
HETATM   20  C           1     -22.949  -4.526  -8.781  0.00  0.00     0.284 C 
BRANCH  20  21
HETATM   21  C           1     -22.055  -3.495  -9.457  0.00  0.00     0.155 C 
BRANCH  21  22
HETATM   22  C           1     -22.113  -3.684 -10.955  0.00  0.00     0.175 C 
HETATM   23  O           1     -21.674  -2.792 -11.713  0.00  0.00    -0.648 OA
HETATM   24  O           1     -22.599  -4.730 -11.435  0.00  0.00    -0.648 OA
ENDBRANCH  21  22
ENDBRANCH  20  21
BRANCH  20  25
HETATM   25  N           1     -24.378  -4.274  -9.162  0.00  0.00    -0.066 N 
HETATM   26  H           1     -24.425  -3.970 -10.160  0.00  0.00     0.275 HD
HETATM   27  H           1     -24.931  -5.152  -9.039  0.00  0.00     0.275 HD
HETATM   28  H           1     -24.773  -3.524  -8.550  0.00  0.00     0.275 HD
ENDBRANCH  20  25
ENDBRANCH  18  20
ENDBRANCH   1  16
TORSDOF 8
ENDMDL
MODEL 8
REMARK VINA RESULT:      -6.8      4.392      7.631
REMARK  8 active torsions:
REMARK  status: ('A' for Active; 'I' for Inactive)
REMARK    1  A    between atoms: C_1  and  C_24 
REMARK       I    between atoms: C_9  and  N_25 
REMARK    2  A    between atoms: C_9  and  C_10 
REMARK    3  A    between atoms: C_10  and  C_11 
REMARK    4  A    between atoms: C_10  and  N_15 
REMARK    5  A    between atoms: C_11  and  C_12 
REMARK    6  A    between atoms: C_18  and  C_20 
REMARK    7  A    between atoms: C_20  and  C_24 
REMARK    8  A    between atoms: C_20  and  N_25 
ROOT
HETATM    1  C           1     -20.958  -7.822  -3.362  0.00  0.00     0.190 C 
ENDROOT
BRANCH   1   2
HETATM    2  C           1     -21.489  -6.454  -3.713  0.00  0.00     0.197 C 
HETATM    3  O           1     -20.957  -5.795  -4.634  0.00  0.00    -0.646 OA
HETATM    4  O           1     -22.458  -5.979  -3.084  0.00  0.00    -0.646 OA
ENDBRANCH   1   2
BRANCH   1   5
HETATM    5  C           1     -20.526  -7.840  -1.902  0.00  0.00     0.077 C 
BRANCH   5   6
HETATM    6  C           1     -21.646  -8.360  -1.056  0.00  0.00    -0.028 A 
HETATM    7  C           1     -22.233  -7.707   0.003  0.00  0.00     0.096 A 
HETATM    8  N           1     -23.214  -8.521   0.506  0.00  0.00    -0.365 N 
HETATM    9  C           1     -23.273  -9.694  -0.212  0.00  0.00     0.042 A 
HETATM   10  H           1     -23.832  -8.284   1.320  0.00  0.00     0.165 HD
HETATM   11  C           1     -24.109 -10.807  -0.061  0.00  0.00     0.030 A 
HETATM   12  C           1     -22.294  -9.618  -1.203  0.00  0.00    -0.002 A 
HETATM   13  C           1     -23.937 -11.871  -0.952  0.00  0.00     0.002 A 
HETATM   14  C           1     -22.967 -11.822  -1.951  0.00  0.00     0.001 A 
HETATM   15  C           1     -22.138 -10.702  -2.088  0.00  0.00     0.014 A 
ENDBRANCH   5   6
ENDBRANCH   1   5
BRANCH   1  16
HETATM   16  N           1     -19.820  -8.130  -4.206  0.00  0.00    -0.344 N 
HETATM   17  H           1     -19.196  -7.390  -4.503  0.00  0.00     0.163 HD
HETATM   18  C           1     -19.590  -9.420  -4.602  0.00  0.00     0.249 C 
HETATM   19  O           1     -20.078  -9.834  -5.626  0.00  0.00    -0.271 OA
BRANCH  18  20
HETATM   20  C           1     -18.727 -10.325  -3.757  0.00  0.00     0.284 C 
BRANCH  20  21
HETATM   21  C           1     -17.528  -9.545  -3.236  0.00  0.00     0.155 C 
BRANCH  21  22
HETATM   22  C           1     -16.268 -10.068  -3.884  0.00  0.00     0.175 C 
HETATM   23  O           1     -15.534 -10.867  -3.266  0.00  0.00    -0.648 OA
HETATM   24  O           1     -15.960  -9.700  -5.038  0.00  0.00    -0.648 OA
ENDBRANCH  21  22
ENDBRANCH  20  21
BRANCH  20  25
HETATM   25  N           1     -18.250 -11.480  -4.587  0.00  0.00    -0.066 N 
HETATM   26  H           1     -17.743 -12.161  -3.979  0.00  0.00     0.275 HD
HETATM   27  H           1     -19.070 -11.951  -5.031  0.00  0.00     0.275 HD
HETATM   28  H           1     -17.604 -11.129  -5.331  0.00  0.00     0.275 HD
ENDBRANCH  20  25
ENDBRANCH  18  20
ENDBRANCH   1  16
TORSDOF 8
ENDMDL
MODEL 9
REMARK VINA RESULT:      -6.7      3.324      7.704
REMARK  8 active torsions:
REMARK  status: ('A' for Active; 'I' for Inactive)
REMARK    1  A    between atoms: C_1  and  C_24 
REMARK       I    between atoms: C_9  and  N_25 
REMARK    2  A    between atoms: C_9  and  C_10 
REMARK    3  A    between atoms: C_10  and  C_11 
REMARK    4  A    between atoms: C_10  and  N_15 
REMARK    5  A    between atoms: C_11  and  C_12 
REMARK    6  A    between atoms: C_18  and  C_20 
REMARK    7  A    between atoms: C_20  and  C_24 
REMARK    8  A    between atoms: C_20  and  N_25 
ROOT
HETATM    1  C           1     -21.385  -5.839  -6.963  0.00  0.00     0.190 C 
ENDROOT
BRANCH   1   2
HETATM    2  C           1     -22.139  -4.560  -6.694  0.00  0.00     0.197 C 
HETATM    3  O           1     -23.389  -4.553  -6.721  0.00  0.00    -0.646 OA
HETATM    4  O           1     -21.514  -3.507  -6.444  0.00  0.00    -0.646 OA
ENDBRANCH   1   2
BRANCH   1   5
HETATM    5  C           1     -20.167  -5.913  -6.052  0.00  0.00     0.077 C 
BRANCH   5   6
HETATM    6  C           1     -20.321  -7.061  -5.104  0.00  0.00    -0.028 A 
HETATM    7  C           1     -19.882  -8.348  -5.310  0.00  0.00     0.096 A 
HETATM    8  N           1     -20.218  -9.088  -4.208  0.00  0.00    -0.365 N 
HETATM    9  C           1     -20.870  -8.300  -3.287  0.00  0.00     0.042 A 
HETATM   10  H           1     -20.008 -10.109  -4.083  0.00  0.00     0.165 HD
HETATM   11  C           1     -21.393  -8.622  -2.028  0.00  0.00     0.030 A 
HETATM   12  C           1     -20.949  -7.016  -3.828  0.00  0.00    -0.002 A 
HETATM   13  C           1     -22.013  -7.598  -1.304  0.00  0.00     0.002 A 
HETATM   14  C           1     -22.105  -6.308  -1.820  0.00  0.00     0.001 A 
HETATM   15  C           1     -21.578  -6.002  -3.081  0.00  0.00     0.014 A 
ENDBRANCH   5   6
ENDBRANCH   1   5
BRANCH   1  16
HETATM   16  N           1     -20.954  -5.863  -8.348  0.00  0.00    -0.344 N 
HETATM   17  H           1     -20.888  -6.744  -8.841  0.00  0.00     0.163 HD
HETATM   18  C           1     -20.635  -4.695  -8.986  0.00  0.00     0.249 C 
HETATM   19  O           1     -19.501  -4.280  -8.956  0.00  0.00    -0.271 OA
BRANCH  18  20
HETATM   20  C           1     -21.700  -3.925  -9.727  0.00  0.00     0.284 C 
BRANCH  20  21
HETATM   21  C           1     -22.811  -4.876 -10.153  0.00  0.00     0.155 C 
BRANCH  21  22
HETATM   22  C           1     -24.118  -4.122 -10.226  0.00  0.00     0.175 C 
HETATM   23  O           1     -25.151  -4.614  -9.724  0.00  0.00    -0.648 OA
HETATM   24  O           1     -24.166  -3.007 -10.789  0.00  0.00    -0.648 OA
ENDBRANCH  21  22
ENDBRANCH  20  21
BRANCH  20  25
HETATM   25  N           1     -21.100  -3.282 -10.942  0.00  0.00    -0.066 N 
HETATM   26  H           1     -20.064  -3.413 -10.930  0.00  0.00     0.275 HD
HETATM   27  H           1     -21.497  -3.724 -11.802  0.00  0.00     0.275 HD
HETATM   28  H           1     -21.322  -2.261 -10.940  0.00  0.00     0.275 HD
ENDBRANCH  20  25
ENDBRANCH  18  20
ENDBRANCH   1  16
TORSDOF 8
ENDMDL
