MODEL 1
REMARK VINA RESULT:      -6.3      0.000      0.000
REMARK  9 active torsions:
REMARK  status: ('A' for Active; 'I' for Inactive)
REMARK       I    between atoms: C_2  and  N_15 
REMARK    1  A    between atoms: C_2  and  C_8 
REMARK    2  A    between atoms: C_8  and  C_12 
REMARK    3  A    between atoms: C_8  and  N_10 
REMARK    4  A    between atoms: O_11  and  C_12 
REMARK    5  A    between atoms: C_13  and  C_21 
REMARK    6  A    between atoms: C_13  and  C_18 
REMARK    7  A    between atoms: N_15  and  C_19 
REMARK    8  A    between atoms: C_18  and  C_19 
REMARK    9  A    between atoms: C_19  and  C_20 
ROOT
HETATM    1  C           1     -26.287  -6.559 -18.823  0.00  0.00     0.251 C 
HETATM    2  H           1     -27.932  -6.892 -20.032  0.00  0.00     0.163 HD
HETATM    3  O           1     -25.918  -6.212 -17.726  0.00  0.00    -0.271 OA
HETATM    4  N           1     -27.623  -6.601 -19.114  0.00  0.00    -0.345 N 
ENDROOT
BRANCH   4   5
HETATM    5  C           1     -28.597  -6.230 -18.106  0.00  0.00     0.186 C 
BRANCH   5   6
HETATM    6  C           1     -29.337  -4.977 -18.552  0.00  0.00     0.046 C 
BRANCH   6   7
HETATM    7  C           1     -29.726  -4.154 -17.331  0.00  0.00     0.116 C 
BRANCH   7   8
HETATM    8  C           1     -31.225  -3.979 -17.297  0.00  0.00     0.172 C 
HETATM    9  O           1     -31.942  -4.841 -16.744  0.00  0.00    -0.648 OA
HETATM   10  O           1     -31.748  -2.973 -17.822  0.00  0.00    -0.648 OA
ENDBRANCH   7   8
ENDBRANCH   6   7
ENDBRANCH   5   6
BRANCH   5  11
HETATM   11  C           1     -29.583  -7.358 -17.919  0.00  0.00     0.196 C 
HETATM   12  O           1     -30.568  -7.459 -18.682  0.00  0.00    -0.646 OA
HETATM   13  O           1     -29.414  -8.191 -17.002  0.00  0.00    -0.646 OA
ENDBRANCH   5  11
ENDBRANCH   4   5
BRANCH   1  14
HETATM   14  C           1     -25.274  -6.946 -19.872  0.00  0.00     0.297 C 
BRANCH  14  15
HETATM   15  C           1     -25.932  -7.848 -20.908  0.00  0.00     0.206 C 
BRANCH  15  16
HETATM   16  O           1     -24.943  -8.528 -21.632  0.00  0.00    -0.398 OA
HETATM   17  H           1     -24.402  -8.974 -21.004  0.00  0.00     0.209 HD
ENDBRANCH  15  16
ENDBRANCH  14  15
BRANCH  14  18
HETATM   18  N           1     -24.136  -7.677 -19.224  0.00  0.00    -0.064 N 
HETATM   19  H           1     -24.210  -8.697 -19.439  0.00  0.00     0.275 HD
HETATM   20  H           1     -23.231  -7.308 -19.591  0.00  0.00     0.275 HD
HETATM   21  H           1     -24.177  -7.536 -18.188  0.00  0.00     0.275 HD
ENDBRANCH  14  18
ENDBRANCH   1  14
TORSDOF 9
ENDMDL
MODEL 2
REMARK VINA RESULT:      -6.3      1.274      1.379
REMARK  9 active torsions:
REMARK  status: ('A' for Active; 'I' for Inactive)
REMARK       I    between atoms: C_2  and  N_15 
REMARK    1  A    between atoms: C_2  and  C_8 
REMARK    2  A    between atoms: C_8  and  C_12 
REMARK    3  A    between atoms: C_8  and  N_10 
REMARK    4  A    between atoms: O_11  and  C_12 
REMARK    5  A    between atoms: C_13  and  C_21 
REMARK    6  A    between atoms: C_13  and  C_18 
REMARK    7  A    between atoms: N_15  and  C_19 
REMARK    8  A    between atoms: C_18  and  C_19 
REMARK    9  A    between atoms: C_19  and  C_20 
ROOT
HETATM    1  C           1     -26.140  -6.215 -17.243  0.00  0.00     0.251 C 
HETATM    2  H           1     -27.112  -7.071 -18.856  0.00  0.00     0.163 HD
HETATM    3  O           1     -26.283  -5.600 -16.212  0.00  0.00    -0.271 OA
HETATM    4  N           1     -27.232  -6.556 -17.993  0.00  0.00    -0.345 N 
ENDROOT
BRANCH   4   5
HETATM    5  C           1     -28.561  -6.182 -17.551  0.00  0.00     0.186 C 
BRANCH   5   6
HETATM    6  C           1     -29.067  -5.019 -18.394  0.00  0.00     0.046 C 
BRANCH   6   7
HETATM    7  C           1     -29.481  -3.872 -17.482  0.00  0.00     0.116 C 
BRANCH   7   8
HETATM    8  C           1     -30.983  -3.857 -17.340  0.00  0.00     0.172 C 
HETATM    9  O           1     -31.551  -4.710 -16.625  0.00  0.00    -0.648 OA
HETATM   10  O           1     -31.658  -2.992 -17.937  0.00  0.00    -0.648 OA
ENDBRANCH   7   8
ENDBRANCH   6   7
ENDBRANCH   5   6
BRANCH   5  11
HETATM   11  C           1     -29.493  -7.359 -17.706  0.00  0.00     0.196 C 
HETATM   12  O           1     -30.336  -7.372 -18.627  0.00  0.00    -0.646 OA
HETATM   13  O           1     -29.420  -8.322 -16.911  0.00  0.00    -0.646 OA
ENDBRANCH   5  11
ENDBRANCH   4   5
BRANCH   1  14
HETATM   14  C           1     -24.757  -6.604 -17.703  0.00  0.00     0.297 C 
BRANCH  14  15
HETATM   15  C           1     -24.811  -7.052 -19.158  0.00  0.00     0.206 C 
BRANCH  15  16
HETATM   16  O           1     -23.659  -7.791 -19.463  0.00  0.00    -0.398 OA
HETATM   17  H           1     -23.610  -7.845 -20.402  0.00  0.00     0.209 HD
ENDBRANCH  15  16
ENDBRANCH  14  15
BRANCH  14  18
HETATM   18  N           1     -24.246  -7.730 -16.853  0.00  0.00    -0.064 N 
HETATM   19  H           1     -24.616  -7.629 -15.881  0.00  0.00     0.275 HD
HETATM   20  H           1     -24.564  -8.640 -17.254  0.00  0.00     0.275 HD
HETATM   21  H           1     -23.201  -7.704 -16.832  0.00  0.00     0.275 HD
ENDBRANCH  14  18
ENDBRANCH   1  14
TORSDOF 9
ENDMDL
MODEL 3
REMARK VINA RESULT:      -6.1      2.177      3.124
REMARK  9 active torsions:
REMARK  status: ('A' for Active; 'I' for Inactive)
REMARK       I    between atoms: C_2  and  N_15 
REMARK    1  A    between atoms: C_2  and  C_8 
REMARK    2  A    between atoms: C_8  and  C_12 
REMARK    3  A    between atoms: C_8  and  N_10 
REMARK    4  A    between atoms: O_11  and  C_12 
REMARK    5  A    between atoms: C_13  and  C_21 
REMARK    6  A    between atoms: C_13  and  C_18 
REMARK    7  A    between atoms: N_15  and  C_19 
REMARK    8  A    between atoms: C_18  and  C_19 
REMARK    9  A    between atoms: C_19  and  C_20 
ROOT
HETATM    1  C           1     -26.510  -6.493 -19.776  0.00  0.00     0.251 C 
HETATM    2  H           1     -25.967  -7.209 -17.912  0.00  0.00     0.163 HD
HETATM    3  O           1     -27.306  -5.817 -20.385  0.00  0.00    -0.271 OA
HETATM    4  N           1     -26.633  -6.643 -18.422  0.00  0.00    -0.345 N 
ENDROOT
BRANCH   4   5
HETATM    5  C           1     -27.717  -5.988 -17.716  0.00  0.00     0.186 C 
BRANCH   5   6
HETATM    6  C           1     -28.725  -7.032 -17.254  0.00  0.00     0.046 C 
BRANCH   6   7
HETATM    7  C           1     -30.102  -6.690 -17.807  0.00  0.00     0.116 C 
BRANCH   7   8
HETATM    8  C           1     -30.572  -7.802 -18.713  0.00  0.00     0.172 C 
HETATM    9  O           1     -29.749  -8.619 -19.177  0.00  0.00    -0.648 OA
HETATM   10  O           1     -31.784  -7.906 -18.997  0.00  0.00    -0.648 OA
ENDBRANCH   7   8
ENDBRANCH   6   7
ENDBRANCH   5   6
BRANCH   5  11
HETATM   11  C           1     -27.167  -5.254 -16.517  0.00  0.00     0.196 C 
HETATM   12  O           1     -27.850  -4.369 -15.959  0.00  0.00    -0.646 OA
HETATM   13  O           1     -26.029  -5.533 -16.082  0.00  0.00    -0.646 OA
ENDBRANCH   5  11
ENDBRANCH   4   5
BRANCH   1  14
HETATM   14  C           1     -25.382  -7.174 -20.511  0.00  0.00     0.297 C 
BRANCH  14  15
HETATM   15  C           1     -25.933  -8.338 -21.324  0.00  0.00     0.206 C 
BRANCH  15  16
HETATM   16  O           1     -27.242  -8.620 -20.909  0.00  0.00    -0.398 OA
HETATM   17  H           1     -27.384  -8.145 -20.108  0.00  0.00     0.209 HD
ENDBRANCH  15  16
ENDBRANCH  14  15
BRANCH  14  18
HETATM   18  N           1     -24.379  -7.688 -19.521  0.00  0.00    -0.064 N 
HETATM   19  H           1     -24.847  -8.348 -18.861  0.00  0.00     0.275 HD
HETATM   20  H           1     -23.614  -8.186 -20.028  0.00  0.00     0.275 HD
HETATM   21  H           1     -23.977  -6.885 -18.984  0.00  0.00     0.275 HD
ENDBRANCH  14  18
ENDBRANCH   1  14
TORSDOF 9
ENDMDL
MODEL 4
REMARK VINA RESULT:      -6.0      1.934      2.838
REMARK  9 active torsions:
REMARK  status: ('A' for Active; 'I' for Inactive)
REMARK       I    between atoms: C_2  and  N_15 
REMARK    1  A    between atoms: C_2  and  C_8 
REMARK    2  A    between atoms: C_8  and  C_12 
REMARK    3  A    between atoms: C_8  and  N_10 
REMARK    4  A    between atoms: O_11  and  C_12 
REMARK    5  A    between atoms: C_13  and  C_21 
REMARK    6  A    between atoms: C_13  and  C_18 
REMARK    7  A    between atoms: N_15  and  C_19 
REMARK    8  A    between atoms: C_18  and  C_19 
REMARK    9  A    between atoms: C_19  and  C_20 
ROOT
HETATM    1  C           1     -25.330  -6.859 -19.023  0.00  0.00     0.251 C 
HETATM    2  H           1     -27.371  -6.996 -18.707  0.00  0.00     0.163 HD
HETATM    3  O           1     -24.283  -6.458 -18.573  0.00  0.00    -0.271 OA
HETATM    4  N           1     -26.494  -6.660 -18.330  0.00  0.00    -0.345 N 
ENDROOT
BRANCH   4   5
HETATM    5  C           1     -26.470  -5.969 -17.056  0.00  0.00     0.186 C 
BRANCH   5   6
HETATM    6  C           1     -27.726  -5.120 -16.915  0.00  0.00     0.046 C 
BRANCH   6   7
HETATM    7  C           1     -28.586  -5.274 -18.162  0.00  0.00     0.116 C 
BRANCH   7   8
HETATM    8  C           1     -29.715  -6.235 -17.880  0.00  0.00     0.172 C 
HETATM    9  O           1     -29.604  -7.439 -18.198  0.00  0.00    -0.648 OA
HETATM   10  O           1     -30.759  -5.828 -17.328  0.00  0.00    -0.648 OA
ENDBRANCH   7   8
ENDBRANCH   6   7
ENDBRANCH   5   6
BRANCH   5  11
HETATM   11  C           1     -26.417  -6.980 -15.936  0.00  0.00     0.196 C 
HETATM   12  O           1     -27.475  -7.385 -15.410  0.00  0.00    -0.646 OA
HETATM   13  O           1     -25.314  -7.412 -15.536  0.00  0.00    -0.646 OA
ENDBRANCH   5  11
ENDBRANCH   4   5
BRANCH   1  14
HETATM   14  C           1     -25.356  -7.579 -20.349  0.00  0.00     0.297 C 
BRANCH  14  15
HETATM   15  C           1     -24.868  -6.641 -21.446  0.00  0.00     0.206 C 
BRANCH  15  16
HETATM   16  O           1     -25.433  -5.371 -21.261  0.00  0.00    -0.398 OA
HETATM   17  H           1     -24.946  -4.952 -20.572  0.00  0.00     0.209 HD
ENDBRANCH  15  16
ENDBRANCH  14  15
BRANCH  14  18
HETATM   18  N           1     -26.757  -8.017 -20.653  0.00  0.00    -0.064 N 
HETATM   19  H           1     -27.430  -7.293 -20.315  0.00  0.00     0.275 HD
HETATM   20  H           1     -26.867  -8.140 -21.684  0.00  0.00     0.275 HD
HETATM   21  H           1     -26.951  -8.925 -20.171  0.00  0.00     0.275 HD
ENDBRANCH  14  18
ENDBRANCH   1  14
TORSDOF 9
ENDMDL
MODEL 5
REMARK VINA RESULT:      -5.9      2.226      3.116
REMARK  9 active torsions:
REMARK  status: ('A' for Active; 'I' for Inactive)
REMARK       I    between atoms: C_2  and  N_15 
REMARK    1  A    between atoms: C_2  and  C_8 
REMARK    2  A    between atoms: C_8  and  C_12 
REMARK    3  A    between atoms: C_8  and  N_10 
REMARK    4  A    between atoms: O_11  and  C_12 
REMARK    5  A    between atoms: C_13  and  C_21 
REMARK    6  A    between atoms: C_13  and  C_18 
REMARK    7  A    between atoms: N_15  and  C_19 
REMARK    8  A    between atoms: C_18  and  C_19 
REMARK    9  A    between atoms: C_19  and  C_20 
ROOT
HETATM    1  C           1     -25.388  -6.268 -16.676  0.00  0.00     0.251 C 
HETATM    2  H           1     -26.858  -7.031 -17.916  0.00  0.00     0.163 HD
HETATM    3  O           1     -25.166  -5.557 -15.723  0.00  0.00    -0.271 OA
HETATM    4  N           1     -26.672  -6.436 -17.119  0.00  0.00    -0.345 N 
ENDROOT
BRANCH   4   5
HETATM    5  C           1     -27.766  -5.763 -16.446  0.00  0.00     0.186 C 
BRANCH   5   6
HETATM    6  C           1     -28.905  -5.538 -17.431  0.00  0.00     0.046 C 
BRANCH   6   7
HETATM    7  C           1     -28.854  -6.601 -18.520  0.00  0.00     0.116 C 
BRANCH   7   8
HETATM    8  C           1     -30.038  -7.525 -18.379  0.00  0.00     0.172 C 
HETATM    9  O           1     -30.977  -7.224 -17.611  0.00  0.00    -0.648 OA
HETATM   10  O           1     -30.080  -8.591 -19.030  0.00  0.00    -0.648 OA
ENDBRANCH   7   8
ENDBRANCH   6   7
ENDBRANCH   5   6
BRANCH   5  11
HETATM   11  C           1     -28.251  -6.614 -15.299  0.00  0.00     0.196 C 
HETATM   12  O           1     -27.691  -7.702 -15.047  0.00  0.00    -0.646 OA
HETATM   13  O           1     -29.214  -6.230 -14.600  0.00  0.00    -0.646 OA
ENDBRANCH   5  11
ENDBRANCH   4   5
BRANCH   1  14
HETATM   14  C           1     -24.250  -6.969 -17.375  0.00  0.00     0.297 C 
BRANCH  14  15
HETATM   15  C           1     -24.647  -7.272 -18.814  0.00  0.00     0.206 C 
BRANCH  15  16
HETATM   16  O           1     -23.545  -7.800 -19.502  0.00  0.00    -0.398 OA
HETATM   17  H           1     -23.568  -7.440 -20.372  0.00  0.00     0.209 HD
ENDBRANCH  15  16
ENDBRANCH  14  15
BRANCH  14  18
HETATM   18  N           1     -23.938  -8.251 -16.662  0.00  0.00    -0.064 N 
HETATM   19  H           1     -24.778  -8.563 -16.124  0.00  0.00     0.275 HD
HETATM   20  H           1     -23.680  -8.983 -17.360  0.00  0.00     0.275 HD
HETATM   21  H           1     -23.140  -8.098 -16.005  0.00  0.00     0.275 HD
ENDBRANCH  14  18
ENDBRANCH   1  14
TORSDOF 9
ENDMDL
MODEL 6
REMARK VINA RESULT:      -5.7      1.746      2.493
REMARK  9 active torsions:
REMARK  status: ('A' for Active; 'I' for Inactive)
REMARK       I    between atoms: C_2  and  N_15 
REMARK    1  A    between atoms: C_2  and  C_8 
REMARK    2  A    between atoms: C_8  and  C_12 
REMARK    3  A    between atoms: C_8  and  N_10 
REMARK    4  A    between atoms: O_11  and  C_12 
REMARK    5  A    between atoms: C_13  and  C_21 
REMARK    6  A    between atoms: C_13  and  C_18 
REMARK    7  A    between atoms: N_15  and  C_19 
REMARK    8  A    between atoms: C_18  and  C_19 
REMARK    9  A    between atoms: C_19  and  C_20 
ROOT
HETATM    1  C           1     -26.681  -6.630 -19.922  0.00  0.00     0.251 C 
HETATM    2  H           1     -26.766  -7.484 -18.039  0.00  0.00     0.163 HD
HETATM    3  O           1     -26.931  -5.644 -20.575  0.00  0.00    -0.271 OA
HETATM    4  N           1     -26.976  -6.659 -18.586  0.00  0.00    -0.345 N 
ENDROOT
BRANCH   4   5
HETATM    5  C           1     -27.587  -5.507 -17.953  0.00  0.00     0.186 C 
BRANCH   5   6
HETATM    6  C           1     -29.102  -5.661 -17.973  0.00  0.00     0.046 C 
BRANCH   6   7
HETATM    7  C           1     -29.744  -4.329 -18.340  0.00  0.00     0.116 C 
BRANCH   7   8
HETATM    8  C           1     -30.897  -4.052 -17.407  0.00  0.00     0.172 C 
HETATM    9  O           1     -31.589  -3.021 -17.558  0.00  0.00    -0.648 OA
HETATM   10  O           1     -31.161  -4.852 -16.484  0.00  0.00    -0.648 OA
ENDBRANCH   7   8
ENDBRANCH   6   7
ENDBRANCH   5   6
BRANCH   5  11
HETATM   11  C           1     -27.111  -5.405 -16.524  0.00  0.00     0.196 C 
HETATM   12  O           1     -25.914  -5.634 -16.247  0.00  0.00    -0.646 OA
HETATM   13  O           1     -27.913  -5.091 -15.619  0.00  0.00    -0.646 OA
ENDBRANCH   5  11
ENDBRANCH   4   5
BRANCH   1  14
HETATM   14  C           1     -26.044  -7.828 -20.580  0.00  0.00     0.297 C 
BRANCH  14  15
HETATM   15  C           1     -25.014  -7.361 -21.600  0.00  0.00     0.206 C 
BRANCH  15  16
HETATM   16  O           1     -24.515  -8.468 -22.302  0.00  0.00    -0.398 OA
HETATM   17  H           1     -24.658  -8.299 -23.218  0.00  0.00     0.209 HD
ENDBRANCH  15  16
ENDBRANCH  14  15
BRANCH  14  18
HETATM   18  N           1     -27.100  -8.638 -21.272  0.00  0.00    -0.064 N 
HETATM   19  H           1     -28.034  -8.192 -21.126  0.00  0.00     0.275 HD
HETATM   20  H           1     -26.891  -8.682 -22.294  0.00  0.00     0.275 HD
HETATM   21  H           1     -27.111  -9.606 -20.877  0.00  0.00     0.275 HD
ENDBRANCH  14  18
ENDBRANCH   1  14
TORSDOF 9
ENDMDL
MODEL 7
REMARK VINA RESULT:      -5.7      1.860      5.909
REMARK  9 active torsions:
REMARK  status: ('A' for Active; 'I' for Inactive)
REMARK       I    between atoms: C_2  and  N_15 
REMARK    1  A    between atoms: C_2  and  C_8 
REMARK    2  A    between atoms: C_8  and  C_12 
REMARK    3  A    between atoms: C_8  and  N_10 
REMARK    4  A    between atoms: O_11  and  C_12 
REMARK    5  A    between atoms: C_13  and  C_21 
REMARK    6  A    between atoms: C_13  and  C_18 
REMARK    7  A    between atoms: N_15  and  C_19 
REMARK    8  A    between atoms: C_18  and  C_19 
REMARK    9  A    between atoms: C_19  and  C_20 
ROOT
HETATM    1  C           1     -29.361  -6.200 -17.525  0.00  0.00     0.251 C 
HETATM    2  H           1     -27.890  -4.746 -17.571  0.00  0.00     0.163 HD
HETATM    3  O           1     -29.579  -7.389 -17.522  0.00  0.00    -0.271 OA
HETATM    4  N           1     -28.072  -5.741 -17.568  0.00  0.00    -0.345 N 
ENDROOT
BRANCH   4   5
HETATM    5  C           1     -26.969  -6.681 -17.608  0.00  0.00     0.186 C 
BRANCH   5   6
HETATM    6  C           1     -26.059  -6.346 -18.782  0.00  0.00     0.046 C 
BRANCH   6   7
HETATM    7  C           1     -26.755  -6.716 -20.086  0.00  0.00     0.116 C 
BRANCH   7   8
HETATM    8  C           1     -25.956  -7.779 -20.799  0.00  0.00     0.172 C 
HETATM    9  O           1     -24.709  -7.788 -20.710  0.00  0.00    -0.648 OA
HETATM   10  O           1     -26.541  -8.649 -21.480  0.00  0.00    -0.648 OA
ENDBRANCH   7   8
ENDBRANCH   6   7
ENDBRANCH   5   6
BRANCH   5  11
HETATM   11  C           1     -26.184  -6.590 -16.322  0.00  0.00     0.196 C 
HETATM   12  O           1     -25.370  -5.658 -16.151  0.00  0.00    -0.646 OA
HETATM   13  O           1     -26.350  -7.448 -15.427  0.00  0.00    -0.646 OA
ENDBRANCH   5  11
ENDBRANCH   4   5
BRANCH   1  14
HETATM   14  C           1     -30.509  -5.222 -17.484  0.00  0.00     0.297 C 
BRANCH  14  15
HETATM   15  C           1     -30.002  -3.827 -17.824  0.00  0.00     0.206 C 
BRANCH  15  16
HETATM   16  O           1     -31.085  -3.009 -18.175  0.00  0.00    -0.398 OA
HETATM   17  H           1     -30.826  -2.120 -17.998  0.00  0.00     0.209 HD
ENDBRANCH  15  16
ENDBRANCH  14  15
BRANCH  14  18
HETATM   18  N           1     -31.109  -5.214 -16.109  0.00  0.00    -0.064 N 
HETATM   19  H           1     -32.032  -4.726 -16.134  0.00  0.00     0.275 HD
HETATM   20  H           1     -31.243  -6.196 -15.782  0.00  0.00     0.275 HD
HETATM   21  H           1     -30.468  -4.712 -15.453  0.00  0.00     0.275 HD
ENDBRANCH  14  18
ENDBRANCH   1  14
TORSDOF 9
ENDMDL
MODEL 8
REMARK VINA RESULT:      -5.5     11.784     13.289
REMARK  9 active torsions:
REMARK  status: ('A' for Active; 'I' for Inactive)
REMARK       I    between atoms: C_2  and  N_15 
REMARK    1  A    between atoms: C_2  and  C_8 
REMARK    2  A    between atoms: C_8  and  C_12 
REMARK    3  A    between atoms: C_8  and  N_10 
REMARK    4  A    between atoms: O_11  and  C_12 
REMARK    5  A    between atoms: C_13  and  C_21 
REMARK    6  A    between atoms: C_13  and  C_18 
REMARK    7  A    between atoms: N_15  and  C_19 
REMARK    8  A    between atoms: C_18  and  C_19 
REMARK    9  A    between atoms: C_19  and  C_20 
ROOT
HETATM    1  C           1     -23.110  -4.308  -9.001  0.00  0.00     0.251 C 
HETATM    2  H           1     -22.271  -6.199  -8.945  0.00  0.00     0.163 HD
HETATM    3  O           1     -23.028  -3.175  -8.588  0.00  0.00    -0.271 OA
HETATM    4  N           1     -22.202  -5.250  -8.599  0.00  0.00    -0.345 N 
ENDROOT
BRANCH   4   5
HETATM    5  C           1     -21.142  -4.890  -7.678  0.00  0.00     0.186 C 
BRANCH   5   6
HETATM    6  C           1     -20.885  -6.047  -6.722  0.00  0.00     0.046 C 
BRANCH   6   7
HETATM    7  C           1     -20.901  -5.535  -5.288  0.00  0.00     0.116 C 
BRANCH   7   8
HETATM    8  C           1     -21.764  -6.437  -4.440  0.00  0.00     0.172 C 
HETATM    9  O           1     -22.082  -7.571  -4.859  0.00  0.00    -0.648 OA
HETATM   10  O           1     -22.161  -6.051  -3.320  0.00  0.00    -0.648 OA
ENDBRANCH   7   8
ENDBRANCH   6   7
ENDBRANCH   5   6
BRANCH   5  11
HETATM   11  C           1     -19.883  -4.587  -8.453  0.00  0.00     0.196 C 
HETATM   12  O           1     -19.882  -4.669  -9.700  0.00  0.00    -0.646 OA
HETATM   13  O           1     -18.841  -4.254  -7.847  0.00  0.00    -0.646 OA
ENDBRANCH   5  11
ENDBRANCH   4   5
BRANCH   1  14
HETATM   14  C           1     -24.212  -4.684  -9.960  0.00  0.00     0.297 C 
BRANCH  14  15
HETATM   15  C           1     -23.648  -4.781 -11.371  0.00  0.00     0.206 C 
BRANCH  15  16
HETATM   16  O           1     -22.436  -4.081 -11.440  0.00  0.00    -0.398 OA
HETATM   17  H           1     -22.635  -3.173 -11.288  0.00  0.00     0.209 HD
ENDBRANCH  15  16
ENDBRANCH  14  15
BRANCH  14  18
HETATM   18  N           1     -25.286  -3.636  -9.922  0.00  0.00    -0.064 N 
HETATM   19  H           1     -24.911  -2.769  -9.475  0.00  0.00     0.275 HD
HETATM   20  H           1     -25.595  -3.420 -10.896  0.00  0.00     0.275 HD
HETATM   21  H           1     -26.099  -3.991  -9.369  0.00  0.00     0.275 HD
ENDBRANCH  14  18
ENDBRANCH   1  14
TORSDOF 9
ENDMDL
MODEL 9
REMARK VINA RESULT:      -5.5      2.430      5.505
REMARK  9 active torsions:
REMARK  status: ('A' for Active; 'I' for Inactive)
REMARK       I    between atoms: C_2  and  N_15 
REMARK    1  A    between atoms: C_2  and  C_8 
REMARK    2  A    between atoms: C_8  and  C_12 
REMARK    3  A    between atoms: C_8  and  N_10 
REMARK    4  A    between atoms: O_11  and  C_12 
REMARK    5  A    between atoms: C_13  and  C_21 
REMARK    6  A    between atoms: C_13  and  C_18 
REMARK    7  A    between atoms: N_15  and  C_19 
REMARK    8  A    between atoms: C_18  and  C_19 
REMARK    9  A    between atoms: C_19  and  C_20 
ROOT
HETATM    1  C           1     -28.361  -6.055 -18.415  0.00  0.00     0.251 C 
HETATM    2  H           1     -26.960  -7.575 -18.317  0.00  0.00     0.163 HD
HETATM    3  O           1     -28.906  -5.255 -19.139  0.00  0.00    -0.271 OA
HETATM    4  N           1     -27.416  -6.905 -18.923  0.00  0.00    -0.345 N 
ENDROOT
BRANCH   4   5
HETATM    5  C           1     -27.070  -6.847 -20.330  0.00  0.00     0.186 C 
BRANCH   5   6
HETATM    6  C           1     -25.600  -6.477 -20.475  0.00  0.00     0.046 C 
BRANCH   6   7
HETATM    7  C           1     -24.735  -7.586 -19.892  0.00  0.00     0.116 C 
BRANCH   7   8
HETATM    8  C           1     -24.018  -7.075 -18.667  0.00  0.00     0.172 C 
HETATM    9  O           1     -24.671  -6.745 -17.653  0.00  0.00    -0.648 OA
HETATM   10  O           1     -22.772  -6.982 -18.665  0.00  0.00    -0.648 OA
ENDBRANCH   7   8
ENDBRANCH   6   7
ENDBRANCH   5   6
BRANCH   5  11
HETATM   11  C           1     -27.315  -8.194 -20.965  0.00  0.00     0.196 C 
HETATM   12  O           1     -26.500  -8.652 -21.794  0.00  0.00    -0.646 OA
HETATM   13  O           1     -28.333  -8.852 -20.660  0.00  0.00    -0.646 OA
ENDBRANCH   5  11
ENDBRANCH   4   5
BRANCH   1  14
HETATM   14  C           1     -28.722  -6.116 -16.952  0.00  0.00     0.297 C 
BRANCH  14  15
HETATM   15  C           1     -27.946  -5.048 -16.192  0.00  0.00     0.206 C 
BRANCH  15  16
HETATM   16  O           1     -26.586  -5.135 -16.520  0.00  0.00    -0.398 OA
HETATM   17  H           1     -26.421  -4.483 -17.180  0.00  0.00     0.209 HD
ENDBRANCH  15  16
ENDBRANCH  14  15
BRANCH  14  18
HETATM   18  N           1     -28.374  -7.469 -16.406  0.00  0.00    -0.064 N 
HETATM   19  H           1     -28.738  -8.208 -17.049  0.00  0.00     0.275 HD
HETATM   20  H           1     -27.336  -7.556 -16.329  0.00  0.00     0.275 HD
HETATM   21  H           1     -28.805  -7.585 -15.461  0.00  0.00     0.275 HD
ENDBRANCH  14  18
ENDBRANCH   1  14
TORSDOF 9
ENDMDL
