MODEL 1
REMARK VINA RESULT:      -6.3      0.000      0.000
REMARK  10 active torsions:
REMARK  status: ('A' for Active; 'I' for Inactive)
REMARK    1  A    between atoms: N_7  and  C_14 
REMARK    2  A    between atoms: O_10  and  P_11 
REMARK    3  A    between atoms: P_11  and  O_12 
REMARK    4  A    between atoms: O_12  and  C_13 
REMARK    5  A    between atoms: C_13  and  C_14 
REMARK    6  A    between atoms: C_14  and  C_15 
REMARK       I    between atoms: C_15  and  N_16 
REMARK    7  A    between atoms: N_16  and  C_20 
REMARK    8  A    between atoms: C_19  and  C_20 
REMARK    9  A    between atoms: C_20  and  C_21 
REMARK   10  A    between atoms: C_21  and  C_23 
ROOT
HETATM    1  C           1     -25.744  -7.338 -19.786  0.00  0.00     0.298 C 
ENDROOT
BRANCH   1   2
HETATM    2  N           1     -25.105  -7.194 -21.136  0.00  0.00    -0.064 N 
HETATM    3  H           1     -24.390  -6.432 -21.102  0.00  0.00     0.275 HD
HETATM    4  H           1     -25.837  -6.956 -21.843  0.00  0.00     0.275 HD
HETATM    5  H           1     -24.644  -8.093 -21.401  0.00  0.00     0.275 HD
ENDBRANCH   1   2
BRANCH   1   6
HETATM    6  C           1     -24.725  -7.007 -18.705  0.00  0.00     0.224 C 
BRANCH   6   7
HETATM    7  O           1     -25.347  -6.277 -17.683  0.00  0.00    -0.287 OA
BRANCH   7   8
HETATM    8  P           1     -25.256  -6.914 -16.201  0.00  0.00     0.406 P 
HETATM    9  O           1     -24.866  -5.863 -15.235  0.00  0.00    -0.624 OA
HETATM   10  O           1     -24.246  -7.995 -16.192  0.00  0.00    -0.624 OA
BRANCH   8  11
HETATM   11  O           1     -26.695  -7.519 -15.785  0.00  0.00    -0.300 OA
HETATM   12  H           1     -27.316  -7.068 -16.330  0.00  0.00     0.223 HD
ENDBRANCH   8  11
ENDBRANCH   7   8
ENDBRANCH   6   7
ENDBRANCH   1   6
BRANCH   1  13
HETATM   13  C           1     -26.916  -6.395 -19.681  0.00  0.00     0.251 C 
HETATM   14  O           1     -27.093  -5.554 -20.530  0.00  0.00    -0.271 OA
HETATM   15  N           1     -27.781  -6.492 -18.624  0.00  0.00    -0.344 N 
HETATM   16  H           1     -27.633  -7.196 -17.913  0.00  0.00     0.163 HD
BRANCH  15  17
HETATM   17  C           1     -28.908  -5.586 -18.524  0.00  0.00     0.195 C 
BRANCH  17  18
HETATM   18  C           1     -28.651  -4.584 -17.425  0.00  0.00     0.197 C 
HETATM   19  O           1     -28.907  -3.373 -17.609  0.00  0.00    -0.646 OA
HETATM   20  O           1     -28.181  -4.962 -16.331  0.00  0.00    -0.646 OA
ENDBRANCH  17  18
BRANCH  17  21
HETATM   21  C           1     -30.169  -6.378 -18.204  0.00  0.00     0.149 C 
BRANCH  21  22
HETATM   22  C           1     -29.830  -7.845 -18.106  0.00  0.00     0.175 C 
HETATM   23  O           1     -29.416  -8.321 -17.027  0.00  0.00    -0.648 OA
HETATM   24  O           1     -29.964  -8.586 -19.105  0.00  0.00    -0.648 OA
ENDBRANCH  21  22
ENDBRANCH  17  21
ENDBRANCH  15  17
ENDBRANCH   1  13
TORSDOF 10
ENDMDL
MODEL 2
REMARK VINA RESULT:      -5.8      9.774     11.385
REMARK  10 active torsions:
REMARK  status: ('A' for Active; 'I' for Inactive)
REMARK    1  A    between atoms: N_7  and  C_14 
REMARK    2  A    between atoms: O_10  and  P_11 
REMARK    3  A    between atoms: P_11  and  O_12 
REMARK    4  A    between atoms: O_12  and  C_13 
REMARK    5  A    between atoms: C_13  and  C_14 
REMARK    6  A    between atoms: C_14  and  C_15 
REMARK       I    between atoms: C_15  and  N_16 
REMARK    7  A    between atoms: N_16  and  C_20 
REMARK    8  A    between atoms: C_19  and  C_20 
REMARK    9  A    between atoms: C_20  and  C_21 
REMARK   10  A    between atoms: C_21  and  C_23 
ROOT
HETATM    1  C           1     -33.555  -2.115 -11.278  0.00  0.00     0.298 C 
ENDROOT
BRANCH   1   2
HETATM    2  N           1     -34.217  -1.848  -9.958  0.00  0.00    -0.064 N 
HETATM    3  H           1     -34.723  -2.707  -9.643  0.00  0.00     0.275 HD
HETATM    4  H           1     -34.895  -1.060 -10.063  0.00  0.00     0.275 HD
HETATM    5  H           1     -33.492  -1.592  -9.251  0.00  0.00     0.275 HD
ENDBRANCH   1   2
BRANCH   1   6
HETATM    6  C           1     -33.066  -3.556 -11.317  0.00  0.00     0.224 C 
BRANCH   6   7
HETATM    7  O           1     -33.860  -4.343 -10.471  0.00  0.00    -0.287 OA
BRANCH   7   8
HETATM    8  P           1     -34.129  -5.859 -10.960  0.00  0.00     0.406 P 
HETATM    9  O           1     -35.037  -6.533 -10.005  0.00  0.00    -0.624 OA
HETATM   10  O           1     -32.845  -6.591 -11.024  0.00  0.00    -0.624 OA
BRANCH   8  11
HETATM   11  O           1     -34.810  -5.840 -12.426  0.00  0.00    -0.300 OA
HETATM   12  H           1     -34.496  -6.620 -12.850  0.00  0.00     0.223 HD
ENDBRANCH   8  11
ENDBRANCH   7   8
ENDBRANCH   6   7
ENDBRANCH   1   6
BRANCH   1  13
HETATM   13  C           1     -34.547  -1.889 -12.392  0.00  0.00     0.251 C 
HETATM   14  O           1     -34.659  -2.706 -13.275  0.00  0.00    -0.271 OA
HETATM   15  N           1     -35.320  -0.760 -12.402  0.00  0.00    -0.344 N 
HETATM   16  H           1     -35.225  -0.075 -11.663  0.00  0.00     0.163 HD
BRANCH  15  17
HETATM   17  C           1     -36.273  -0.543 -13.473  0.00  0.00     0.195 C 
BRANCH  17  18
HETATM   18  C           1     -35.727   0.488 -14.431  0.00  0.00     0.197 C 
HETATM   19  O           1     -36.151   0.536 -15.606  0.00  0.00    -0.646 OA
HETATM   20  O           1     -34.852   1.294 -14.050  0.00  0.00    -0.646 OA
ENDBRANCH  17  18
BRANCH  17  21
HETATM   21  C           1     -37.588  -0.047 -12.888  0.00  0.00     0.149 C 
BRANCH  21  22
HETATM   22  C           1     -37.592  -0.271 -11.395  0.00  0.00     0.175 C 
HETATM   23  O           1     -37.489   0.702 -10.617  0.00  0.00    -0.648 OA
HETATM   24  O           1     -37.698  -1.430 -10.937  0.00  0.00    -0.648 OA
ENDBRANCH  21  22
ENDBRANCH  17  21
ENDBRANCH  15  17
ENDBRANCH   1  13
TORSDOF 10
ENDMDL
MODEL 3
REMARK VINA RESULT:      -5.3     12.091     13.967
REMARK  10 active torsions:
REMARK  status: ('A' for Active; 'I' for Inactive)
REMARK    1  A    between atoms: N_7  and  C_14 
REMARK    2  A    between atoms: O_10  and  P_11 
REMARK    3  A    between atoms: P_11  and  O_12 
REMARK    4  A    between atoms: O_12  and  C_13 
REMARK    5  A    between atoms: C_13  and  C_14 
REMARK    6  A    between atoms: C_14  and  C_15 
REMARK       I    between atoms: C_15  and  N_16 
REMARK    7  A    between atoms: N_16  and  C_20 
REMARK    8  A    between atoms: C_19  and  C_20 
REMARK    9  A    between atoms: C_20  and  C_21 
REMARK   10  A    between atoms: C_21  and  C_23 
ROOT
HETATM    1  C           1     -21.285  -5.072  -6.669  0.00  0.00     0.298 C 
ENDROOT
BRANCH   1   2
HETATM    2  N           1     -20.482  -5.926  -7.607  0.00  0.00    -0.064 N 
HETATM    3  H           1     -21.126  -6.405  -8.277  0.00  0.00     0.275 HD
HETATM    4  H           1     -19.952  -6.640  -7.059  0.00  0.00     0.275 HD
HETATM    5  H           1     -19.812  -5.326  -8.137  0.00  0.00     0.275 HD
ENDBRANCH   1   2
BRANCH   1   6
HETATM    6  C           1     -22.381  -4.358  -7.447  0.00  0.00     0.224 C 
BRANCH   6   7
HETATM    7  O           1     -22.167  -4.530  -8.822  0.00  0.00    -0.287 OA
BRANCH   7   8
HETATM    8  P           1     -23.386  -4.094  -9.788  0.00  0.00     0.406 P 
HETATM    9  O           1     -23.948  -5.295 -10.446  0.00  0.00    -0.624 OA
HETATM   10  O           1     -22.888  -3.154 -10.816  0.00  0.00    -0.624 OA
BRANCH   8  11
HETATM   11  O           1     -24.537  -3.374  -8.913  0.00  0.00    -0.300 OA
HETATM   12  H           1     -24.503  -2.467  -9.166  0.00  0.00     0.223 HD
ENDBRANCH   8  11
ENDBRANCH   7   8
ENDBRANCH   6   7
ENDBRANCH   1   6
BRANCH   1  13
HETATM   13  C           1     -21.906  -5.942  -5.605  0.00  0.00     0.251 C 
HETATM   14  O           1     -23.102  -5.925  -5.434  0.00  0.00    -0.271 OA
HETATM   15  N           1     -21.116  -6.751  -4.834  0.00  0.00    -0.344 N 
HETATM   16  H           1     -20.114  -6.765  -4.977  0.00  0.00     0.163 HD
BRANCH  15  17
HETATM   17  C           1     -21.714  -7.588  -3.812  0.00  0.00     0.195 C 
BRANCH  17  18
HETATM   18  C           1     -21.566  -6.920  -2.467  0.00  0.00     0.197 C 
HETATM   19  O           1     -20.753  -7.372  -1.630  0.00  0.00    -0.646 OA
HETATM   20  O           1     -22.255  -5.915  -2.188  0.00  0.00    -0.646 OA
ENDBRANCH  17  18
BRANCH  17  21
HETATM   21  C           1     -21.013  -8.939  -3.788  0.00  0.00     0.149 C 
BRANCH  21  22
HETATM   22  C           1     -20.436  -9.231  -5.153  0.00  0.00     0.175 C 
HETATM   23  O           1     -19.275  -8.863  -5.432  0.00  0.00    -0.648 OA
HETATM   24  O           1     -21.120  -9.841  -6.003  0.00  0.00    -0.648 OA
ENDBRANCH  21  22
ENDBRANCH  17  21
ENDBRANCH  15  17
ENDBRANCH   1  13
TORSDOF 10
ENDMDL
MODEL 4
REMARK VINA RESULT:      -5.3      9.498     11.591
REMARK  10 active torsions:
REMARK  status: ('A' for Active; 'I' for Inactive)
REMARK    1  A    between atoms: N_7  and  C_14 
REMARK    2  A    between atoms: O_10  and  P_11 
REMARK    3  A    between atoms: P_11  and  O_12 
REMARK    4  A    between atoms: O_12  and  C_13 
REMARK    5  A    between atoms: C_13  and  C_14 
REMARK    6  A    between atoms: C_14  and  C_15 
REMARK       I    between atoms: C_15  and  N_16 
REMARK    7  A    between atoms: N_16  and  C_20 
REMARK    8  A    between atoms: C_19  and  C_20 
REMARK    9  A    between atoms: C_20  and  C_21 
REMARK   10  A    between atoms: C_21  and  C_23 
ROOT
HETATM    1  C           1     -33.774  -3.485 -11.652  0.00  0.00     0.298 C 
ENDROOT
BRANCH   1   2
HETATM    2  N           1     -33.723  -4.524 -10.570  0.00  0.00    -0.064 N 
HETATM    3  H           1     -32.733  -4.655 -10.261  0.00  0.00     0.275 HD
HETATM    4  H           1     -34.097  -5.427 -10.938  0.00  0.00     0.275 HD
HETATM    5  H           1     -34.302  -4.211  -9.759  0.00  0.00     0.275 HD
ENDBRANCH   1   2
BRANCH   1   6
HETATM    6  C           1     -33.671  -4.163 -13.011  0.00  0.00     0.224 C 
BRANCH   6   7
HETATM    7  O           1     -34.333  -3.387 -13.973  0.00  0.00    -0.287 OA
BRANCH   7   8
HETATM    8  P           1     -34.233  -3.912 -15.497  0.00  0.00     0.406 P 
HETATM    9  O           1     -32.814  -4.145 -15.847  0.00  0.00    -0.624 OA
HETATM   10  O           1     -34.807  -2.896 -16.406  0.00  0.00    -0.624 OA
BRANCH   8  11
HETATM   11  O           1     -35.057  -5.293 -15.647  0.00  0.00    -0.300 OA
HETATM   12  H           1     -34.439  -5.908 -16.002  0.00  0.00     0.223 HD
ENDBRANCH   8  11
ENDBRANCH   7   8
ENDBRANCH   6   7
ENDBRANCH   1   6
BRANCH   1  13
HETATM   13  C           1     -35.076  -2.729 -11.563  0.00  0.00     0.251 C 
HETATM   14  O           1     -36.032  -3.235 -11.025  0.00  0.00    -0.271 OA
HETATM   15  N           1     -35.175  -1.470 -12.089  0.00  0.00    -0.344 N 
HETATM   16  H           1     -34.374  -1.046 -12.539  0.00  0.00     0.163 HD
BRANCH  15  17
HETATM   17  C           1     -36.427  -0.743 -12.001  0.00  0.00     0.195 C 
BRANCH  17  18
HETATM   18  C           1     -36.844  -0.295 -13.381  0.00  0.00     0.197 C 
HETATM   19  O           1     -36.133   0.512 -14.019  0.00  0.00    -0.646 OA
HETATM   20  O           1     -37.901  -0.731 -13.887  0.00  0.00    -0.646 OA
ENDBRANCH  17  18
BRANCH  17  21
HETATM   21  C           1     -36.245   0.475 -11.105  0.00  0.00     0.149 C 
BRANCH  21  22
HETATM   22  C           1     -37.196   0.386  -9.936  0.00  0.00     0.175 C 
HETATM   23  O           1     -37.116  -0.573  -9.137  0.00  0.00    -0.648 OA
HETATM   24  O           1     -38.062   1.271  -9.766  0.00  0.00    -0.648 OA
ENDBRANCH  21  22
ENDBRANCH  17  21
ENDBRANCH  15  17
ENDBRANCH   1  13
TORSDOF 10
ENDMDL
MODEL 5
REMARK VINA RESULT:      -5.3     10.206     11.915
REMARK  10 active torsions:
REMARK  status: ('A' for Active; 'I' for Inactive)
REMARK    1  A    between atoms: N_7  and  C_14 
REMARK    2  A    between atoms: O_10  and  P_11 
REMARK    3  A    between atoms: P_11  and  O_12 
REMARK    4  A    between atoms: O_12  and  C_13 
REMARK    5  A    between atoms: C_13  and  C_14 
REMARK    6  A    between atoms: C_14  and  C_15 
REMARK       I    between atoms: C_15  and  N_16 
REMARK    7  A    between atoms: N_16  and  C_20 
REMARK    8  A    between atoms: C_19  and  C_20 
REMARK    9  A    between atoms: C_20  and  C_21 
REMARK   10  A    between atoms: C_21  and  C_23 
ROOT
HETATM    1  C           1     -21.209  -5.975  -7.119  0.00  0.00     0.298 C 
ENDROOT
BRANCH   1   2
HETATM    2  N           1     -19.734  -6.003  -7.393  0.00  0.00    -0.064 N 
HETATM    3  H           1     -19.331  -6.898  -7.033  0.00  0.00     0.275 HD
HETATM    4  H           1     -19.277  -5.195  -6.913  0.00  0.00     0.275 HD
HETATM    5  H           1     -19.570  -5.936  -8.422  0.00  0.00     0.275 HD
ENDBRANCH   1   2
BRANCH   1   6
HETATM    6  C           1     -21.446  -5.987  -5.615  0.00  0.00     0.224 C 
BRANCH   6   7
HETATM    7  O           1     -22.083  -7.182  -5.251  0.00  0.00    -0.287 OA
BRANCH   7   8
HETATM    8  P           1     -21.113  -8.411  -4.858  0.00  0.00     0.406 P 
HETATM    9  O           1     -21.542  -8.984  -3.563  0.00  0.00    -0.624 OA
HETATM   10  O           1     -19.720  -7.924  -4.747  0.00  0.00    -0.624 OA
BRANCH   8  11
HETATM   11  O           1     -21.193  -9.549  -6.002  0.00  0.00    -0.300 OA
HETATM   12  H           1     -20.792  -9.161  -6.760  0.00  0.00     0.223 HD
ENDBRANCH   8  11
ENDBRANCH   7   8
ENDBRANCH   6   7
ENDBRANCH   1   6
BRANCH   1  13
HETATM   13  C           1     -21.808  -4.725  -7.714  0.00  0.00     0.251 C 
HETATM   14  O           1     -21.699  -3.670  -7.136  0.00  0.00    -0.271 OA
HETATM   15  N           1     -22.472  -4.785  -8.909  0.00  0.00    -0.344 N 
HETATM   16  H           1     -22.563  -5.669  -9.393  0.00  0.00     0.163 HD
BRANCH  15  17
HETATM   17  C           1     -23.046  -3.583  -9.481  0.00  0.00     0.195 C 
BRANCH  17  18
HETATM   18  C           1     -24.404  -3.901 -10.058  0.00  0.00     0.197 C 
HETATM   19  O           1     -24.986  -4.961  -9.741  0.00  0.00    -0.646 OA
HETATM   20  O           1     -24.948  -3.104 -10.853  0.00  0.00    -0.646 OA
ENDBRANCH  17  18
BRANCH  17  21
HETATM   21  C           1     -22.135  -3.061 -10.584  0.00  0.00     0.149 C 
BRANCH  21  22
HETATM   22  C           1     -21.423  -4.219 -11.240  0.00  0.00     0.175 C 
HETATM   23  O           1     -22.016  -4.915 -12.094  0.00  0.00    -0.648 OA
HETATM   24  O           1     -20.242  -4.484 -10.930  0.00  0.00    -0.648 OA
ENDBRANCH  21  22
ENDBRANCH  17  21
ENDBRANCH  15  17
ENDBRANCH   1  13
TORSDOF 10
ENDMDL
MODEL 6
REMARK VINA RESULT:      -5.2     10.044     11.805
REMARK  10 active torsions:
REMARK  status: ('A' for Active; 'I' for Inactive)
REMARK    1  A    between atoms: N_7  and  C_14 
REMARK    2  A    between atoms: O_10  and  P_11 
REMARK    3  A    between atoms: P_11  and  O_12 
REMARK    4  A    between atoms: O_12  and  C_13 
REMARK    5  A    between atoms: C_13  and  C_14 
REMARK    6  A    between atoms: C_14  and  C_15 
REMARK       I    between atoms: C_15  and  N_16 
REMARK    7  A    between atoms: N_16  and  C_20 
REMARK    8  A    between atoms: C_19  and  C_20 
REMARK    9  A    between atoms: C_20  and  C_21 
REMARK   10  A    between atoms: C_21  and  C_23 
ROOT
HETATM    1  C           1     -21.943  -4.375  -6.815  0.00  0.00     0.298 C 
ENDROOT
BRANCH   1   2
HETATM    2  N           1     -23.408  -4.610  -6.590  0.00  0.00    -0.064 N 
HETATM    3  H           1     -23.860  -4.879  -7.494  0.00  0.00     0.275 HD
HETATM    4  H           1     -23.849  -3.735  -6.227  0.00  0.00     0.275 HD
HETATM    5  H           1     -23.535  -5.379  -5.895  0.00  0.00     0.275 HD
ENDBRANCH   1   2
BRANCH   1   6
HETATM    6  C           1     -21.138  -5.257  -5.871  0.00  0.00     0.224 C 
BRANCH   6   7
HETATM    7  O           1     -21.901  -6.379  -5.515  0.00  0.00    -0.287 OA
BRANCH   7   8
HETATM    8  P           1     -21.175  -7.449  -4.547  0.00  0.00     0.406 P 
HETATM    9  O           1     -21.992  -8.681  -4.474  0.00  0.00    -0.624 OA
HETATM   10  O           1     -21.030  -6.870  -3.193  0.00  0.00    -0.624 OA
BRANCH   8  11
HETATM   11  O           1     -19.715  -7.807  -5.137  0.00  0.00    -0.300 OA
HETATM   12  H           1     -19.440  -7.032  -5.595  0.00  0.00     0.223 HD
ENDBRANCH   8  11
ENDBRANCH   7   8
ENDBRANCH   6   7
ENDBRANCH   1   6
BRANCH   1  13
HETATM   13  C           1     -21.593  -4.712  -8.243  0.00  0.00     0.251 C 
HETATM   14  O           1     -20.665  -5.448  -8.479  0.00  0.00    -0.271 OA
HETATM   15  N           1     -22.328  -4.186  -9.271  0.00  0.00    -0.344 N 
HETATM   16  H           1     -23.106  -3.570  -9.073  0.00  0.00     0.163 HD
BRANCH  15  17
HETATM   17  C           1     -21.992  -4.511 -10.643  0.00  0.00     0.195 C 
BRANCH  17  18
HETATM   18  C           1     -21.206  -3.375 -11.250  0.00  0.00     0.197 C 
HETATM   19  O           1     -19.956  -3.413 -11.258  0.00  0.00    -0.646 OA
HETATM   20  O           1     -21.803  -2.396 -11.746  0.00  0.00    -0.646 OA
ENDBRANCH  17  18
BRANCH  17  21
HETATM   21  C           1     -23.271  -4.728 -11.441  0.00  0.00     0.149 C 
BRANCH  21  22
HETATM   22  C           1     -24.454  -4.249 -10.636  0.00  0.00     0.175 C 
HETATM   23  O           1     -24.961  -4.992  -9.767  0.00  0.00    -0.648 OA
HETATM   24  O           1     -24.928  -3.110 -10.837  0.00  0.00    -0.648 OA
ENDBRANCH  21  22
ENDBRANCH  17  21
ENDBRANCH  15  17
ENDBRANCH   1  13
TORSDOF 10
ENDMDL
MODEL 7
REMARK VINA RESULT:      -5.1     12.215     14.280
REMARK  10 active torsions:
REMARK  status: ('A' for Active; 'I' for Inactive)
REMARK    1  A    between atoms: N_7  and  C_14 
REMARK    2  A    between atoms: O_10  and  P_11 
REMARK    3  A    between atoms: P_11  and  O_12 
REMARK    4  A    between atoms: O_12  and  C_13 
REMARK    5  A    between atoms: C_13  and  C_14 
REMARK    6  A    between atoms: C_14  and  C_15 
REMARK       I    between atoms: C_15  and  N_16 
REMARK    7  A    between atoms: N_16  and  C_20 
REMARK    8  A    between atoms: C_19  and  C_20 
REMARK    9  A    between atoms: C_20  and  C_21 
REMARK   10  A    between atoms: C_21  and  C_23 
ROOT
HETATM    1  C           1     -22.431  -5.191  -6.922  0.00  0.00     0.298 C 
ENDROOT
BRANCH   1   2
HETATM    2  N           1     -23.789  -4.912  -6.347  0.00  0.00    -0.064 N 
HETATM    3  H           1     -24.365  -4.396  -7.050  0.00  0.00     0.275 HD
HETATM    4  H           1     -23.688  -4.332  -5.483  0.00  0.00     0.275 HD
HETATM    5  H           1     -24.258  -5.814  -6.107  0.00  0.00     0.275 HD
ENDBRANCH   1   2
BRANCH   1   6
HETATM    6  C           1     -21.885  -3.925  -7.568  0.00  0.00     0.224 C 
BRANCH   6   7
HETATM    7  O           1     -21.734  -4.131  -8.946  0.00  0.00    -0.287 OA
BRANCH   7   8
HETATM    8  P           1     -23.053  -3.885  -9.847  0.00  0.00     0.406 P 
HETATM    9  O           1     -23.592  -5.187 -10.298  0.00  0.00    -0.624 OA
HETATM   10  O           1     -22.698  -3.061 -11.024  0.00  0.00    -0.624 OA
BRANCH   8  11
HETATM   11  O           1     -24.170  -3.116  -8.970  0.00  0.00    -0.300 OA
HETATM   12  H           1     -24.885  -3.724  -8.898  0.00  0.00     0.223 HD
ENDBRANCH   8  11
ENDBRANCH   7   8
ENDBRANCH   6   7
ENDBRANCH   1   6
BRANCH   1  13
HETATM   13  C           1     -21.501  -5.638  -5.822  0.00  0.00     0.251 C 
HETATM   14  O           1     -20.666  -4.879  -5.391  0.00  0.00    -0.271 OA
HETATM   15  N           1     -21.604  -6.903  -5.310  0.00  0.00    -0.344 N 
HETATM   16  H           1     -22.303  -7.540  -5.671  0.00  0.00     0.163 HD
BRANCH  15  17
HETATM   17  C           1     -20.710  -7.333  -4.252  0.00  0.00     0.195 C 
BRANCH  17  18
HETATM   18  C           1     -19.707  -8.312  -4.809  0.00  0.00     0.197 C 
HETATM   19  O           1     -19.361  -8.240  -6.009  0.00  0.00    -0.646 OA
HETATM   20  O           1     -19.220  -9.196  -4.072  0.00  0.00    -0.646 OA
ENDBRANCH  17  18
BRANCH  17  21
HETATM   21  C           1     -21.517  -8.003  -3.148  0.00  0.00     0.149 C 
BRANCH  21  22
HETATM   22  C           1     -21.903  -6.976  -2.112  0.00  0.00     0.175 C 
HETATM   23  O           1     -22.389  -5.881  -2.468  0.00  0.00    -0.648 OA
HETATM   24  O           1     -21.738  -7.221  -0.897  0.00  0.00    -0.648 OA
ENDBRANCH  21  22
ENDBRANCH  17  21
ENDBRANCH  15  17
ENDBRANCH   1  13
TORSDOF 10
ENDMDL
MODEL 8
REMARK VINA RESULT:      -5.1     11.405     13.459
REMARK  10 active torsions:
REMARK  status: ('A' for Active; 'I' for Inactive)
REMARK    1  A    between atoms: N_7  and  C_14 
REMARK    2  A    between atoms: O_10  and  P_11 
REMARK    3  A    between atoms: P_11  and  O_12 
REMARK    4  A    between atoms: O_12  and  C_13 
REMARK    5  A    between atoms: C_13  and  C_14 
REMARK    6  A    between atoms: C_14  and  C_15 
REMARK       I    between atoms: C_15  and  N_16 
REMARK    7  A    between atoms: N_16  and  C_20 
REMARK    8  A    between atoms: C_19  and  C_20 
REMARK    9  A    between atoms: C_20  and  C_21 
REMARK   10  A    between atoms: C_21  and  C_23 
ROOT
HETATM    1  C           1     -20.990  -4.124  -8.025  0.00  0.00     0.298 C 
ENDROOT
BRANCH   1   2
HETATM    2  N           1     -20.212  -4.794  -9.120  0.00  0.00    -0.064 N 
HETATM    3  H           1     -20.467  -4.366 -10.039  0.00  0.00     0.275 HD
HETATM    4  H           1     -20.439  -5.813  -9.133  0.00  0.00     0.275 HD
HETATM    5  H           1     -19.190  -4.667  -8.949  0.00  0.00     0.275 HD
ENDBRANCH   1   2
BRANCH   1   6
HETATM    6  C           1     -22.475  -4.170  -8.358  0.00  0.00     0.224 C 
BRANCH   6   7
HETATM    7  O           1     -22.661  -4.838  -9.576  0.00  0.00    -0.287 OA
BRANCH   7   8
HETATM    8  P           1     -23.114  -3.919 -10.825  0.00  0.00     0.406 P 
HETATM    9  O           1     -22.021  -2.983 -11.172  0.00  0.00    -0.624 OA
HETATM   10  O           1     -24.325  -3.153 -10.459  0.00  0.00    -0.624 OA
BRANCH   8  11
HETATM   11  O           1     -23.438  -4.861 -12.098  0.00  0.00    -0.300 OA
HETATM   12  H           1     -22.597  -5.153 -12.405  0.00  0.00     0.223 HD
ENDBRANCH   8  11
ENDBRANCH   7   8
ENDBRANCH   6   7
ENDBRANCH   1   6
BRANCH   1  13
HETATM   13  C           1     -20.742  -4.841  -6.721  0.00  0.00     0.251 C 
HETATM   14  O           1     -20.270  -4.242  -5.784  0.00  0.00    -0.271 OA
HETATM   15  N           1     -21.054  -6.168  -6.599  0.00  0.00    -0.344 N 
HETATM   16  H           1     -21.449  -6.669  -7.384  0.00  0.00     0.163 HD
BRANCH  15  17
HETATM   17  C           1     -20.817  -6.856  -5.345  0.00  0.00     0.195 C 
BRANCH  17  18
HETATM   18  C           1     -20.363  -8.267  -5.625  0.00  0.00     0.197 C 
HETATM   19  O           1     -21.207  -9.176  -5.784  0.00  0.00    -0.646 OA
HETATM   20  O           1     -19.143  -8.529  -5.698  0.00  0.00    -0.646 OA
ENDBRANCH  17  18
BRANCH  17  21
HETATM   21  C           1     -22.105  -6.888  -4.533  0.00  0.00     0.149 C 
BRANCH  21  22
HETATM   22  C           1     -21.785  -6.667  -3.074  0.00  0.00     0.175 C 
HETATM   23  O           1     -20.849  -7.298  -2.537  0.00  0.00    -0.648 OA
HETATM   24  O           1     -22.457  -5.855  -2.403  0.00  0.00    -0.648 OA
ENDBRANCH  21  22
ENDBRANCH  17  21
ENDBRANCH  15  17
ENDBRANCH   1  13
TORSDOF 10
ENDMDL
MODEL 9
REMARK VINA RESULT:      -4.9      1.467      2.103
REMARK  10 active torsions:
REMARK  status: ('A' for Active; 'I' for Inactive)
REMARK    1  A    between atoms: N_7  and  C_14 
REMARK    2  A    between atoms: O_10  and  P_11 
REMARK    3  A    between atoms: P_11  and  O_12 
REMARK    4  A    between atoms: O_12  and  C_13 
REMARK    5  A    between atoms: C_13  and  C_14 
REMARK    6  A    between atoms: C_14  and  C_15 
REMARK       I    between atoms: C_15  and  N_16 
REMARK    7  A    between atoms: N_16  and  C_20 
REMARK    8  A    between atoms: C_19  and  C_20 
REMARK    9  A    between atoms: C_20  and  C_21 
REMARK   10  A    between atoms: C_21  and  C_23 
ROOT
HETATM    1  C           1     -26.465  -7.282 -19.532  0.00  0.00     0.298 C 
ENDROOT
BRANCH   1   2
HETATM    2  N           1     -26.128  -7.433 -20.986  0.00  0.00    -0.064 N 
HETATM    3  H           1     -25.714  -6.541 -21.341  0.00  0.00     0.275 HD
HETATM    4  H           1     -26.997  -7.654 -21.523  0.00  0.00     0.275 HD
HETATM    5  H           1     -25.438  -8.208 -21.105  0.00  0.00     0.275 HD
ENDBRANCH   1   2
BRANCH   1   6
HETATM    6  C           1     -25.192  -7.008 -18.742  0.00  0.00     0.224 C 
BRANCH   6   7
HETATM    7  O           1     -25.488  -6.179 -17.651  0.00  0.00    -0.287 OA
BRANCH   7   8
HETATM    8  P           1     -25.326  -6.848 -16.189  0.00  0.00     0.406 P 
HETATM    9  O           1     -24.864  -5.824 -15.226  0.00  0.00    -0.624 OA
HETATM   10  O           1     -24.337  -7.946 -16.257  0.00  0.00    -0.624 OA
BRANCH   8  11
HETATM   11  O           1     -26.751  -7.437 -15.705  0.00  0.00    -0.300 OA
HETATM   12  H           1     -27.308  -7.379 -16.462  0.00  0.00     0.223 HD
ENDBRANCH   8  11
ENDBRANCH   7   8
ENDBRANCH   6   7
ENDBRANCH   1   6
BRANCH   1  13
HETATM   13  C           1     -27.426  -6.133 -19.354  0.00  0.00     0.251 C 
HETATM   14  O           1     -27.575  -5.328 -20.243  0.00  0.00    -0.271 OA
HETATM   15  N           1     -28.131  -6.003 -18.189  0.00  0.00    -0.344 N 
HETATM   16  H           1     -28.006  -6.677 -17.444  0.00  0.00     0.163 HD
BRANCH  15  17
HETATM   17  C           1     -29.055  -4.899 -18.019  0.00  0.00     0.195 C 
BRANCH  17  18
HETATM   18  C           1     -28.547  -3.980 -16.936  0.00  0.00     0.197 C 
HETATM   19  O           1     -28.536  -2.743 -17.118  0.00  0.00    -0.646 OA
HETATM   20  O           1     -28.136  -4.454 -15.855  0.00  0.00    -0.646 OA
ENDBRANCH  17  18
BRANCH  17  21
HETATM   21  C           1     -30.424  -5.438 -17.627  0.00  0.00     0.149 C 
BRANCH  21  22
HETATM   22  C           1     -31.343  -4.288 -17.295  0.00  0.00     0.175 C 
HETATM   23  O           1     -31.486  -3.348 -18.107  0.00  0.00    -0.648 OA
HETATM   24  O           1     -31.960  -4.274 -16.208  0.00  0.00    -0.648 OA
ENDBRANCH  21  22
ENDBRANCH  17  21
ENDBRANCH  15  17
ENDBRANCH   1  13
TORSDOF 10
ENDMDL
