MODEL 1
REMARK VINA RESULT:      -6.3      0.000      0.000
REMARK  9 active torsions:
REMARK  status: ('A' for Active; 'I' for Inactive)
REMARK       I    between atoms: N_2  and  C_3 
REMARK    1  A    between atoms: C_3  and  C_4 
REMARK    2  A    between atoms: C_4  and  C_5 
REMARK    3  A    between atoms: C_5  and  C_6 
REMARK    4  A    between atoms: C_5  and  N_20 
REMARK       I    between atoms: C_6  and  N_7 
REMARK    5  A    between atoms: N_7  and  C_11 
REMARK    6  A    between atoms: C_10  and  C_11 
REMARK    7  A    between atoms: C_11  and  C_12 
REMARK    8  A    between atoms: C_12  and  C_13 
REMARK    9  A    between atoms: C_13  and  C_15 
REMARK       I    between atoms: N_14  and  C_15 
ROOT
HETATM    1  C           1     -34.271  -2.504 -12.442  0.00  0.00     0.249 C 
HETATM    2  N           1     -34.923  -1.336 -12.149  0.00  0.00    -0.345 N 
HETATM    3  O           1     -34.464  -3.053 -13.500  0.00  0.00    -0.271 OA
HETATM    4  H           1     -34.762  -0.875 -11.262  0.00  0.00     0.163 HD
ENDROOT
BRANCH   1   5
HETATM    5  C           1     -33.312  -3.103 -11.443  0.00  0.00     0.283 C 
BRANCH   5   6
HETATM    6  C           1     -32.861  -4.474 -11.932  0.00  0.00     0.145 C 
BRANCH   6   7
HETATM    7  C           1     -33.893  -5.508 -11.555  0.00  0.00     0.217 C 
HETATM    8  O           1     -33.865  -6.017 -10.459  0.00  0.00    -0.274 OA
HETATM    9  N           1     -34.860  -5.870 -12.454  0.00  0.00    -0.370 N 
HETATM   10  H           1     -35.552  -6.564 -12.202  0.00  0.00     0.159 HD
HETATM   11  H           1     -34.882  -5.444 -13.372  0.00  0.00     0.159 HD
ENDBRANCH   6   7
ENDBRANCH   5   6
BRANCH   5  12
HETATM   12  N           1     -33.997  -3.247 -10.117  0.00  0.00    -0.066 N 
HETATM   13  H           1     -33.501  -3.966  -9.543  0.00  0.00     0.275 HD
HETATM   14  H           1     -33.981  -2.330  -9.616  0.00  0.00     0.275 HD
HETATM   15  H           1     -34.987  -3.545 -10.267  0.00  0.00     0.275 HD
ENDBRANCH   5  12
ENDBRANCH   1   5
BRANCH   2  16
HETATM   16  C           1     -35.844  -0.759 -13.108  0.00  0.00     0.186 C 
BRANCH  16  17
HETATM   17  C           1     -35.102   0.205 -14.000  0.00  0.00     0.196 C 
HETATM   18  O           1     -34.717   1.305 -13.548  0.00  0.00    -0.646 OA
HETATM   19  O           1     -34.870  -0.097 -15.191  0.00  0.00    -0.646 OA
ENDBRANCH  16  17
BRANCH  16  20
HETATM   20  C           1     -36.950  -0.018 -12.368  0.00  0.00     0.045 C 
BRANCH  20  21
HETATM   21  C           1     -37.173  -0.664 -11.007  0.00  0.00     0.105 C 
BRANCH  21  22
HETATM   22  C           1     -37.199   0.404  -9.941  0.00  0.00     0.215 C 
HETATM   23  N           1     -36.230   0.429  -8.974  0.00  0.00    -0.370 N 
HETATM   24  H           1     -35.497  -0.268  -8.974  0.00  0.00     0.159 HD
HETATM   25  H           1     -36.247   1.145  -8.259  0.00  0.00     0.159 HD
HETATM   26  O           1     -38.075   1.236  -9.940  0.00  0.00    -0.274 OA
ENDBRANCH  21  22
ENDBRANCH  20  21
ENDBRANCH  16  20
ENDBRANCH   2  16
TORSDOF 9
ENDMDL
MODEL 2
REMARK VINA RESULT:      -6.0     14.057     16.522
REMARK  9 active torsions:
REMARK  status: ('A' for Active; 'I' for Inactive)
REMARK       I    between atoms: N_2  and  C_3 
REMARK    1  A    between atoms: C_3  and  C_4 
REMARK    2  A    between atoms: C_4  and  C_5 
REMARK    3  A    between atoms: C_5  and  C_6 
REMARK    4  A    between atoms: C_5  and  N_20 
REMARK       I    between atoms: C_6  and  N_7 
REMARK    5  A    between atoms: N_7  and  C_11 
REMARK    6  A    between atoms: C_10  and  C_11 
REMARK    7  A    between atoms: C_11  and  C_12 
REMARK    8  A    between atoms: C_12  and  C_13 
REMARK    9  A    between atoms: C_13  and  C_15 
REMARK       I    between atoms: N_14  and  C_15 
ROOT
HETATM    1  C           1     -21.140  -5.096  -6.959  0.00  0.00     0.249 C 
HETATM    2  N           1     -21.385  -6.326  -6.411  0.00  0.00    -0.345 N 
HETATM    3  O           1     -20.483  -4.285  -6.350  0.00  0.00    -0.271 OA
HETATM    4  H           1     -21.935  -7.007  -6.920  0.00  0.00     0.163 HD
ENDROOT
BRANCH   1   5
HETATM    5  C           1     -21.688  -4.754  -8.322  0.00  0.00     0.283 C 
BRANCH   5   6
HETATM    6  C           1     -20.552  -4.291  -9.224  0.00  0.00     0.145 C 
BRANCH   6   7
HETATM    7  C           1     -21.074  -4.078 -10.624  0.00  0.00     0.217 C 
HETATM    8  O           1     -22.121  -4.579 -10.960  0.00  0.00    -0.274 OA
HETATM    9  N           1     -20.361  -3.319 -11.513  0.00  0.00    -0.370 N 
HETATM   10  H           1     -20.711  -3.176 -12.451  0.00  0.00     0.159 HD
HETATM   11  H           1     -19.484  -2.901 -11.231  0.00  0.00     0.159 HD
ENDBRANCH   6   7
ENDBRANCH   5   6
BRANCH   5  12
HETATM   12  N           1     -22.701  -3.656  -8.191  0.00  0.00    -0.066 N 
HETATM   13  H           1     -23.583  -3.934  -8.680  0.00  0.00     0.275 HD
HETATM   14  H           1     -22.903  -3.487  -7.180  0.00  0.00     0.275 HD
HETATM   15  H           1     -22.326  -2.782  -8.623  0.00  0.00     0.275 HD
ENDBRANCH   5  12
ENDBRANCH   1   5
BRANCH   2  16
HETATM   16  C           1     -20.858  -6.657  -5.101  0.00  0.00     0.186 C 
BRANCH  16  17
HETATM   17  C           1     -20.213  -8.020  -5.149  0.00  0.00     0.196 C 
HETATM   18  O           1     -20.605  -8.924  -4.379  0.00  0.00    -0.646 OA
HETATM   19  O           1     -19.287  -8.246  -5.958  0.00  0.00    -0.646 OA
ENDBRANCH  16  17
BRANCH  16  20
HETATM   20  C           1     -21.992  -6.666  -4.085  0.00  0.00     0.045 C 
BRANCH  20  21
HETATM   21  C           1     -21.504  -6.064  -2.773  0.00  0.00     0.105 C 
BRANCH  21  22
HETATM   22  C           1     -21.834  -7.001  -1.636  0.00  0.00     0.215 C 
HETATM   23  N           1     -21.120  -8.157  -1.475  0.00  0.00    -0.370 N 
HETATM   24  H           1     -20.371  -8.384  -2.117  0.00  0.00     0.159 HD
HETATM   25  H           1     -21.340  -8.786  -0.712  0.00  0.00     0.159 HD
HETATM   26  O           1     -22.727  -6.730  -0.870  0.00  0.00    -0.274 OA
ENDBRANCH  21  22
ENDBRANCH  20  21
ENDBRANCH  16  20
ENDBRANCH   2  16
TORSDOF 9
ENDMDL
MODEL 3
REMARK VINA RESULT:      -5.9     13.740     16.483
REMARK  9 active torsions:
REMARK  status: ('A' for Active; 'I' for Inactive)
REMARK       I    between atoms: N_2  and  C_3 
REMARK    1  A    between atoms: C_3  and  C_4 
REMARK    2  A    between atoms: C_4  and  C_5 
REMARK    3  A    between atoms: C_5  and  C_6 
REMARK    4  A    between atoms: C_5  and  N_20 
REMARK       I    between atoms: C_6  and  N_7 
REMARK    5  A    between atoms: N_7  and  C_11 
REMARK    6  A    between atoms: C_10  and  C_11 
REMARK    7  A    between atoms: C_11  and  C_12 
REMARK    8  A    between atoms: C_12  and  C_13 
REMARK    9  A    between atoms: C_13  and  C_15 
REMARK       I    between atoms: N_14  and  C_15 
ROOT
HETATM    1  C           1     -20.668  -4.799  -6.191  0.00  0.00     0.249 C 
HETATM    2  N           1     -21.352  -5.937  -5.857  0.00  0.00    -0.345 N 
HETATM    3  O           1     -19.788  -4.391  -5.471  0.00  0.00    -0.271 OA
HETATM    4  H           1     -22.090  -6.281  -6.459  0.00  0.00     0.163 HD
ENDROOT
BRANCH   1   5
HETATM    5  C           1     -21.014  -4.057  -7.459  0.00  0.00     0.283 C 
BRANCH   5   6
HETATM    6  C           1     -22.090  -4.822  -8.218  0.00  0.00     0.145 C 
BRANCH   6   7
HETATM    7  C           1     -22.885  -3.862  -9.068  0.00  0.00     0.217 C 
HETATM    8  O           1     -22.384  -3.368 -10.051  0.00  0.00    -0.274 OA
HETATM    9  N           1     -24.174  -3.551  -8.728  0.00  0.00    -0.370 N 
HETATM   10  H           1     -24.708  -2.908  -9.298  0.00  0.00     0.159 HD
HETATM   11  H           1     -24.593  -3.965  -7.905  0.00  0.00     0.159 HD
ENDBRANCH   6   7
ENDBRANCH   5   6
BRANCH   5  12
HETATM   12  N           1     -19.788  -3.937  -8.316  0.00  0.00    -0.066 N 
HETATM   13  H           1     -19.632  -4.834  -8.829  0.00  0.00     0.275 HD
HETATM   14  H           1     -19.919  -3.161  -9.003  0.00  0.00     0.275 HD
HETATM   15  H           1     -18.960  -3.734  -7.713  0.00  0.00     0.275 HD
ENDBRANCH   5  12
ENDBRANCH   1   5
BRANCH   2  16
HETATM   16  C           1     -21.021  -6.652  -4.640  0.00  0.00     0.186 C 
BRANCH  16  17
HETATM   17  C           1     -20.654  -8.076  -4.978  0.00  0.00     0.196 C 
HETATM   18  O           1     -19.678  -8.309  -5.724  0.00  0.00    -0.646 OA
HETATM   19  O           1     -21.325  -9.023  -4.513  0.00  0.00    -0.646 OA
ENDBRANCH  16  17
BRANCH  16  20
HETATM   20  C           1     -22.222  -6.645  -3.703  0.00  0.00     0.045 C 
BRANCH  20  21
HETATM   21  C           1     -21.789  -6.165  -2.325  0.00  0.00     0.105 C 
BRANCH  21  22
HETATM   22  C           1     -22.066  -7.243  -1.305  0.00  0.00     0.215 C 
HETATM   23  N           1     -21.449  -8.460  -1.413  0.00  0.00    -0.370 N 
HETATM   24  H           1     -20.808  -8.637  -2.176  0.00  0.00     0.159 HD
HETATM   25  H           1     -21.635  -9.184  -0.730  0.00  0.00     0.159 HD
HETATM   26  O           1     -22.831  -7.031  -0.395  0.00  0.00    -0.274 OA
ENDBRANCH  21  22
ENDBRANCH  20  21
ENDBRANCH  16  20
ENDBRANCH   2  16
TORSDOF 9
ENDMDL
MODEL 4
REMARK VINA RESULT:      -5.7     13.525     15.887
REMARK  9 active torsions:
REMARK  status: ('A' for Active; 'I' for Inactive)
REMARK       I    between atoms: N_2  and  C_3 
REMARK    1  A    between atoms: C_3  and  C_4 
REMARK    2  A    between atoms: C_4  and  C_5 
REMARK    3  A    between atoms: C_5  and  C_6 
REMARK    4  A    between atoms: C_5  and  N_20 
REMARK       I    between atoms: C_6  and  N_7 
REMARK    5  A    between atoms: N_7  and  C_11 
REMARK    6  A    between atoms: C_10  and  C_11 
REMARK    7  A    between atoms: C_11  and  C_12 
REMARK    8  A    between atoms: C_12  and  C_13 
REMARK    9  A    between atoms: C_13  and  C_15 
REMARK       I    between atoms: N_14  and  C_15 
ROOT
HETATM    1  C           1     -21.279  -7.504  -5.290  0.00  0.00     0.249 C 
HETATM    2  N           1     -21.695  -6.236  -5.599  0.00  0.00    -0.345 N 
HETATM    3  O           1     -20.488  -8.070  -6.006  0.00  0.00    -0.271 OA
HETATM    4  H           1     -22.358  -5.761  -4.999  0.00  0.00     0.163 HD
ENDROOT
BRANCH   1   5
HETATM    5  C           1     -21.809  -8.191  -4.055  0.00  0.00     0.283 C 
BRANCH   5   6
HETATM    6  C           1     -21.055  -7.687  -2.831  0.00  0.00     0.145 C 
BRANCH   6   7
HETATM    7  C           1     -21.969  -6.826  -1.996  0.00  0.00     0.217 C 
HETATM    8  O           1     -22.372  -5.773  -2.431  0.00  0.00    -0.274 OA
HETATM    9  N           1     -22.342  -7.236  -0.744  0.00  0.00    -0.370 N 
HETATM   10  H           1     -22.955  -6.659  -0.183  0.00  0.00     0.159 HD
HETATM   11  H           1     -22.003  -8.117  -0.379  0.00  0.00     0.159 HD
ENDBRANCH   6   7
ENDBRANCH   5   6
BRANCH   5  12
HETATM   12  N           1     -21.613  -9.673  -4.187  0.00  0.00    -0.066 N 
HETATM   13  H           1     -21.019  -9.874  -5.024  0.00  0.00     0.275 HD
HETATM   14  H           1     -21.141 -10.039  -3.330  0.00  0.00     0.275 HD
HETATM   15  H           1     -22.541 -10.138  -4.300  0.00  0.00     0.275 HD
ENDBRANCH   5  12
ENDBRANCH   1   5
BRANCH   2  16
HETATM   16  C           1     -21.187  -5.574  -6.784  0.00  0.00     0.186 C 
BRANCH  16  17
HETATM   17  C           1     -19.922  -4.828  -6.439  0.00  0.00     0.196 C 
HETATM   18  O           1     -19.779  -4.335  -5.298  0.00  0.00    -0.646 OA
HETATM   19  O           1     -19.016  -4.704  -7.291  0.00  0.00    -0.646 OA
ENDBRANCH  16  17
BRANCH  16  20
HETATM   20  C           1     -22.229  -4.594  -7.305  0.00  0.00     0.045 C 
BRANCH  20  21
HETATM   21  C           1     -21.952  -4.289  -8.771  0.00  0.00     0.105 C 
BRANCH  21  22
HETATM   22  C           1     -23.199  -3.732  -9.414  0.00  0.00     0.215 C 
HETATM   23  N           1     -24.346  -3.599  -8.679  0.00  0.00    -0.370 N 
HETATM   24  H           1     -24.358  -3.875  -7.705  0.00  0.00     0.159 HD
HETATM   25  H           1     -25.183  -3.226  -9.110  0.00  0.00     0.159 HD
HETATM   26  O           1     -23.184  -3.403 -10.576  0.00  0.00    -0.274 OA
ENDBRANCH  21  22
ENDBRANCH  20  21
ENDBRANCH  16  20
ENDBRANCH   2  16
TORSDOF 9
ENDMDL
MODEL 5
REMARK VINA RESULT:      -5.7     12.701     15.299
REMARK  9 active torsions:
REMARK  status: ('A' for Active; 'I' for Inactive)
REMARK       I    between atoms: N_2  and  C_3 
REMARK    1  A    between atoms: C_3  and  C_4 
REMARK    2  A    between atoms: C_4  and  C_5 
REMARK    3  A    between atoms: C_5  and  C_6 
REMARK    4  A    between atoms: C_5  and  N_20 
REMARK       I    between atoms: C_6  and  N_7 
REMARK    5  A    between atoms: N_7  and  C_11 
REMARK    6  A    between atoms: C_10  and  C_11 
REMARK    7  A    between atoms: C_11  and  C_12 
REMARK    8  A    between atoms: C_12  and  C_13 
REMARK    9  A    between atoms: C_13  and  C_15 
REMARK       I    between atoms: N_14  and  C_15 
ROOT
HETATM    1  C           1     -21.901  -4.106  -8.402  0.00  0.00     0.249 C 
HETATM    2  N           1     -21.381  -5.267  -7.896  0.00  0.00    -0.345 N 
HETATM    3  O           1     -22.180  -3.196  -7.658  0.00  0.00    -0.271 OA
HETATM    4  H           1     -21.146  -6.030  -8.519  0.00  0.00     0.163 HD
ENDROOT
BRANCH   1   5
HETATM    5  C           1     -22.123  -3.963  -9.888  0.00  0.00     0.283 C 
BRANCH   5   6
HETATM    6  C           1     -23.432  -4.641 -10.273  0.00  0.00     0.145 C 
BRANCH   6   7
HETATM    7  C           1     -24.559  -3.641 -10.198  0.00  0.00     0.217 C 
HETATM    8  O           1     -25.131  -3.300 -11.207  0.00  0.00    -0.274 OA
HETATM    9  N           1     -24.933  -3.119  -8.989  0.00  0.00    -0.370 N 
HETATM   10  H           1     -25.688  -2.448  -8.939  0.00  0.00     0.159 HD
HETATM   11  H           1     -24.452  -3.404  -8.145  0.00  0.00     0.159 HD
ENDBRANCH   6   7
ENDBRANCH   5   6
BRANCH   5  12
HETATM   12  N           1     -20.989  -4.611 -10.626  0.00  0.00    -0.066 N 
HETATM   13  H           1     -20.818  -4.100 -11.522  0.00  0.00     0.275 HD
HETATM   14  H           1     -20.127  -4.580 -10.037  0.00  0.00     0.275 HD
HETATM   15  H           1     -21.233  -5.605 -10.835  0.00  0.00     0.275 HD
ENDBRANCH   5  12
ENDBRANCH   1   5
BRANCH   2  16
HETATM   16  C           1     -21.166  -5.405  -6.469  0.00  0.00     0.186 C 
BRANCH  16  17
HETATM   17  C           1     -19.839  -4.790  -6.099  0.00  0.00     0.196 C 
HETATM   18  O           1     -18.924  -4.723  -6.948  0.00  0.00    -0.646 OA
HETATM   19  O           1     -19.655  -4.346  -4.946  0.00  0.00    -0.646 OA
ENDBRANCH  16  17
BRANCH  16  20
HETATM   20  C           1     -21.164  -6.882  -6.096  0.00  0.00     0.045 C 
BRANCH  20  21
HETATM   21  C           1     -22.235  -7.143  -5.047  0.00  0.00     0.105 C 
BRANCH  21  22
HETATM   22  C           1     -21.665  -6.895  -3.671  0.00  0.00     0.215 C 
HETATM   23  N           1     -20.737  -7.756  -3.151  0.00  0.00    -0.370 N 
HETATM   24  H           1     -20.434  -8.559  -3.687  0.00  0.00     0.159 HD
HETATM   25  H           1     -20.354  -7.590  -2.228  0.00  0.00     0.159 HD
HETATM   26  O           1     -22.027  -5.937  -3.031  0.00  0.00    -0.274 OA
ENDBRANCH  21  22
ENDBRANCH  20  21
ENDBRANCH  16  20
ENDBRANCH   2  16
TORSDOF 9
ENDMDL
MODEL 6
REMARK VINA RESULT:      -5.7     25.305     26.866
REMARK  9 active torsions:
REMARK  status: ('A' for Active; 'I' for Inactive)
REMARK       I    between atoms: N_2  and  C_3 
REMARK    1  A    between atoms: C_3  and  C_4 
REMARK    2  A    between atoms: C_4  and  C_5 
REMARK    3  A    between atoms: C_5  and  C_6 
REMARK    4  A    between atoms: C_5  and  N_20 
REMARK       I    between atoms: C_6  and  N_7 
REMARK    5  A    between atoms: N_7  and  C_11 
REMARK    6  A    between atoms: C_10  and  C_11 
REMARK    7  A    between atoms: C_11  and  C_12 
REMARK    8  A    between atoms: C_12  and  C_13 
REMARK    9  A    between atoms: C_13  and  C_15 
REMARK       I    between atoms: N_14  and  C_15 
ROOT
HETATM    1  C           1     -12.061   7.567 -21.599  0.00  0.00     0.249 C 
HETATM    2  N           1     -12.584   6.843 -20.561  0.00  0.00    -0.345 N 
HETATM    3  O           1     -11.761   7.014 -22.630  0.00  0.00    -0.271 OA
HETATM    4  H           1     -12.835   7.306 -19.697  0.00  0.00     0.163 HD
ENDROOT
BRANCH   1   5
HETATM    5  C           1     -11.861   9.056 -21.455  0.00  0.00     0.283 C 
BRANCH   5   6
HETATM    6  C           1     -11.781   9.416 -19.977  0.00  0.00     0.145 C 
BRANCH   6   7
HETATM    7  C           1     -10.398   9.110 -19.457  0.00  0.00     0.217 C 
HETATM    8  O           1     -10.246   8.771 -18.306  0.00  0.00    -0.274 OA
HETATM    9  N           1      -9.315   9.215 -20.288  0.00  0.00    -0.370 N 
HETATM   10  H           1      -8.388   9.009 -19.939  0.00  0.00     0.159 HD
HETATM   11  H           1      -9.442   9.499 -21.251  0.00  0.00     0.159 HD
ENDBRANCH   6   7
ENDBRANCH   5   6
BRANCH   5  12
HETATM   12  N           1     -13.016   9.778 -22.083  0.00  0.00    -0.066 N 
HETATM   13  H           1     -13.605   9.098 -22.615  0.00  0.00     0.275 HD
HETATM   14  H           1     -13.593  10.227 -21.336  0.00  0.00     0.275 HD
HETATM   15  H           1     -12.656  10.511 -22.734  0.00  0.00     0.275 HD
ENDBRANCH   5  12
ENDBRANCH   1   5
BRANCH   2  16
HETATM   16  C           1     -12.778   5.413 -20.699  0.00  0.00     0.186 C 
BRANCH  16  17
HETATM   17  C           1     -14.254   5.102 -20.677  0.00  0.00     0.196 C 
HETATM   18  O           1     -14.911   5.265 -19.626  0.00  0.00    -0.646 OA
HETATM   19  O           1     -14.821   4.685 -21.710  0.00  0.00    -0.646 OA
ENDBRANCH  16  17
BRANCH  16  20
HETATM   20  C           1     -12.090   4.694 -19.546  0.00  0.00     0.045 C 
BRANCH  20  21
HETATM   21  C           1     -10.662   4.343 -19.945  0.00  0.00     0.105 C 
BRANCH  21  22
HETATM   22  C           1      -9.728   5.434 -19.482  0.00  0.00     0.215 C 
HETATM   23  N           1      -9.505   5.621 -18.145  0.00  0.00    -0.370 N 
HETATM   24  H           1      -9.966   5.029 -17.467  0.00  0.00     0.159 HD
HETATM   25  H           1      -8.878   6.353 -17.834  0.00  0.00     0.159 HD
HETATM   26  O           1      -9.177   6.142 -20.292  0.00  0.00    -0.274 OA
ENDBRANCH  21  22
ENDBRANCH  20  21
ENDBRANCH  16  20
ENDBRANCH   2  16
TORSDOF 9
ENDMDL
MODEL 7
REMARK VINA RESULT:      -5.4     15.364     17.359
REMARK  9 active torsions:
REMARK  status: ('A' for Active; 'I' for Inactive)
REMARK       I    between atoms: N_2  and  C_3 
REMARK    1  A    between atoms: C_3  and  C_4 
REMARK    2  A    between atoms: C_4  and  C_5 
REMARK    3  A    between atoms: C_5  and  C_6 
REMARK    4  A    between atoms: C_5  and  N_20 
REMARK       I    between atoms: C_6  and  N_7 
REMARK    5  A    between atoms: N_7  and  C_11 
REMARK    6  A    between atoms: C_10  and  C_11 
REMARK    7  A    between atoms: C_11  and  C_12 
REMARK    8  A    between atoms: C_12  and  C_13 
REMARK    9  A    between atoms: C_13  and  C_15 
REMARK       I    between atoms: N_14  and  C_15 
ROOT
HETATM    1  C           1     -20.759  -7.466  -5.427  0.00  0.00     0.249 C 
HETATM    2  N           1     -21.496  -8.069  -4.444  0.00  0.00    -0.345 N 
HETATM    3  O           1     -19.682  -7.918  -5.737  0.00  0.00    -0.271 OA
HETATM    4  H           1     -22.398  -7.692  -4.183  0.00  0.00     0.163 HD
ENDROOT
BRANCH   1   5
HETATM    5  C           1     -21.292  -6.239  -6.124  0.00  0.00     0.283 C 
BRANCH   5   6
HETATM    6  C           1     -20.257  -5.123  -6.050  0.00  0.00     0.145 C 
BRANCH   6   7
HETATM    7  C           1     -20.507  -4.128  -7.156  0.00  0.00     0.217 C 
HETATM    8  O           1     -21.450  -3.374  -7.088  0.00  0.00    -0.274 OA
HETATM    9  N           1     -19.669  -4.080  -8.236  0.00  0.00    -0.370 N 
HETATM   10  H           1     -19.836  -3.414  -8.979  0.00  0.00     0.159 HD
HETATM   11  H           1     -18.880  -4.713  -8.293  0.00  0.00     0.159 HD
ENDBRANCH   6   7
ENDBRANCH   5   6
BRANCH   5  12
HETATM   12  N           1     -22.556  -5.793  -5.451  0.00  0.00    -0.066 N 
HETATM   13  H           1     -22.320  -5.270  -4.576  0.00  0.00     0.275 HD
HETATM   14  H           1     -23.092  -5.169  -6.095  0.00  0.00     0.275 HD
HETATM   15  H           1     -23.136  -6.628  -5.211  0.00  0.00     0.275 HD
ENDBRANCH   5  12
ENDBRANCH   1   5
BRANCH   2  16
HETATM   16  C           1     -20.985  -9.249  -3.774  0.00  0.00     0.186 C 
BRANCH  16  17
HETATM   17  C           1     -21.748 -10.463  -4.245  0.00  0.00     0.196 C 
HETATM   18  O           1     -22.685 -10.918  -3.554  0.00  0.00    -0.646 OA
HETATM   19  O           1     -21.444 -11.014  -5.325  0.00  0.00    -0.646 OA
ENDBRANCH  16  17
BRANCH  16  20
HETATM   20  C           1     -21.156  -9.094  -2.269  0.00  0.00     0.045 C 
BRANCH  20  21
HETATM   21  C           1     -20.774  -7.678  -1.857  0.00  0.00     0.105 C 
BRANCH  21  22
HETATM   22  C           1     -22.021  -6.897  -1.523  0.00  0.00     0.215 C 
HETATM   23  N           1     -22.690  -7.143  -0.355  0.00  0.00    -0.370 N 
HETATM   24  H           1     -22.348  -7.849   0.285  0.00  0.00     0.159 HD
HETATM   25  H           1     -23.527  -6.620  -0.130  0.00  0.00     0.159 HD
HETATM   26  O           1     -22.429  -6.054  -2.287  0.00  0.00    -0.274 OA
ENDBRANCH  21  22
ENDBRANCH  20  21
ENDBRANCH  16  20
ENDBRANCH   2  16
TORSDOF 9
ENDMDL
MODEL 8
REMARK VINA RESULT:      -5.3      1.808      2.126
REMARK  9 active torsions:
REMARK  status: ('A' for Active; 'I' for Inactive)
REMARK       I    between atoms: N_2  and  C_3 
REMARK    1  A    between atoms: C_3  and  C_4 
REMARK    2  A    between atoms: C_4  and  C_5 
REMARK    3  A    between atoms: C_5  and  C_6 
REMARK    4  A    between atoms: C_5  and  N_20 
REMARK       I    between atoms: C_6  and  N_7 
REMARK    5  A    between atoms: N_7  and  C_11 
REMARK    6  A    between atoms: C_10  and  C_11 
REMARK    7  A    between atoms: C_11  and  C_12 
REMARK    8  A    between atoms: C_12  and  C_13 
REMARK    9  A    between atoms: C_13  and  C_15 
REMARK       I    between atoms: N_14  and  C_15 
ROOT
HETATM    1  C           1     -34.670  -3.794 -12.299  0.00  0.00     0.249 C 
HETATM    2  N           1     -35.263  -2.966 -11.384  0.00  0.00    -0.345 N 
HETATM    3  O           1     -34.672  -3.498 -13.471  0.00  0.00    -0.271 OA
HETATM    4  H           1     -35.263  -3.213 -10.402  0.00  0.00     0.163 HD
ENDROOT
BRANCH   1   5
HETATM    5  C           1     -34.014  -5.074 -11.845  0.00  0.00     0.283 C 
BRANCH   5   6
HETATM    6  C           1     -34.377  -5.341 -10.389  0.00  0.00     0.145 C 
BRANCH   6   7
HETATM    7  C           1     -34.707  -6.802 -10.212  0.00  0.00     0.217 C 
HETATM    8  O           1     -34.724  -7.287  -9.104  0.00  0.00    -0.274 OA
HETATM    9  N           1     -34.986  -7.579 -11.303  0.00  0.00    -0.370 N 
HETATM   10  H           1     -35.207  -8.560 -11.185  0.00  0.00     0.159 HD
HETATM   11  H           1     -34.970  -7.173 -12.230  0.00  0.00     0.159 HD
ENDBRANCH   6   7
ENDBRANCH   5   6
BRANCH   5  12
HETATM   12  N           1     -32.525  -4.945 -11.973  0.00  0.00    -0.066 N 
HETATM   13  H           1     -32.249  -3.945 -11.840  0.00  0.00     0.275 HD
HETATM   14  H           1     -32.061  -5.533 -11.245  0.00  0.00     0.275 HD
HETATM   15  H           1     -32.228  -5.264 -12.922  0.00  0.00     0.275 HD
ENDBRANCH   5  12
ENDBRANCH   1   5
BRANCH   2  16
HETATM   16  C           1     -35.893  -1.735 -11.820  0.00  0.00     0.186 C 
BRANCH  16  17
HETATM   17  C           1     -34.858  -0.639 -11.889  0.00  0.00     0.196 C 
HETATM   18  O           1     -35.173   0.490 -12.324  0.00  0.00    -0.646 OA
HETATM   19  O           1     -33.688  -0.858 -11.511  0.00  0.00    -0.646 OA
ENDBRANCH  16  17
BRANCH  16  20
HETATM   20  C           1     -36.983  -1.344 -10.831  0.00  0.00     0.045 C 
BRANCH  20  21
HETATM   21  C           1     -36.367  -1.123  -9.456  0.00  0.00     0.105 C 
BRANCH  21  22
HETATM   22  C           1     -36.725   0.257  -8.960  0.00  0.00     0.215 C 
HETATM   23  N           1     -37.709   0.974  -9.585  0.00  0.00    -0.370 N 
HETATM   24  H           1     -38.197   0.579 -10.379  0.00  0.00     0.159 HD
HETATM   25  H           1     -37.950   1.900  -9.252  0.00  0.00     0.159 HD
HETATM   26  O           1     -36.143   0.728  -8.011  0.00  0.00    -0.274 OA
ENDBRANCH  21  22
ENDBRANCH  20  21
ENDBRANCH  16  20
ENDBRANCH   2  16
TORSDOF 9
ENDMDL
MODEL 9
REMARK VINA RESULT:      -5.1     13.069     15.285
REMARK  9 active torsions:
REMARK  status: ('A' for Active; 'I' for Inactive)
REMARK       I    between atoms: N_2  and  C_3 
REMARK    1  A    between atoms: C_3  and  C_4 
REMARK    2  A    between atoms: C_4  and  C_5 
REMARK    3  A    between atoms: C_5  and  C_6 
REMARK    4  A    between atoms: C_5  and  N_20 
REMARK       I    between atoms: C_6  and  N_7 
REMARK    5  A    between atoms: N_7  and  C_11 
REMARK    6  A    between atoms: C_10  and  C_11 
REMARK    7  A    between atoms: C_11  and  C_12 
REMARK    8  A    between atoms: C_12  and  C_13 
REMARK    9  A    between atoms: C_13  and  C_15 
REMARK       I    between atoms: N_14  and  C_15 
ROOT
HETATM    1  C           1     -20.759  -6.555  -5.883  0.00  0.00     0.249 C 
HETATM    2  N           1     -21.675  -5.681  -6.405  0.00  0.00    -0.345 N 
HETATM    3  O           1     -19.789  -6.869  -6.530  0.00  0.00    -0.271 OA
HETATM    4  H           1     -22.489  -5.417  -5.863  0.00  0.00     0.163 HD
ENDROOT
BRANCH   1   5
HETATM    5  C           1     -20.963  -7.125  -4.501  0.00  0.00     0.283 C 
BRANCH   5   6
HETATM    6  C           1     -21.743  -8.430  -4.599  0.00  0.00     0.145 C 
BRANCH   6   7
HETATM    7  C           1     -20.801  -9.556  -4.947  0.00  0.00     0.217 C 
HETATM    8  O           1     -20.955 -10.177  -5.972  0.00  0.00    -0.274 OA
HETATM    9  N           1     -19.772  -9.873  -4.102  0.00  0.00    -0.370 N 
HETATM   10  H           1     -19.140 -10.628  -4.335  0.00  0.00     0.159 HD
HETATM   11  H           1     -19.644  -9.353  -3.243  0.00  0.00     0.159 HD
ENDBRANCH   6   7
ENDBRANCH   5   6
BRANCH   5  12
HETATM   12  N           1     -21.733  -6.145  -3.666  0.00  0.00    -0.066 N 
HETATM   13  H           1     -22.740  -6.426  -3.637  0.00  0.00     0.275 HD
HETATM   14  H           1     -21.347  -6.136  -2.695  0.00  0.00     0.275 HD
HETATM   15  H           1     -21.651  -5.191  -4.084  0.00  0.00     0.275 HD
ENDBRANCH   5  12
ENDBRANCH   1   5
BRANCH   2  16
HETATM   16  C           1     -21.480  -5.132  -7.732  0.00  0.00     0.186 C 
BRANCH  16  17
HETATM   17  C           1     -20.686  -3.853  -7.635  0.00  0.00     0.196 C 
HETATM   18  O           1     -21.166  -2.864  -7.039  0.00  0.00    -0.646 OA
HETATM   19  O           1     -19.549  -3.781  -8.148  0.00  0.00    -0.646 OA
ENDBRANCH  16  17
BRANCH  16  20
HETATM   20  C           1     -22.834  -4.844  -8.367  0.00  0.00     0.045 C 
BRANCH  20  21
HETATM   21  C           1     -22.634  -4.376  -9.802  0.00  0.00     0.105 C 
BRANCH  21  22
HETATM   22  C           1     -23.975  -4.261 -10.486  0.00  0.00     0.215 C 
HETATM   23  N           1     -25.106  -4.064  -9.742  0.00  0.00    -0.370 N 
HETATM   24  H           1     -25.044  -3.996  -8.734  0.00  0.00     0.159 HD
HETATM   25  H           1     -26.006  -3.986 -10.199  0.00  0.00     0.159 HD
HETATM   26  O           1     -24.049  -4.341 -11.689  0.00  0.00    -0.274 OA
ENDBRANCH  21  22
ENDBRANCH  20  21
ENDBRANCH  16  20
ENDBRANCH   2  16
TORSDOF 9
ENDMDL
