MODEL 1
REMARK VINA RESULT:      -6.0      0.000      0.000
REMARK  12 active torsions:
REMARK  status: ('A' for Active; 'I' for Inactive)
REMARK    1  A    between atoms: N_2  and  C_20 
REMARK    2  A    between atoms: C_5  and  C_20 
REMARK    3  A    between atoms: C_5  and  C_23 
REMARK       I    between atoms: C_9  and  N_25 
REMARK    4  A    between atoms: C_9  and  C_11 
REMARK    5  A    between atoms: C_10  and  C_18 
REMARK    6  A    between atoms: C_10  and  N_15 
REMARK    7  A    between atoms: C_11  and  C_17 
REMARK    8  A    between atoms: C_11  and  N_27 
REMARK    9  A    between atoms: C_16  and  C_21 
REMARK   10  A    between atoms: C_17  and  C_18 
REMARK   11  A    between atoms: C_21  and  C_23 
REMARK   12  A    between atoms: C_21  and  N_25 
ROOT
HETATM    1  O           1     -24.124  -6.424 -18.706  0.00  0.00    -0.271 OA
HETATM    2  C           1     -25.150  -6.925 -19.103  0.00  0.00     0.249 C 
HETATM    3  H           1     -27.157  -7.228 -18.698  0.00  0.00     0.163 HD
HETATM    4  N           1     -26.298  -6.809 -18.366  0.00  0.00    -0.345 N 
ENDROOT
BRANCH   2   5
HETATM    5  C           1     -25.166  -7.677 -20.411  0.00  0.00     0.274 C 
BRANCH   5   6
HETATM    6  C           1     -24.626  -6.781 -21.519  0.00  0.00     0.044 C 
BRANCH   6   7
HETATM    7  C           1     -23.940  -7.637 -22.575  0.00  0.00     0.030 C 
BRANCH   7   8
HETATM    8  C           1     -22.849  -8.475 -21.922  0.00  0.00     0.230 C 
BRANCH   8   9
HETATM    9  N           1     -22.476  -9.608 -22.832  0.00  0.00    -0.079 N 
HETATM   10  H           1     -21.651 -10.114 -22.438  0.00  0.00     0.274 HD
HETATM   11  H           1     -22.234  -9.230 -23.777  0.00  0.00     0.274 HD
HETATM   12  H           1     -23.282 -10.267 -22.917  0.00  0.00     0.274 HD
ENDBRANCH   8   9
ENDBRANCH   7   8
ENDBRANCH   6   7
ENDBRANCH   5   6
BRANCH   5  13
HETATM   13  N           1     -26.572  -8.083 -20.737  0.00  0.00    -0.067 N 
HETATM   14  H           1     -26.558  -8.945 -21.328  0.00  0.00     0.275 HD
HETATM   15  H           1     -27.093  -8.276 -19.853  0.00  0.00     0.275 HD
HETATM   16  H           1     -27.045  -7.310 -21.260  0.00  0.00     0.275 HD
ENDBRANCH   5  13
ENDBRANCH   2   5
BRANCH   4  17
HETATM   17  C           1     -26.283  -6.086 -17.109  0.00  0.00     0.185 C 
BRANCH  17  18
HETATM   18  C           1     -26.124  -7.062 -15.970  0.00  0.00     0.196 C 
HETATM   19  O           1     -27.133  -7.486 -15.366  0.00  0.00    -0.646 OA
HETATM   20  O           1     -24.985  -7.448 -15.631  0.00  0.00    -0.646 OA
ENDBRANCH  17  18
BRANCH  17  21
HETATM   21  C           1     -27.592  -5.325 -16.947  0.00  0.00     0.038 C 
BRANCH  21  22
HETATM   22  C           1     -28.572  -5.764 -18.027  0.00  0.00     0.030 C 
BRANCH  22  23
HETATM   23  C           1     -29.729  -6.520 -17.387  0.00  0.00     0.230 C 
BRANCH  23  24
HETATM   24  N           1     -29.446  -7.992 -17.422  0.00  0.00    -0.079 N 
HETATM   25  H           1     -29.723  -8.422 -16.511  0.00  0.00     0.274 HD
HETATM   26  H           1     -28.425  -8.147 -17.583  0.00  0.00     0.274 HD
HETATM   27  H           1     -29.991  -8.433 -18.197  0.00  0.00     0.274 HD
ENDBRANCH  23  24
ENDBRANCH  22  23
ENDBRANCH  21  22
ENDBRANCH  17  21
ENDBRANCH   4  17
TORSDOF 12
ENDMDL
MODEL 2
REMARK VINA RESULT:      -5.9      1.991      2.399
REMARK  12 active torsions:
REMARK  status: ('A' for Active; 'I' for Inactive)
REMARK    1  A    between atoms: N_2  and  C_20 
REMARK    2  A    between atoms: C_5  and  C_20 
REMARK    3  A    between atoms: C_5  and  C_23 
REMARK       I    between atoms: C_9  and  N_25 
REMARK    4  A    between atoms: C_9  and  C_11 
REMARK    5  A    between atoms: C_10  and  C_18 
REMARK    6  A    between atoms: C_10  and  N_15 
REMARK    7  A    between atoms: C_11  and  C_17 
REMARK    8  A    between atoms: C_11  and  N_27 
REMARK    9  A    between atoms: C_16  and  C_21 
REMARK   10  A    between atoms: C_17  and  C_18 
REMARK   11  A    between atoms: C_21  and  C_23 
REMARK   12  A    between atoms: C_21  and  N_25 
ROOT
HETATM    1  O           1     -27.275  -6.570 -20.138  0.00  0.00    -0.271 OA
HETATM    2  C           1     -26.419  -6.558 -19.286  0.00  0.00     0.249 C 
HETATM    3  H           1     -26.024  -6.216 -17.283  0.00  0.00     0.163 HD
HETATM    4  N           1     -26.741  -6.225 -17.997  0.00  0.00    -0.345 N 
ENDROOT
BRANCH   2   5
HETATM    5  C           1     -24.996  -6.912 -19.640  0.00  0.00     0.274 C 
BRANCH   5   6
HETATM    6  C           1     -24.994  -7.971 -20.735  0.00  0.00     0.044 C 
BRANCH   6   7
HETATM    7  C           1     -24.307  -7.417 -21.976  0.00  0.00     0.030 C 
BRANCH   7   8
HETATM    8  C           1     -23.196  -8.364 -22.409  0.00  0.00     0.230 C 
BRANCH   8   9
HETATM    9  N           1     -22.616  -9.040 -21.202  0.00  0.00    -0.079 N 
HETATM   10  H           1     -23.369  -9.192 -20.492  0.00  0.00     0.274 HD
HETATM   11  H           1     -21.867  -8.437 -20.791  0.00  0.00     0.274 HD
HETATM   12  H           1     -22.208  -9.961 -21.480  0.00  0.00     0.274 HD
ENDBRANCH   8   9
ENDBRANCH   7   8
ENDBRANCH   6   7
ENDBRANCH   5   6
BRANCH   5  13
HETATM   13  N           1     -24.296  -7.447 -18.427  0.00  0.00    -0.067 N 
HETATM   14  H           1     -24.091  -8.463 -18.562  0.00  0.00     0.275 HD
HETATM   15  H           1     -23.402  -6.927 -18.283  0.00  0.00     0.275 HD
HETATM   16  H           1     -24.910  -7.325 -17.589  0.00  0.00     0.275 HD
ENDBRANCH   5  13
ENDBRANCH   2   5
BRANCH   4  17
HETATM   17  C           1     -28.109  -5.886 -17.655  0.00  0.00     0.185 C 
BRANCH  17  18
HETATM   18  C           1     -28.116  -4.673 -16.758  0.00  0.00     0.196 C 
HETATM   19  O           1     -28.475  -3.564 -17.209  0.00  0.00    -0.646 OA
HETATM   20  O           1     -27.762  -4.777 -15.564  0.00  0.00    -0.646 OA
ENDBRANCH  17  18
BRANCH  17  21
HETATM   21  C           1     -28.756  -7.058 -16.930  0.00  0.00     0.038 C 
BRANCH  21  22
HETATM   22  C           1     -30.239  -7.109 -17.270  0.00  0.00     0.030 C 
BRANCH  22  23
HETATM   23  C           1     -30.421  -7.683 -18.670  0.00  0.00     0.230 C 
BRANCH  23  24
HETATM   24  N           1     -29.371  -8.724 -18.924  0.00  0.00    -0.079 N 
HETATM   25  H           1     -29.370  -9.415 -18.141  0.00  0.00     0.274 HD
HETATM   26  H           1     -28.434  -8.266 -18.985  0.00  0.00     0.274 HD
HETATM   27  H           1     -29.578  -9.214 -19.823  0.00  0.00     0.274 HD
ENDBRANCH  23  24
ENDBRANCH  22  23
ENDBRANCH  21  22
ENDBRANCH  17  21
ENDBRANCH   4  17
TORSDOF 12
ENDMDL
MODEL 3
REMARK VINA RESULT:      -5.7      2.385      3.001
REMARK  12 active torsions:
REMARK  status: ('A' for Active; 'I' for Inactive)
REMARK    1  A    between atoms: N_2  and  C_20 
REMARK    2  A    between atoms: C_5  and  C_20 
REMARK    3  A    between atoms: C_5  and  C_23 
REMARK       I    between atoms: C_9  and  N_25 
REMARK    4  A    between atoms: C_9  and  C_11 
REMARK    5  A    between atoms: C_10  and  C_18 
REMARK    6  A    between atoms: C_10  and  N_15 
REMARK    7  A    between atoms: C_11  and  C_17 
REMARK    8  A    between atoms: C_11  and  N_27 
REMARK    9  A    between atoms: C_16  and  C_21 
REMARK   10  A    between atoms: C_17  and  C_18 
REMARK   11  A    between atoms: C_21  and  C_23 
REMARK   12  A    between atoms: C_21  and  N_25 
ROOT
HETATM    1  O           1     -26.162  -5.988 -17.259  0.00  0.00    -0.271 OA
HETATM    2  C           1     -26.341  -6.361 -18.394  0.00  0.00     0.249 C 
HETATM    3  H           1     -27.765  -6.890 -19.801  0.00  0.00     0.163 HD
HETATM    4  N           1     -27.615  -6.579 -18.850  0.00  0.00    -0.345 N 
ENDROOT
BRANCH   2   5
HETATM    5  C           1     -25.164  -6.583 -19.311  0.00  0.00     0.274 C 
BRANCH   5   6
HETATM    6  C           1     -25.661  -7.066 -20.668  0.00  0.00     0.044 C 
BRANCH   6   7
HETATM    7  C           1     -24.768  -8.195 -21.163  0.00  0.00     0.030 C 
BRANCH   7   8
HETATM    8  C           1     -24.066  -7.765 -22.444  0.00  0.00     0.230 C 
BRANCH   8   9
HETATM    9  N           1     -23.082  -8.820 -22.855  0.00  0.00    -0.079 N 
HETATM   10  H           1     -22.792  -8.659 -23.846  0.00  0.00     0.274 HD
HETATM   11  H           1     -23.527  -9.763 -22.771  0.00  0.00     0.274 HD
HETATM   12  H           1     -22.243  -8.775 -22.234  0.00  0.00     0.274 HD
ENDBRANCH   8   9
ENDBRANCH   7   8
ENDBRANCH   6   7
ENDBRANCH   5   6
BRANCH   5  13
HETATM   13  N           1     -24.255  -7.616 -18.715  0.00  0.00    -0.067 N 
HETATM   14  H           1     -24.796  -8.216 -18.053  0.00  0.00     0.275 HD
HETATM   15  H           1     -23.856  -8.209 -19.477  0.00  0.00     0.275 HD
HETATM   16  H           1     -23.479  -7.141 -18.200  0.00  0.00     0.275 HD
ENDBRANCH   5  13
ENDBRANCH   2   5
BRANCH   4  17
HETATM   17  C           1     -28.747  -6.365 -17.969  0.00  0.00     0.185 C 
BRANCH  17  18
HETATM   18  C           1     -29.637  -7.583 -17.990  0.00  0.00     0.196 C 
HETATM   19  O           1     -29.581  -8.413 -17.057  0.00  0.00    -0.646 OA
HETATM   20  O           1     -30.429  -7.761 -18.939  0.00  0.00    -0.646 OA
ENDBRANCH  17  18
BRANCH  17  21
HETATM   21  C           1     -29.535  -5.151 -18.443  0.00  0.00     0.038 C 
BRANCH  21  22
HETATM   22  C           1     -29.931  -4.302 -17.243  0.00  0.00     0.030 C 
BRANCH  22  23
HETATM   23  C           1     -31.428  -4.435 -16.997  0.00  0.00     0.230 C 
BRANCH  23  24
HETATM   24  N           1     -32.126  -3.194 -17.469  0.00  0.00    -0.079 N 
HETATM   25  H           1     -31.435  -2.562 -17.934  0.00  0.00     0.274 HD
HETATM   26  H           1     -32.552  -2.701 -16.652  0.00  0.00     0.274 HD
HETATM   27  H           1     -32.875  -3.453 -18.150  0.00  0.00     0.274 HD
ENDBRANCH  23  24
ENDBRANCH  22  23
ENDBRANCH  21  22
ENDBRANCH  17  21
ENDBRANCH   4  17
TORSDOF 12
ENDMDL
MODEL 4
REMARK VINA RESULT:      -5.5      7.362      9.560
REMARK  12 active torsions:
REMARK  status: ('A' for Active; 'I' for Inactive)
REMARK    1  A    between atoms: N_2  and  C_20 
REMARK    2  A    between atoms: C_5  and  C_20 
REMARK    3  A    between atoms: C_5  and  C_23 
REMARK       I    between atoms: C_9  and  N_25 
REMARK    4  A    between atoms: C_9  and  C_11 
REMARK    5  A    between atoms: C_10  and  C_18 
REMARK    6  A    between atoms: C_10  and  N_15 
REMARK    7  A    between atoms: C_11  and  C_17 
REMARK    8  A    between atoms: C_11  and  N_27 
REMARK    9  A    between atoms: C_16  and  C_21 
REMARK   10  A    between atoms: C_17  and  C_18 
REMARK   11  A    between atoms: C_21  and  C_23 
REMARK   12  A    between atoms: C_21  and  N_25 
ROOT
HETATM    1  O           1     -34.999  -5.053 -15.331  0.00  0.00    -0.271 OA
HETATM    2  C           1     -33.934  -4.488 -15.403  0.00  0.00     0.249 C 
HETATM    3  H           1     -32.488  -3.453 -14.343  0.00  0.00     0.163 HD
HETATM    4  N           1     -33.381  -3.926 -14.283  0.00  0.00    -0.345 N 
ENDROOT
BRANCH   2   5
HETATM    5  C           1     -33.211  -4.404 -16.725  0.00  0.00     0.274 C 
BRANCH   5   6
HETATM    6  C           1     -31.713  -4.559 -16.496  0.00  0.00     0.044 C 
BRANCH   6   7
HETATM    7  C           1     -30.955  -4.000 -17.692  0.00  0.00     0.030 C 
BRANCH   7   8
HETATM    8  C           1     -29.550  -3.601 -17.263  0.00  0.00     0.230 C 
BRANCH   8   9
HETATM    9  N           1     -29.380  -2.119 -17.418  0.00  0.00    -0.079 N 
HETATM   10  H           1     -29.096  -1.902 -18.401  0.00  0.00     0.274 HD
HETATM   11  H           1     -28.641  -1.782 -16.760  0.00  0.00     0.274 HD
HETATM   12  H           1     -30.283  -1.640 -17.203  0.00  0.00     0.274 HD
ENDBRANCH   8   9
ENDBRANCH   7   8
ENDBRANCH   6   7
ENDBRANCH   5   6
BRANCH   5  13
HETATM   13  N           1     -33.484  -3.072 -17.359  0.00  0.00    -0.067 N 
HETATM   14  H           1     -34.206  -2.562 -16.802  0.00  0.00     0.275 HD
HETATM   15  H           1     -32.603  -2.512 -17.384  0.00  0.00     0.275 HD
HETATM   16  H           1     -33.835  -3.216 -18.334  0.00  0.00     0.275 HD
ENDBRANCH   5  13
ENDBRANCH   2   5
BRANCH   4  17
HETATM   17  C           1     -34.075  -4.007 -13.013  0.00  0.00     0.185 C 
BRANCH  17  18
HETATM   18  C           1     -34.894  -2.757 -12.806  0.00  0.00     0.196 C 
HETATM   19  O           1     -34.917  -1.873 -13.690  0.00  0.00    -0.646 OA
HETATM   20  O           1     -35.549  -2.605 -11.754  0.00  0.00    -0.646 OA
ENDBRANCH  17  18
BRANCH  17  21
HETATM   21  C           1     -33.057  -4.139 -11.887  0.00  0.00     0.038 C 
BRANCH  21  22
HETATM   22  C           1     -33.142  -5.536 -11.287  0.00  0.00     0.030 C 
BRANCH  22  23
HETATM   23  C           1     -34.588  -6.014 -11.314  0.00  0.00     0.230 C 
BRANCH  23  24
HETATM   24  N           1     -34.653  -7.438 -10.847  0.00  0.00    -0.079 N 
HETATM   25  H           1     -33.685  -7.826 -10.777  0.00  0.00     0.274 HD
HETATM   26  H           1     -35.206  -8.005 -11.529  0.00  0.00     0.274 HD
HETATM   27  H           1     -35.113  -7.476  -9.910  0.00  0.00     0.274 HD
ENDBRANCH  23  24
ENDBRANCH  22  23
ENDBRANCH  21  22
ENDBRANCH  17  21
ENDBRANCH   4  17
TORSDOF 12
ENDMDL
MODEL 5
REMARK VINA RESULT:      -5.2     12.053     14.353
REMARK  12 active torsions:
REMARK  status: ('A' for Active; 'I' for Inactive)
REMARK    1  A    between atoms: N_2  and  C_20 
REMARK    2  A    between atoms: C_5  and  C_20 
REMARK    3  A    between atoms: C_5  and  C_23 
REMARK       I    between atoms: C_9  and  N_25 
REMARK    4  A    between atoms: C_9  and  C_11 
REMARK    5  A    between atoms: C_10  and  C_18 
REMARK    6  A    between atoms: C_10  and  N_15 
REMARK    7  A    between atoms: C_11  and  C_17 
REMARK    8  A    between atoms: C_11  and  N_27 
REMARK    9  A    between atoms: C_16  and  C_21 
REMARK   10  A    between atoms: C_17  and  C_18 
REMARK   11  A    between atoms: C_21  and  C_23 
REMARK   12  A    between atoms: C_21  and  N_25 
ROOT
HETATM    1  O           1     -19.621  -4.518  -5.844  0.00  0.00    -0.271 OA
HETATM    2  C           1     -20.720  -4.696  -6.315  0.00  0.00     0.249 C 
HETATM    3  H           1     -22.483  -5.767  -6.148  0.00  0.00     0.163 HD
HETATM    4  N           1     -21.563  -5.618  -5.755  0.00  0.00    -0.345 N 
ENDROOT
BRANCH   2   5
HETATM    5  C           1     -21.164  -3.901  -7.518  0.00  0.00     0.274 C 
BRANCH   5   6
HETATM    6  C           1     -22.578  -4.312  -7.905  0.00  0.00     0.044 C 
BRANCH   6   7
HETATM    7  C           1     -22.924  -3.724  -9.266  0.00  0.00     0.030 C 
BRANCH   7   8
HETATM    8  C           1     -24.131  -4.451  -9.844  0.00  0.00     0.230 C 
BRANCH   8   9
HETATM    9  N           1     -25.358  -3.609  -9.659  0.00  0.00    -0.079 N 
HETATM   10  H           1     -25.366  -3.213  -8.692  0.00  0.00     0.274 HD
HETATM   11  H           1     -26.210  -4.199  -9.799  0.00  0.00     0.274 HD
HETATM   12  H           1     -25.355  -2.831 -10.355  0.00  0.00     0.274 HD
ENDBRANCH   8   9
ENDBRANCH   7   8
ENDBRANCH   6   7
ENDBRANCH   5   6
BRANCH   5  13
HETATM   13  N           1     -20.234  -4.168  -8.664  0.00  0.00    -0.067 N 
HETATM   14  H           1     -20.180  -5.197  -8.836  0.00  0.00     0.275 HD
HETATM   15  H           1     -20.592  -3.690  -9.521  0.00  0.00     0.275 HD
HETATM   16  H           1     -19.282  -3.804  -8.432  0.00  0.00     0.275 HD
ENDBRANCH   5  13
ENDBRANCH   2   5
BRANCH   4  17
HETATM   17  C           1     -21.137  -6.382  -4.598  0.00  0.00     0.185 C 
BRANCH  17  18
HETATM   18  C           1     -20.659  -7.742  -5.043  0.00  0.00     0.196 C 
HETATM   19  O           1     -19.745  -8.319  -4.415  0.00  0.00    -0.646 OA
HETATM   20  O           1     -21.177  -8.293  -6.038  0.00  0.00    -0.646 OA
ENDBRANCH  17  18
BRANCH  17  21
HETATM   21  C           1     -22.309  -6.544  -3.638  0.00  0.00     0.038 C 
BRANCH  21  22
HETATM   22  C           1     -21.870  -6.160  -2.232  0.00  0.00     0.030 C 
BRANCH  22  23
HETATM   23  C           1     -21.845  -7.402  -1.350  0.00  0.00     0.230 C 
BRANCH  23  24
HETATM   24  N           1     -20.486  -8.033  -1.413  0.00  0.00    -0.079 N 
HETATM   25  H           1     -19.877  -7.484  -2.060  0.00  0.00     0.274 HD
HETATM   26  H           1     -20.572  -9.014  -1.764  0.00  0.00     0.274 HD
HETATM   27  H           1     -20.062  -8.042  -0.458  0.00  0.00     0.274 HD
ENDBRANCH  23  24
ENDBRANCH  22  23
ENDBRANCH  21  22
ENDBRANCH  17  21
ENDBRANCH   4  17
TORSDOF 12
ENDMDL
MODEL 6
REMARK VINA RESULT:      -5.2     12.695     15.015
REMARK  12 active torsions:
REMARK  status: ('A' for Active; 'I' for Inactive)
REMARK    1  A    between atoms: N_2  and  C_20 
REMARK    2  A    between atoms: C_5  and  C_20 
REMARK    3  A    between atoms: C_5  and  C_23 
REMARK       I    between atoms: C_9  and  N_25 
REMARK    4  A    between atoms: C_9  and  C_11 
REMARK    5  A    between atoms: C_10  and  C_18 
REMARK    6  A    between atoms: C_10  and  N_15 
REMARK    7  A    between atoms: C_11  and  C_17 
REMARK    8  A    between atoms: C_11  and  N_27 
REMARK    9  A    between atoms: C_16  and  C_21 
REMARK   10  A    between atoms: C_17  and  C_18 
REMARK   11  A    between atoms: C_21  and  C_23 
REMARK   12  A    between atoms: C_21  and  N_25 
ROOT
HETATM    1  O           1     -22.591  -5.614  -5.696  0.00  0.00    -0.271 OA
HETATM    2  C           1     -21.392  -5.763  -5.685  0.00  0.00     0.249 C 
HETATM    3  H           1     -19.820  -6.802  -4.828  0.00  0.00     0.163 HD
HETATM    4  N           1     -20.824  -6.676  -4.837  0.00  0.00    -0.345 N 
ENDROOT
BRANCH   2   5
HETATM    5  C           1     -20.521  -4.945  -6.606  0.00  0.00     0.274 C 
BRANCH   5   6
HETATM    6  C           1     -21.343  -3.816  -7.212  0.00  0.00     0.044 C 
BRANCH   6   7
HETATM    7  C           1     -21.505  -4.051  -8.708  0.00  0.00     0.030 C 
BRANCH   7   8
HETATM    8  C           1     -22.938  -3.741  -9.120  0.00  0.00     0.230 C 
BRANCH   8   9
HETATM    9  N           1     -23.869  -4.092  -7.998  0.00  0.00    -0.079 N 
HETATM   10  H           1     -23.314  -4.291  -7.135  0.00  0.00     0.274 HD
HETATM   11  H           1     -24.424  -4.939  -8.258  0.00  0.00     0.274 HD
HETATM   12  H           1     -24.517  -3.292  -7.819  0.00  0.00     0.274 HD
ENDBRANCH   8   9
ENDBRANCH   7   8
ENDBRANCH   6   7
ENDBRANCH   5   6
BRANCH   5  13
HETATM   13  N           1     -19.991  -5.822  -7.702  0.00  0.00    -0.067 N 
HETATM   14  H           1     -19.040  -6.169  -7.442  0.00  0.00     0.275 HD
HETATM   15  H           1     -20.633  -6.634  -7.838  0.00  0.00     0.275 HD
HETATM   16  H           1     -19.930  -5.272  -8.589  0.00  0.00     0.275 HD
ENDBRANCH   5  13
ENDBRANCH   2   5
BRANCH   4  17
HETATM   17  C           1     -21.661  -7.463  -3.952  0.00  0.00     0.185 C 
BRANCH  17  18
HETATM   18  C           1     -21.622  -6.869  -2.565  0.00  0.00     0.196 C 
HETATM   19  O           1     -22.340  -5.885  -2.286  0.00  0.00    -0.646 OA
HETATM   20  O           1     -20.872  -7.361  -1.695  0.00  0.00    -0.646 OA
ENDBRANCH  17  18
BRANCH  17  21
HETATM   21  C           1     -21.145  -8.895  -3.906  0.00  0.00     0.038 C 
BRANCH  21  22
HETATM   22  C           1     -19.845  -8.991  -4.694  0.00  0.00     0.030 C 
BRANCH  22  23
HETATM   23  C           1     -18.698  -9.315  -3.746  0.00  0.00     0.230 C 
BRANCH  23  24
HETATM   24  N           1     -19.250  -9.826  -2.448  0.00  0.00    -0.079 N 
HETATM   25  H           1     -19.569  -9.020  -1.864  0.00  0.00     0.274 HD
HETATM   26  H           1     -18.508 -10.354  -1.937  0.00  0.00     0.274 HD
HETATM   27  H           1     -20.059 -10.459  -2.640  0.00  0.00     0.274 HD
ENDBRANCH  23  24
ENDBRANCH  22  23
ENDBRANCH  21  22
ENDBRANCH  17  21
ENDBRANCH   4  17
TORSDOF 12
ENDMDL
MODEL 7
REMARK VINA RESULT:      -5.1     12.014     14.067
REMARK  12 active torsions:
REMARK  status: ('A' for Active; 'I' for Inactive)
REMARK    1  A    between atoms: N_2  and  C_20 
REMARK    2  A    between atoms: C_5  and  C_20 
REMARK    3  A    between atoms: C_5  and  C_23 
REMARK       I    between atoms: C_9  and  N_25 
REMARK    4  A    between atoms: C_9  and  C_11 
REMARK    5  A    between atoms: C_10  and  C_18 
REMARK    6  A    between atoms: C_10  and  N_15 
REMARK    7  A    between atoms: C_11  and  C_17 
REMARK    8  A    between atoms: C_11  and  N_27 
REMARK    9  A    between atoms: C_16  and  C_21 
REMARK   10  A    between atoms: C_17  and  C_18 
REMARK   11  A    between atoms: C_21  and  C_23 
REMARK   12  A    between atoms: C_21  and  N_25 
ROOT
HETATM    1  O           1     -20.744  -4.358  -6.136  0.00  0.00    -0.271 OA
HETATM    2  C           1     -21.523  -5.168  -6.579  0.00  0.00     0.249 C 
HETATM    3  H           1     -22.409  -7.014  -6.270  0.00  0.00     0.163 HD
HETATM    4  N           1     -21.755  -6.335  -5.900  0.00  0.00    -0.345 N 
ENDROOT
BRANCH   2   5
HETATM    5  C           1     -22.242  -4.895  -7.877  0.00  0.00     0.274 C 
BRANCH   5   6
HETATM    6  C           1     -21.352  -4.051  -8.781  0.00  0.00     0.044 C 
BRANCH   6   7
HETATM    7  C           1     -22.125  -3.662 -10.034  0.00  0.00     0.030 C 
BRANCH   7   8
HETATM    8  C           1     -21.461  -4.282 -11.256  0.00  0.00     0.230 C 
BRANCH   8   9
HETATM    9  N           1     -20.308  -3.426 -11.688  0.00  0.00    -0.079 N 
HETATM   10  H           1     -20.542  -2.958 -12.593  0.00  0.00     0.274 HD
HETATM   11  H           1     -19.458  -4.022 -11.813  0.00  0.00     0.274 HD
HETATM   12  H           1     -20.121  -2.701 -10.959  0.00  0.00     0.274 HD
ENDBRANCH   8   9
ENDBRANCH   7   8
ENDBRANCH   6   7
ENDBRANCH   5   6
BRANCH   5  13
HETATM   13  N           1     -23.515  -4.154  -7.597  0.00  0.00    -0.067 N 
HETATM   14  H           1     -23.505  -3.240  -8.103  0.00  0.00     0.275 HD
HETATM   15  H           1     -24.328  -4.723  -7.923  0.00  0.00     0.275 HD
HETATM   16  H           1     -23.599  -3.982  -6.569  0.00  0.00     0.275 HD
ENDBRANCH   5  13
ENDBRANCH   2   5
BRANCH   4  17
HETATM   17  C           1     -21.066  -6.598  -4.652  0.00  0.00     0.185 C 
BRANCH  17  18
HETATM   18  C           1     -20.097  -7.738  -4.844  0.00  0.00     0.196 C 
HETATM   19  O           1     -19.800  -8.475  -3.879  0.00  0.00    -0.646 OA
HETATM   20  O           1     -19.592  -7.947  -5.968  0.00  0.00    -0.646 OA
ENDBRANCH  17  18
BRANCH  17  21
HETATM   21  C           1     -22.082  -6.970  -3.580  0.00  0.00     0.038 C 
BRANCH  21  22
HETATM   22  C           1     -21.879  -6.083  -2.359  0.00  0.00     0.030 C 
BRANCH  22  23
HETATM   23  C           1     -22.141  -6.891  -1.094  0.00  0.00     0.230 C 
BRANCH  23  24
HETATM   24  N           1     -21.238  -8.088  -1.069  0.00  0.00    -0.079 N 
HETATM   25  H           1     -20.661  -8.070  -0.198  0.00  0.00     0.274 HD
HETATM   26  H           1     -20.608  -8.067  -1.903  0.00  0.00     0.274 HD
HETATM   27  H           1     -21.814  -8.959  -1.089  0.00  0.00     0.274 HD
ENDBRANCH  23  24
ENDBRANCH  22  23
ENDBRANCH  21  22
ENDBRANCH  17  21
ENDBRANCH   4  17
TORSDOF 12
ENDMDL
MODEL 8
REMARK VINA RESULT:      -4.9     12.292     15.004
REMARK  12 active torsions:
REMARK  status: ('A' for Active; 'I' for Inactive)
REMARK    1  A    between atoms: N_2  and  C_20 
REMARK    2  A    between atoms: C_5  and  C_20 
REMARK    3  A    between atoms: C_5  and  C_23 
REMARK       I    between atoms: C_9  and  N_25 
REMARK    4  A    between atoms: C_9  and  C_11 
REMARK    5  A    between atoms: C_10  and  C_18 
REMARK    6  A    between atoms: C_10  and  N_15 
REMARK    7  A    between atoms: C_11  and  C_17 
REMARK    8  A    between atoms: C_11  and  N_27 
REMARK    9  A    between atoms: C_16  and  C_21 
REMARK   10  A    between atoms: C_17  and  C_18 
REMARK   11  A    between atoms: C_21  and  C_23 
REMARK   12  A    between atoms: C_21  and  N_25 
ROOT
HETATM    1  O           1     -21.045  -7.790  -6.261  0.00  0.00    -0.271 OA
HETATM    2  C           1     -21.568  -7.030  -5.481  0.00  0.00     0.249 C 
HETATM    3  H           1     -22.213  -5.086  -5.182  0.00  0.00     0.163 HD
HETATM    4  N           1     -21.774  -5.723  -5.834  0.00  0.00    -0.345 N 
ENDROOT
BRANCH   2   5
HETATM    5  C           1     -21.995  -7.520  -4.120  0.00  0.00     0.274 C 
BRANCH   5   6
HETATM    6  C           1     -21.281  -6.713  -3.043  0.00  0.00     0.044 C 
BRANCH   6   7
HETATM    7  C           1     -22.227  -6.479  -1.873  0.00  0.00     0.030 C 
BRANCH   7   8
HETATM    8  C           1     -21.865  -7.418  -0.730  0.00  0.00     0.230 C 
BRANCH   8   9
HETATM    9  N           1     -23.082  -7.681   0.106  0.00  0.00    -0.079 N 
HETATM   10  H           1     -22.826  -8.296   0.911  0.00  0.00     0.274 HD
HETATM   11  H           1     -23.809  -8.156  -0.476  0.00  0.00     0.274 HD
HETATM   12  H           1     -23.461  -6.776   0.466  0.00  0.00     0.274 HD
ENDBRANCH   8   9
ENDBRANCH   7   8
ENDBRANCH   6   7
ENDBRANCH   5   6
BRANCH   5  13
HETATM   13  N           1     -21.640  -8.970  -3.976  0.00  0.00    -0.067 N 
HETATM   14  H           1     -20.685  -9.055  -3.559  0.00  0.00     0.275 HD
HETATM   15  H           1     -22.335  -9.439  -3.354  0.00  0.00     0.275 HD
HETATM   16  H           1     -21.650  -9.426  -4.917  0.00  0.00     0.275 HD
ENDBRANCH   5  13
ENDBRANCH   2   5
BRANCH   4  17
HETATM   17  C           1     -21.365  -5.252  -7.143  0.00  0.00     0.185 C 
BRANCH  17  18
HETATM   18  C           1     -19.980  -4.658  -7.052  0.00  0.00     0.196 C 
HETATM   19  O           1     -19.377  -4.319  -8.093  0.00  0.00    -0.646 OA
HETATM   20  O           1     -19.438  -4.506  -5.937  0.00  0.00    -0.646 OA
ENDBRANCH  17  18
BRANCH  17  21
HETATM   21  C           1     -22.342  -4.189  -7.628  0.00  0.00     0.038 C 
BRANCH  21  22
HETATM   22  C           1     -22.755  -4.495  -9.061  0.00  0.00     0.030 C 
BRANCH  22  23
HETATM   23  C           1     -23.847  -3.525  -9.494  0.00  0.00     0.230 C 
BRANCH  23  24
HETATM   24  N           1     -25.161  -4.245  -9.554  0.00  0.00    -0.079 N 
HETATM   25  H           1     -25.236  -4.759 -10.461  0.00  0.00     0.274 HD
HETATM   26  H           1     -25.942  -3.554  -9.482  0.00  0.00     0.274 HD
HETATM   27  H           1     -25.223  -4.924  -8.762  0.00  0.00     0.274 HD
ENDBRANCH  23  24
ENDBRANCH  22  23
ENDBRANCH  21  22
ENDBRANCH  17  21
ENDBRANCH   4  17
TORSDOF 12
ENDMDL
MODEL 9
REMARK VINA RESULT:      -4.7      3.135      4.858
REMARK  12 active torsions:
REMARK  status: ('A' for Active; 'I' for Inactive)
REMARK    1  A    between atoms: N_2  and  C_20 
REMARK    2  A    between atoms: C_5  and  C_20 
REMARK    3  A    between atoms: C_5  and  C_23 
REMARK       I    between atoms: C_9  and  N_25 
REMARK    4  A    between atoms: C_9  and  C_11 
REMARK    5  A    between atoms: C_10  and  C_18 
REMARK    6  A    between atoms: C_10  and  N_15 
REMARK    7  A    between atoms: C_11  and  C_17 
REMARK    8  A    between atoms: C_11  and  N_27 
REMARK    9  A    between atoms: C_16  and  C_21 
REMARK   10  A    between atoms: C_17  and  C_18 
REMARK   11  A    between atoms: C_21  and  C_23 
REMARK   12  A    between atoms: C_21  and  N_25 
ROOT
HETATM    1  O           1     -28.227  -7.649 -15.753  0.00  0.00    -0.271 OA
HETATM    2  C           1     -28.036  -6.829 -16.620  0.00  0.00     0.249 C 
HETATM    3  H           1     -28.890  -5.801 -18.200  0.00  0.00     0.163 HD
HETATM    4  N           1     -29.050  -6.488 -17.474  0.00  0.00    -0.345 N 
ENDROOT
BRANCH   2   5
HETATM    5  C           1     -26.681  -6.180 -16.759  0.00  0.00     0.274 C 
BRANCH   5   6
HETATM    6  C           1     -25.728  -6.766 -15.726  0.00  0.00     0.044 C 
BRANCH   6   7
HETATM    7  C           1     -24.592  -7.489 -16.435  0.00  0.00     0.030 C 
BRANCH   7   8
HETATM    8  C           1     -24.507  -7.012 -17.879  0.00  0.00     0.230 C 
BRANCH   8   9
HETATM    9  N           1     -23.098  -7.156 -18.372  0.00  0.00    -0.079 N 
HETATM   10  H           1     -22.949  -8.129 -18.723  0.00  0.00     0.274 HD
HETATM   11  H           1     -22.433  -6.963 -17.589  0.00  0.00     0.274 HD
HETATM   12  H           1     -22.929  -6.475 -19.147  0.00  0.00     0.274 HD
ENDBRANCH   8   9
ENDBRANCH   7   8
ENDBRANCH   6   7
ENDBRANCH   5   6
BRANCH   5  13
HETATM   13  N           1     -26.810  -4.702 -16.538  0.00  0.00    -0.067 N 
HETATM   14  H           1     -25.864  -4.291 -16.368  0.00  0.00     0.275 HD
HETATM   15  H           1     -27.234  -4.259 -17.384  0.00  0.00     0.275 HD
HETATM   16  H           1     -27.421  -4.526 -15.708  0.00  0.00     0.275 HD
ENDBRANCH   5  13
ENDBRANCH   2   5
BRANCH   4  17
HETATM   17  C           1     -30.352  -7.112 -17.340  0.00  0.00     0.185 C 
BRANCH  17  18
HETATM   18  C           1     -30.671  -7.883 -18.597  0.00  0.00     0.196 C 
HETATM   19  O           1     -31.805  -7.791 -19.116  0.00  0.00    -0.646 OA
HETATM   20  O           1     -29.803  -8.614 -19.119  0.00  0.00    -0.646 OA
ENDBRANCH  17  18
BRANCH  17  21
HETATM   21  C           1     -31.409  -6.036 -17.123  0.00  0.00     0.038 C 
BRANCH  21  22
HETATM   22  C           1     -30.738  -4.754 -16.647  0.00  0.00     0.030 C 
BRANCH  22  23
HETATM   23  C           1     -31.058  -3.623 -17.615  0.00  0.00     0.230 C 
BRANCH  23  24
HETATM   24  N           1     -32.490  -3.210 -17.446  0.00  0.00    -0.079 N 
HETATM   25  H           1     -32.902  -3.709 -16.625  0.00  0.00     0.274 HD
HETATM   26  H           1     -33.028  -3.457 -18.308  0.00  0.00     0.274 HD
HETATM   27  H           1     -32.539  -2.179 -17.289  0.00  0.00     0.274 HD
ENDBRANCH  23  24
ENDBRANCH  22  23
ENDBRANCH  21  22
ENDBRANCH  17  21
ENDBRANCH   4  17
TORSDOF 12
ENDMDL
