MODEL 1
REMARK VINA RESULT:      -6.3      0.000      0.000
REMARK  11 active torsions:
REMARK  status: ('A' for Active; 'I' for Inactive)
REMARK    1  A    between atoms: N_3  and  C_21 
REMARK    2  A    between atoms: C_11  and  C_27 
REMARK    3  A    between atoms: C_11  and  C_12 
REMARK    4  A    between atoms: C_12  and  C_13 
REMARK    5  A    between atoms: C_13  and  C_14 
REMARK    6  A    between atoms: C_14  and  C_15 
REMARK    7  A    between atoms: C_14  and  N_23 
REMARK       I    between atoms: N_18  and  C_19 
REMARK    8  A    between atoms: C_19  and  C_20 
REMARK    9  A    between atoms: C_20  and  C_21 
REMARK   10  A    between atoms: C_21  and  C_22 
REMARK       I    between atoms: C_22  and  N_23 
REMARK   11  A    between atoms: N_25  and  C_27 
ROOT
HETATM    1  O           1     -24.279  -6.628 -18.606  0.00  0.00    -0.271 OA
HETATM    2  H           1     -27.384  -7.072 -18.601  0.00  0.00     0.163 HD
HETATM    3  C           1     -25.354  -7.013 -18.999  0.00  0.00     0.249 C 
HETATM    4  N           1     -26.484  -6.748 -18.273  0.00  0.00    -0.345 N 
ENDROOT
BRANCH   4   5
HETATM    5  C           1     -26.389  -6.003 -17.032  0.00  0.00     0.185 C 
BRANCH   5   6
HETATM    6  C           1     -27.628  -5.133 -16.868  0.00  0.00     0.036 C 
BRANCH   6   7
HETATM    7  C           1     -28.520  -5.283 -18.093  0.00  0.00     0.004 C 
BRANCH   7   8
HETATM    8  C           1     -29.849  -5.901 -17.681  0.00  0.00     0.027 C 
BRANCH   8   9
HETATM    9  C           1     -29.951  -7.312 -18.247  0.00  0.00     0.229 C 
BRANCH   9  10
HETATM   10  N           1     -29.430  -8.294 -17.240  0.00  0.00    -0.079 N 
HETATM   11  H           1     -29.085  -7.780 -16.398  0.00  0.00     0.274 HD
HETATM   12  H           1     -28.644  -8.840 -17.661  0.00  0.00     0.274 HD
HETATM   13  H           1     -30.196  -8.947 -16.960  0.00  0.00     0.274 HD
ENDBRANCH   9  10
ENDBRANCH   8   9
ENDBRANCH   7   8
ENDBRANCH   6   7
ENDBRANCH   5   6
BRANCH   5  14
HETATM   14  C           1     -26.293  -6.966 -15.874  0.00  0.00     0.196 C 
HETATM   15  O           1     -27.334  -7.407 -15.340  0.00  0.00    -0.646 OA
HETATM   16  O           1     -25.174  -7.325 -15.450  0.00  0.00    -0.646 OA
ENDBRANCH   5  14
ENDBRANCH   4   5
BRANCH   3  17
HETATM   17  C           1     -25.452  -7.789 -20.290  0.00  0.00     0.283 C 
BRANCH  17  18
HETATM   18  N           1     -26.876  -7.798 -20.760  0.00  0.00    -0.066 N 
HETATM   19  H           1     -26.900  -7.762 -21.804  0.00  0.00     0.275 HD
HETATM   20  H           1     -27.346  -8.673 -20.431  0.00  0.00     0.275 HD
HETATM   21  H           1     -27.377  -6.967 -20.371  0.00  0.00     0.275 HD
ENDBRANCH  17  18
BRANCH  17  22
HETATM   22  C           1     -24.574  -7.132 -21.346  0.00  0.00     0.145 C 
BRANCH  22  23
HETATM   23  C           1     -23.462  -8.076 -21.734  0.00  0.00     0.217 C 
HETATM   24  O           1     -23.269  -8.336 -22.898  0.00  0.00    -0.274 OA
HETATM   25  N           1     -22.672  -8.638 -20.769  0.00  0.00    -0.370 N 
HETATM   26  H           1     -22.834  -8.420 -19.793  0.00  0.00     0.159 HD
HETATM   27  H           1     -21.927  -9.271 -21.029  0.00  0.00     0.159 HD
ENDBRANCH  22  23
ENDBRANCH  17  22
ENDBRANCH   3  17
TORSDOF 11
ENDMDL
MODEL 2
REMARK VINA RESULT:      -6.3     11.276     12.776
REMARK  11 active torsions:
REMARK  status: ('A' for Active; 'I' for Inactive)
REMARK    1  A    between atoms: N_3  and  C_21 
REMARK    2  A    between atoms: C_11  and  C_27 
REMARK    3  A    between atoms: C_11  and  C_12 
REMARK    4  A    between atoms: C_12  and  C_13 
REMARK    5  A    between atoms: C_13  and  C_14 
REMARK    6  A    between atoms: C_14  and  C_15 
REMARK    7  A    between atoms: C_14  and  N_23 
REMARK       I    between atoms: N_18  and  C_19 
REMARK    8  A    between atoms: C_19  and  C_20 
REMARK    9  A    between atoms: C_20  and  C_21 
REMARK   10  A    between atoms: C_21  and  C_22 
REMARK       I    between atoms: C_22  and  N_23 
REMARK   11  A    between atoms: N_25  and  C_27 
ROOT
HETATM    1  O           1     -36.454  -0.817 -11.644  0.00  0.00    -0.271 OA
HETATM    2  H           1     -34.580  -2.268 -13.698  0.00  0.00     0.163 HD
HETATM    3  C           1     -35.906  -1.034 -12.698  0.00  0.00     0.249 C 
HETATM    4  N           1     -35.039  -2.087 -12.815  0.00  0.00    -0.345 N 
ENDROOT
BRANCH   4   5
HETATM    5  C           1     -34.781  -2.944 -11.674  0.00  0.00     0.185 C 
BRANCH   5   6
HETATM    6  C           1     -34.755  -4.397 -12.126  0.00  0.00     0.036 C 
BRANCH   6   7
HETATM    7  C           1     -35.120  -5.300 -10.955  0.00  0.00     0.004 C 
BRANCH   7   8
HETATM    8  C           1     -34.041  -6.359 -10.774  0.00  0.00     0.027 C 
BRANCH   8   9
HETATM    9  C           1     -34.633  -7.575 -10.073  0.00  0.00     0.229 C 
BRANCH   9  10
HETATM   10  N           1     -33.742  -8.762 -10.293  0.00  0.00    -0.079 N 
HETATM   11  H           1     -33.098  -8.871  -9.477  0.00  0.00     0.274 HD
HETATM   12  H           1     -33.181  -8.620 -11.163  0.00  0.00     0.274 HD
HETATM   13  H           1     -34.327  -9.622 -10.393  0.00  0.00     0.274 HD
ENDBRANCH   9  10
ENDBRANCH   8   9
ENDBRANCH   7   8
ENDBRANCH   6   7
ENDBRANCH   5   6
BRANCH   5  14
HETATM   14  C           1     -33.447  -2.582 -11.067  0.00  0.00     0.196 C 
HETATM   15  O           1     -32.423  -3.225 -11.382  0.00  0.00    -0.646 OA
HETATM   16  O           1     -33.367  -1.639 -10.251  0.00  0.00    -0.646 OA
ENDBRANCH   5  14
ENDBRANCH   4   5
BRANCH   3  17
HETATM   17  C           1     -36.175  -0.143 -13.886  0.00  0.00     0.283 C 
BRANCH  17  18
HETATM   18  N           1     -35.308  -0.565 -15.034  0.00  0.00    -0.066 N 
HETATM   19  H           1     -34.330  -0.232 -14.875  0.00  0.00     0.275 HD
HETATM   20  H           1     -35.312  -1.608 -15.108  0.00  0.00     0.275 HD
HETATM   21  H           1     -35.677  -0.151 -15.920  0.00  0.00     0.275 HD
ENDBRANCH  17  18
BRANCH  17  22
HETATM   22  C           1     -37.639  -0.258 -14.287  0.00  0.00     0.145 C 
BRANCH  22  23
HETATM   23  C           1     -37.805   0.188 -15.719  0.00  0.00     0.217 C 
HETATM   24  O           1     -37.701  -0.613 -16.618  0.00  0.00    -0.274 OA
HETATM   25  N           1     -38.073   1.500 -16.001  0.00  0.00    -0.370 N 
HETATM   26  H           1     -38.161   2.172 -15.249  0.00  0.00     0.159 HD
HETATM   27  H           1     -38.185   1.799 -16.962  0.00  0.00     0.159 HD
ENDBRANCH  22  23
ENDBRANCH  17  22
ENDBRANCH   3  17
TORSDOF 11
ENDMDL
MODEL 3
REMARK VINA RESULT:      -6.2     11.393     13.320
REMARK  11 active torsions:
REMARK  status: ('A' for Active; 'I' for Inactive)
REMARK    1  A    between atoms: N_3  and  C_21 
REMARK    2  A    between atoms: C_11  and  C_27 
REMARK    3  A    between atoms: C_11  and  C_12 
REMARK    4  A    between atoms: C_12  and  C_13 
REMARK    5  A    between atoms: C_13  and  C_14 
REMARK    6  A    between atoms: C_14  and  C_15 
REMARK    7  A    between atoms: C_14  and  N_23 
REMARK       I    between atoms: N_18  and  C_19 
REMARK    8  A    between atoms: C_19  and  C_20 
REMARK    9  A    between atoms: C_20  and  C_21 
REMARK   10  A    between atoms: C_21  and  C_22 
REMARK       I    between atoms: C_22  and  N_23 
REMARK   11  A    between atoms: N_25  and  C_27 
ROOT
HETATM    1  O           1     -37.163  -1.014 -13.000  0.00  0.00    -0.271 OA
HETATM    2  H           1     -34.536   0.020 -11.632  0.00  0.00     0.163 HD
HETATM    3  C           1     -36.141  -0.383 -12.876  0.00  0.00     0.249 C 
HETATM    4  N           1     -35.392  -0.510 -11.737  0.00  0.00    -0.345 N 
ENDROOT
BRANCH   4   5
HETATM    5  C           1     -35.825  -1.404 -10.681  0.00  0.00     0.185 C 
BRANCH   5   6
HETATM    6  C           1     -34.612  -2.091 -10.069  0.00  0.00     0.036 C 
BRANCH   6   7
HETATM    7  C           1     -33.481  -2.130 -11.089  0.00  0.00     0.004 C 
BRANCH   7   8
HETATM    8  C           1     -33.195  -3.575 -11.476  0.00  0.00     0.027 C 
BRANCH   8   9
HETATM    9  C           1     -33.894  -3.899 -12.789  0.00  0.00     0.229 C 
BRANCH   9  10
HETATM   10  N           1     -34.637  -5.195 -12.655  0.00  0.00    -0.079 N 
HETATM   11  H           1     -33.960  -5.965 -12.449  0.00  0.00     0.274 HD
HETATM   12  H           1     -35.140  -5.402 -13.547  0.00  0.00     0.274 HD
HETATM   13  H           1     -35.328  -5.121 -11.874  0.00  0.00     0.274 HD
ENDBRANCH   9  10
ENDBRANCH   8   9
ENDBRANCH   7   8
ENDBRANCH   6   7
ENDBRANCH   5   6
BRANCH   5  14
HETATM   14  C           1     -36.545  -0.612  -9.616  0.00  0.00     0.196 C 
HETATM   15  O           1     -35.907  -0.137  -8.652  0.00  0.00    -0.646 OA
HETATM   16  O           1     -37.778  -0.430  -9.699  0.00  0.00    -0.646 OA
ENDBRANCH   5  14
ENDBRANCH   4   5
BRANCH   3  17
HETATM   17  C           1     -35.690   0.548 -13.975  0.00  0.00     0.283 C 
BRANCH  17  18
HETATM   18  N           1     -34.365   1.147 -13.610  0.00  0.00    -0.066 N 
HETATM   19  H           1     -34.472   2.177 -13.474  0.00  0.00     0.275 HD
HETATM   20  H           1     -34.019   0.713 -12.724  0.00  0.00     0.275 HD
HETATM   21  H           1     -33.678   0.966 -14.378  0.00  0.00     0.275 HD
ENDBRANCH  17  18
BRANCH  17  22
HETATM   22  C           1     -35.555  -0.230 -15.276  0.00  0.00     0.145 C 
BRANCH  22  23
HETATM   23  C           1     -36.777   0.002 -16.132  0.00  0.00     0.217 C 
HETATM   24  O           1     -37.079  -0.799 -16.984  0.00  0.00    -0.274 OA
HETATM   25  N           1     -37.543   1.120 -15.942  0.00  0.00    -0.370 N 
HETATM   26  H           1     -37.290   1.792 -15.228  0.00  0.00     0.159 HD
HETATM   27  H           1     -38.362   1.276 -16.515  0.00  0.00     0.159 HD
ENDBRANCH  22  23
ENDBRANCH  17  22
ENDBRANCH   3  17
TORSDOF 11
ENDMDL
MODEL 4
REMARK VINA RESULT:      -6.1     10.945     12.767
REMARK  11 active torsions:
REMARK  status: ('A' for Active; 'I' for Inactive)
REMARK    1  A    between atoms: N_3  and  C_21 
REMARK    2  A    between atoms: C_11  and  C_27 
REMARK    3  A    between atoms: C_11  and  C_12 
REMARK    4  A    between atoms: C_12  and  C_13 
REMARK    5  A    between atoms: C_13  and  C_14 
REMARK    6  A    between atoms: C_14  and  C_15 
REMARK    7  A    between atoms: C_14  and  N_23 
REMARK       I    between atoms: N_18  and  C_19 
REMARK    8  A    between atoms: C_19  and  C_20 
REMARK    9  A    between atoms: C_20  and  C_21 
REMARK   10  A    between atoms: C_21  and  C_22 
REMARK       I    between atoms: C_22  and  N_23 
REMARK   11  A    between atoms: N_25  and  C_27 
ROOT
HETATM    1  O           1     -33.270  -2.220 -10.858  0.00  0.00    -0.271 OA
HETATM    2  H           1     -35.819  -2.904 -12.553  0.00  0.00     0.163 HD
HETATM    3  C           1     -34.034  -2.894 -11.507  0.00  0.00     0.249 C 
HETATM    4  N           1     -35.179  -2.339 -12.010  0.00  0.00    -0.345 N 
ENDROOT
BRANCH   4   5
HETATM    5  C           1     -35.475  -0.941 -11.765  0.00  0.00     0.185 C 
BRANCH   5   6
HETATM    6  C           1     -35.982  -0.297 -13.049  0.00  0.00     0.036 C 
BRANCH   6   7
HETATM    7  C           1     -34.965   0.724 -13.541  0.00  0.00     0.004 C 
BRANCH   7   8
HETATM    8  C           1     -35.261   1.077 -14.993  0.00  0.00     0.027 C 
BRANCH   8   9
HETATM    9  C           1     -36.507   0.331 -15.454  0.00  0.00     0.229 C 
BRANCH   9  10
HETATM   10  N           1     -37.530   1.317 -15.935  0.00  0.00    -0.079 N 
HETATM   11  H           1     -38.322   0.805 -16.387  0.00  0.00     0.274 HD
HETATM   12  H           1     -37.091   1.963 -16.630  0.00  0.00     0.274 HD
HETATM   13  H           1     -37.890   1.870 -15.125  0.00  0.00     0.274 HD
ENDBRANCH   9  10
ENDBRANCH   8   9
ENDBRANCH   7   8
ENDBRANCH   6   7
ENDBRANCH   5   6
BRANCH   5  14
HETATM   14  C           1     -36.533  -0.831 -10.695  0.00  0.00     0.196 C 
HETATM   15  O           1     -37.721  -1.116 -10.960  0.00  0.00    -0.646 OA
HETATM   16  O           1     -36.222  -0.458  -9.544  0.00  0.00    -0.646 OA
ENDBRANCH   5  14
ENDBRANCH   4   5
BRANCH   3  17
HETATM   17  C           1     -33.726  -4.349 -11.762  0.00  0.00     0.283 C 
BRANCH  17  18
HETATM   18  N           1     -32.296  -4.491 -12.191  0.00  0.00    -0.066 N 
HETATM   19  H           1     -31.675  -4.010 -11.502  0.00  0.00     0.275 HD
HETATM   20  H           1     -32.045  -5.505 -12.237  0.00  0.00     0.275 HD
HETATM   21  H           1     -32.171  -4.058 -13.134  0.00  0.00     0.275 HD
ENDBRANCH  17  18
BRANCH  17  22
HETATM   22  C           1     -33.954  -5.149 -10.487  0.00  0.00     0.145 C 
BRANCH  22  23
HETATM   23  C           1     -34.618  -6.461 -10.827  0.00  0.00     0.217 C 
HETATM   24  O           1     -34.803  -7.286  -9.963  0.00  0.00    -0.274 OA
HETATM   25  N           1     -35.010  -6.717 -12.112  0.00  0.00    -0.370 N 
HETATM   26  H           1     -34.855  -6.026 -12.835  0.00  0.00     0.159 HD
HETATM   27  H           1     -35.456  -7.597 -12.340  0.00  0.00     0.159 HD
ENDBRANCH  22  23
ENDBRANCH  17  22
ENDBRANCH   3  17
TORSDOF 11
ENDMDL
MODEL 5
REMARK VINA RESULT:      -6.1      1.908      2.534
REMARK  11 active torsions:
REMARK  status: ('A' for Active; 'I' for Inactive)
REMARK    1  A    between atoms: N_3  and  C_21 
REMARK    2  A    between atoms: C_11  and  C_27 
REMARK    3  A    between atoms: C_11  and  C_12 
REMARK    4  A    between atoms: C_12  and  C_13 
REMARK    5  A    between atoms: C_13  and  C_14 
REMARK    6  A    between atoms: C_14  and  C_15 
REMARK    7  A    between atoms: C_14  and  N_23 
REMARK       I    between atoms: N_18  and  C_19 
REMARK    8  A    between atoms: C_19  and  C_20 
REMARK    9  A    between atoms: C_20  and  C_21 
REMARK   10  A    between atoms: C_21  and  C_22 
REMARK       I    between atoms: C_22  and  N_23 
REMARK   11  A    between atoms: N_25  and  C_27 
ROOT
HETATM    1  O           1     -24.872  -6.645 -17.189  0.00  0.00    -0.271 OA
HETATM    2  H           1     -27.597  -6.062 -18.630  0.00  0.00     0.163 HD
HETATM    3  C           1     -25.645  -6.509 -18.108  0.00  0.00     0.249 C 
HETATM    4  N           1     -26.950  -6.176 -17.861  0.00  0.00    -0.345 N 
ENDROOT
BRANCH   4   5
HETATM    5  C           1     -27.404  -5.986 -16.497  0.00  0.00     0.185 C 
BRANCH   5   6
HETATM    6  C           1     -28.333  -4.781 -16.436  0.00  0.00     0.036 C 
BRANCH   6   7
HETATM    7  C           1     -28.877  -4.487 -17.827  0.00  0.00     0.004 C 
BRANCH   7   8
HETATM    8  C           1     -30.340  -4.077 -17.726  0.00  0.00     0.027 C 
BRANCH   8   9
HETATM    9  C           1     -31.003  -4.836 -16.584  0.00  0.00     0.229 C 
BRANCH   9  10
HETATM   10  N           1     -32.422  -4.374 -16.433  0.00  0.00    -0.079 N 
HETATM   11  H           1     -33.031  -4.892 -17.105  0.00  0.00     0.274 HD
HETATM   12  H           1     -32.477  -3.349 -16.630  0.00  0.00     0.274 HD
HETATM   13  H           1     -32.746  -4.557 -15.456  0.00  0.00     0.274 HD
ENDBRANCH   9  10
ENDBRANCH   8   9
ENDBRANCH   7   8
ENDBRANCH   6   7
ENDBRANCH   5   6
BRANCH   5  14
HETATM   14  C           1     -28.146  -7.218 -16.039  0.00  0.00     0.196 C 
HETATM   15  O           1     -29.000  -7.746 -16.783  0.00  0.00    -0.646 OA
HETATM   16  O           1     -27.905  -7.711 -14.917  0.00  0.00    -0.646 OA
ENDBRANCH   5  14
ENDBRANCH   4   5
BRANCH   3  17
HETATM   17  C           1     -25.173  -6.706 -19.527  0.00  0.00     0.283 C 
BRANCH  17  18
HETATM   18  N           1     -24.460  -8.021 -19.639  0.00  0.00    -0.066 N 
HETATM   19  H           1     -23.480  -7.862 -19.963  0.00  0.00     0.275 HD
HETATM   20  H           1     -24.446  -8.489 -18.703  0.00  0.00     0.275 HD
HETATM   21  H           1     -24.960  -8.631 -20.325  0.00  0.00     0.275 HD
ENDBRANCH  17  18
BRANCH  17  22
HETATM   22  C           1     -26.370  -6.697 -20.468  0.00  0.00     0.145 C 
BRANCH  22  23
HETATM   23  C           1     -26.499  -8.047 -21.131  0.00  0.00     0.217 C 
HETATM   24  O           1     -25.657  -8.419 -21.914  0.00  0.00    -0.274 OA
HETATM   25  N           1     -27.570  -8.850 -20.846  0.00  0.00    -0.370 N 
HETATM   26  H           1     -28.275  -8.539 -20.190  0.00  0.00     0.159 HD
HETATM   27  H           1     -27.656  -9.755 -21.291  0.00  0.00     0.159 HD
ENDBRANCH  22  23
ENDBRANCH  17  22
ENDBRANCH   3  17
TORSDOF 11
ENDMDL
MODEL 6
REMARK VINA RESULT:      -5.5      1.844      2.240
REMARK  11 active torsions:
REMARK  status: ('A' for Active; 'I' for Inactive)
REMARK    1  A    between atoms: N_3  and  C_21 
REMARK    2  A    between atoms: C_11  and  C_27 
REMARK    3  A    between atoms: C_11  and  C_12 
REMARK    4  A    between atoms: C_12  and  C_13 
REMARK    5  A    between atoms: C_13  and  C_14 
REMARK    6  A    between atoms: C_14  and  C_15 
REMARK    7  A    between atoms: C_14  and  N_23 
REMARK       I    between atoms: N_18  and  C_19 
REMARK    8  A    between atoms: C_19  and  C_20 
REMARK    9  A    between atoms: C_20  and  C_21 
REMARK   10  A    between atoms: C_21  and  C_22 
REMARK       I    between atoms: C_22  and  N_23 
REMARK   11  A    between atoms: N_25  and  C_27 
ROOT
HETATM    1  O           1     -26.984  -5.872 -20.040  0.00  0.00    -0.271 OA
HETATM    2  H           1     -25.812  -6.947 -17.336  0.00  0.00     0.163 HD
HETATM    3  C           1     -26.196  -6.407 -19.296  0.00  0.00     0.249 C 
HETATM    4  N           1     -26.472  -6.500 -17.959  0.00  0.00    -0.345 N 
ENDROOT
BRANCH   4   5
HETATM    5  C           1     -27.711  -5.958 -17.435  0.00  0.00     0.185 C 
BRANCH   5   6
HETATM    6  C           1     -28.882  -6.794 -17.935  0.00  0.00     0.036 C 
BRANCH   6   7
HETATM    7  C           1     -30.152  -5.954 -17.913  0.00  0.00     0.004 C 
BRANCH   7   8
HETATM    8  C           1     -29.815  -4.514 -18.279  0.00  0.00     0.027 C 
BRANCH   8   9
HETATM    9  C           1     -30.756  -3.569 -17.544  0.00  0.00     0.229 C 
BRANCH   9  10
HETATM   10  N           1     -31.746  -4.367 -16.748  0.00  0.00    -0.079 N 
HETATM   11  H           1     -31.810  -5.334 -17.139  0.00  0.00     0.274 HD
HETATM   12  H           1     -32.683  -3.908 -16.797  0.00  0.00     0.274 HD
HETATM   13  H           1     -31.434  -4.415 -15.751  0.00  0.00     0.274 HD
ENDBRANCH   9  10
ENDBRANCH   8   9
ENDBRANCH   7   8
ENDBRANCH   6   7
ENDBRANCH   5   6
BRANCH   5  14
HETATM   14  C           1     -27.676  -5.992 -15.927  0.00  0.00     0.196 C 
HETATM   15  O           1     -27.995  -4.977 -15.271  0.00  0.00    -0.646 OA
HETATM   16  O           1     -27.330  -7.035 -15.333  0.00  0.00    -0.646 OA
ENDBRANCH   5  14
ENDBRANCH   4   5
BRANCH   3  17
HETATM   17  C           1     -24.907  -6.971 -19.841  0.00  0.00     0.283 C 
BRANCH  17  18
HETATM   18  N           1     -24.114  -7.577 -18.722  0.00  0.00    -0.066 N 
HETATM   19  H           1     -23.655  -6.819 -18.168  0.00  0.00     0.275 HD
HETATM   20  H           1     -24.752  -8.125 -18.101  0.00  0.00     0.275 HD
HETATM   21  H           1     -23.383  -8.212 -19.117  0.00  0.00     0.275 HD
ENDBRANCH  17  18
BRANCH  17  22
HETATM   22  C           1     -25.218  -8.040 -20.879  0.00  0.00     0.145 C 
BRANCH  22  23
HETATM   23  C           1     -24.021  -8.234 -21.778  0.00  0.00     0.217 C 
HETATM   24  O           1     -24.024  -7.776 -22.896  0.00  0.00    -0.274 OA
HETATM   25  N           1     -22.930  -8.926 -21.326  0.00  0.00    -0.370 N 
HETATM   26  H           1     -22.927  -9.309 -20.389  0.00  0.00     0.159 HD
HETATM   27  H           1     -22.127  -9.055 -21.928  0.00  0.00     0.159 HD
ENDBRANCH  22  23
ENDBRANCH  17  22
ENDBRANCH   3  17
TORSDOF 11
ENDMDL
MODEL 7
REMARK VINA RESULT:      -5.5     11.918     14.009
REMARK  11 active torsions:
REMARK  status: ('A' for Active; 'I' for Inactive)
REMARK    1  A    between atoms: N_3  and  C_21 
REMARK    2  A    between atoms: C_11  and  C_27 
REMARK    3  A    between atoms: C_11  and  C_12 
REMARK    4  A    between atoms: C_12  and  C_13 
REMARK    5  A    between atoms: C_13  and  C_14 
REMARK    6  A    between atoms: C_14  and  C_15 
REMARK    7  A    between atoms: C_14  and  N_23 
REMARK       I    between atoms: N_18  and  C_19 
REMARK    8  A    between atoms: C_19  and  C_20 
REMARK    9  A    between atoms: C_20  and  C_21 
REMARK   10  A    between atoms: C_21  and  C_22 
REMARK       I    between atoms: C_22  and  N_23 
REMARK   11  A    between atoms: N_25  and  C_27 
ROOT
HETATM    1  O           1     -20.231  -4.371  -6.607  0.00  0.00    -0.271 OA
HETATM    2  H           1     -22.098  -6.866  -6.966  0.00  0.00     0.163 HD
HETATM    3  C           1     -21.030  -5.102  -7.142  0.00  0.00     0.249 C 
HETATM    4  N           1     -21.430  -6.253  -6.517  0.00  0.00    -0.345 N 
ENDROOT
BRANCH   4   5
HETATM    5  C           1     -20.897  -6.592  -5.212  0.00  0.00     0.185 C 
BRANCH   5   6
HETATM    6  C           1     -21.979  -6.402  -4.157  0.00  0.00     0.036 C 
BRANCH   6   7
HETATM    7  C           1     -21.330  -6.137  -2.805  0.00  0.00     0.004 C 
BRANCH   7   8
HETATM    8  C           1     -22.296  -6.522  -1.693  0.00  0.00     0.027 C 
BRANCH   8   9
HETATM    9  C           1     -21.680  -7.627  -0.844  0.00  0.00     0.229 C 
BRANCH   9  10
HETATM   10  N           1     -20.465  -8.171  -1.535  0.00  0.00    -0.079 N 
HETATM   11  H           1     -20.660  -8.269  -2.557  0.00  0.00     0.274 HD
HETATM   12  H           1     -20.226  -9.106  -1.134  0.00  0.00     0.274 HD
HETATM   13  H           1     -19.662  -7.517  -1.396  0.00  0.00     0.274 HD
ENDBRANCH   9  10
ENDBRANCH   8   9
ENDBRANCH   7   8
ENDBRANCH   6   7
ENDBRANCH   5   6
BRANCH   5  14
HETATM   14  C           1     -20.443  -8.031  -5.214  0.00  0.00     0.196 C 
HETATM   15  O           1     -19.452  -8.375  -4.534  0.00  0.00    -0.646 OA
HETATM   16  O           1     -21.059  -8.880  -5.894  0.00  0.00    -0.646 OA
ENDBRANCH   5  14
ENDBRANCH   4   5
BRANCH   3  17
HETATM   17  C           1     -21.585  -4.749  -8.500  0.00  0.00     0.283 C 
BRANCH  17  18
HETATM   18  N           1     -22.555  -3.614  -8.363  0.00  0.00    -0.066 N 
HETATM   19  H           1     -22.726  -3.419  -7.351  0.00  0.00     0.275 HD
HETATM   20  H           1     -22.159  -2.761  -8.820  0.00  0.00     0.275 HD
HETATM   21  H           1     -23.457  -3.870  -8.826  0.00  0.00     0.275 HD
ENDBRANCH  17  18
BRANCH  17  22
HETATM   22  C           1     -20.447  -4.334  -9.422  0.00  0.00     0.145 C 
BRANCH  22  23
HETATM   23  C           1     -21.003  -3.985 -10.782  0.00  0.00     0.217 C 
HETATM   24  O           1     -21.950  -4.594 -11.221  0.00  0.00    -0.274 OA
HETATM   25  N           1     -20.435  -2.980 -11.516  0.00  0.00    -0.370 N 
HETATM   26  H           1     -19.642  -2.470 -11.148  0.00  0.00     0.159 HD
HETATM   27  H           1     -20.808  -2.746 -12.428  0.00  0.00     0.159 HD
ENDBRANCH  22  23
ENDBRANCH  17  22
ENDBRANCH   3  17
TORSDOF 11
ENDMDL
MODEL 8
REMARK VINA RESULT:      -5.2     12.433     15.123
REMARK  11 active torsions:
REMARK  status: ('A' for Active; 'I' for Inactive)
REMARK    1  A    between atoms: N_3  and  C_21 
REMARK    2  A    between atoms: C_11  and  C_27 
REMARK    3  A    between atoms: C_11  and  C_12 
REMARK    4  A    between atoms: C_12  and  C_13 
REMARK    5  A    between atoms: C_13  and  C_14 
REMARK    6  A    between atoms: C_14  and  C_15 
REMARK    7  A    between atoms: C_14  and  N_23 
REMARK       I    between atoms: N_18  and  C_19 
REMARK    8  A    between atoms: C_19  and  C_20 
REMARK    9  A    between atoms: C_20  and  C_21 
REMARK   10  A    between atoms: C_21  and  C_22 
REMARK       I    between atoms: C_22  and  N_23 
REMARK   11  A    between atoms: N_25  and  C_27 
ROOT
HETATM    1  O           1     -22.006  -7.640  -5.112  0.00  0.00    -0.271 OA
HETATM    2  H           1     -20.723  -4.831  -4.560  0.00  0.00     0.163 HD
HETATM    3  C           1     -21.532  -6.734  -4.469  0.00  0.00     0.249 C 
HETATM    4  N           1     -21.121  -5.589  -5.098  0.00  0.00    -0.345 N 
ENDROOT
BRANCH   4   5
HETATM    5  C           1     -21.256  -5.465  -6.537  0.00  0.00     0.185 C 
BRANCH   5   6
HETATM    6  C           1     -21.802  -4.085  -6.877  0.00  0.00     0.036 C 
BRANCH   6   7
HETATM    7  C           1     -23.016  -4.229  -7.785  0.00  0.00     0.004 C 
BRANCH   7   8
HETATM    8  C           1     -22.608  -3.962  -9.227  0.00  0.00     0.027 C 
BRANCH   8   9
HETATM    9  C           1     -23.841  -3.610 -10.049  0.00  0.00     0.229 C 
BRANCH   9  10
HETATM   10  N           1     -25.016  -4.398  -9.551  0.00  0.00    -0.079 N 
HETATM   11  H           1     -24.914  -5.397  -9.841  0.00  0.00     0.274 HD
HETATM   12  H           1     -25.896  -4.006  -9.956  0.00  0.00     0.274 HD
HETATM   13  H           1     -25.058  -4.341  -8.508  0.00  0.00     0.274 HD
ENDBRANCH   9  10
ENDBRANCH   8   9
ENDBRANCH   7   8
ENDBRANCH   6   7
ENDBRANCH   5   6
BRANCH   5  14
HETATM   14  C           1     -19.904  -5.645  -7.185  0.00  0.00     0.196 C 
HETATM   15  O           1     -19.315  -4.663  -7.685  0.00  0.00    -0.646 OA
HETATM   16  O           1     -19.374  -6.776  -7.219  0.00  0.00    -0.646 OA
ENDBRANCH   5  14
ENDBRANCH   4   5
BRANCH   3  17
HETATM   17  C           1     -21.392  -6.863  -2.972  0.00  0.00     0.283 C 
BRANCH  17  18
HETATM   18  N           1     -22.419  -6.003  -2.298  0.00  0.00    -0.066 N 
HETATM   19  H           1     -22.187  -5.912  -1.283  0.00  0.00     0.275 HD
HETATM   20  H           1     -22.423  -5.055  -2.740  0.00  0.00     0.275 HD
HETATM   21  H           1     -23.363  -6.440  -2.402  0.00  0.00     0.275 HD
ENDBRANCH  17  18
BRANCH  17  22
HETATM   22  C           1     -21.602  -8.315  -2.565  0.00  0.00     0.145 C 
BRANCH  22  23
HETATM   23  C           1     -21.724  -8.404  -1.063  0.00  0.00     0.217 C 
HETATM   24  O           1     -20.908  -7.862  -0.357  0.00  0.00    -0.274 OA
HETATM   25  N           1     -22.760  -9.099  -0.501  0.00  0.00    -0.370 N 
HETATM   26  H           1     -23.445  -9.553  -1.092  0.00  0.00     0.159 HD
HETATM   27  H           1     -22.843  -9.158   0.506  0.00  0.00     0.159 HD
ENDBRANCH  22  23
ENDBRANCH  17  22
ENDBRANCH   3  17
TORSDOF 11
ENDMDL
MODEL 9
REMARK VINA RESULT:      -5.1     10.182     12.168
REMARK  11 active torsions:
REMARK  status: ('A' for Active; 'I' for Inactive)
REMARK    1  A    between atoms: N_3  and  C_21 
REMARK    2  A    between atoms: C_11  and  C_27 
REMARK    3  A    between atoms: C_11  and  C_12 
REMARK    4  A    between atoms: C_12  and  C_13 
REMARK    5  A    between atoms: C_13  and  C_14 
REMARK    6  A    between atoms: C_14  and  C_15 
REMARK    7  A    between atoms: C_14  and  N_23 
REMARK       I    between atoms: N_18  and  C_19 
REMARK    8  A    between atoms: C_19  and  C_20 
REMARK    9  A    between atoms: C_20  and  C_21 
REMARK   10  A    between atoms: C_21  and  C_22 
REMARK       I    between atoms: C_22  and  N_23 
REMARK   11  A    between atoms: N_25  and  C_27 
ROOT
HETATM    1  O           1     -33.839  -1.069 -11.235  0.00  0.00    -0.271 OA
HETATM    2  H           1     -35.541  -3.531 -12.174  0.00  0.00     0.163 HD
HETATM    3  C           1     -34.772  -1.665 -11.719  0.00  0.00     0.249 C 
HETATM    4  N           1     -34.760  -3.033 -11.768  0.00  0.00    -0.345 N 
ENDROOT
BRANCH   4   5
HETATM    5  C           1     -33.628  -3.767 -11.237  0.00  0.00     0.185 C 
BRANCH   5   6
HETATM    6  C           1     -34.129  -4.909 -10.362  0.00  0.00     0.036 C 
BRANCH   6   7
HETATM    7  C           1     -34.619  -6.048 -11.246  0.00  0.00     0.004 C 
BRANCH   7   8
HETATM    8  C           1     -34.777  -7.310 -10.407  0.00  0.00     0.027 C 
BRANCH   8   9
HETATM    9  C           1     -33.408  -7.933 -10.165  0.00  0.00     0.229 C 
BRANCH   9  10
HETATM   10  N           1     -33.513  -9.426 -10.270  0.00  0.00    -0.079 N 
HETATM   11  H           1     -33.193  -9.862  -9.375  0.00  0.00     0.274 HD
HETATM   12  H           1     -32.913  -9.763 -11.056  0.00  0.00     0.274 HD
HETATM   13  H           1     -34.507  -9.694 -10.451  0.00  0.00     0.274 HD
ENDBRANCH   9  10
ENDBRANCH   8   9
ENDBRANCH   7   8
ENDBRANCH   6   7
ENDBRANCH   5   6
BRANCH   5  14
HETATM   14  C           1     -32.814  -4.327 -12.378  0.00  0.00     0.196 C 
HETATM   15  O           1     -33.204  -4.179 -13.556  0.00  0.00    -0.646 OA
HETATM   16  O           1     -31.749  -4.938 -12.145  0.00  0.00    -0.646 OA
ENDBRANCH   5  14
ENDBRANCH   4   5
BRANCH   3  17
HETATM   17  C           1     -35.950  -0.901 -12.271  0.00  0.00     0.283 C 
BRANCH  17  18
HETATM   18  N           1     -35.902   0.516 -11.780  0.00  0.00    -0.066 N 
HETATM   19  H           1     -34.906   0.817 -11.678  0.00  0.00     0.275 HD
HETATM   20  H           1     -36.385   1.139 -12.467  0.00  0.00     0.275 HD
HETATM   21  H           1     -36.382   0.580 -10.854  0.00  0.00     0.275 HD
ENDBRANCH  17  18
BRANCH  17  22
HETATM   22  C           1     -35.896  -0.912 -13.792  0.00  0.00     0.145 C 
BRANCH  22  23
HETATM   23  C           1     -35.365   0.412 -14.287  0.00  0.00     0.217 C 
HETATM   24  O           1     -34.230   0.740 -14.032  0.00  0.00    -0.274 OA
HETATM   25  N           1     -36.167   1.239 -15.024  0.00  0.00    -0.370 N 
HETATM   26  H           1     -37.117   0.964 -15.238  0.00  0.00     0.159 HD
HETATM   27  H           1     -35.810   2.127 -15.356  0.00  0.00     0.159 HD
ENDBRANCH  22  23
ENDBRANCH  17  22
ENDBRANCH   3  17
TORSDOF 11
ENDMDL
