MODEL 1
REMARK VINA RESULT:      -7.6      0.000      0.000
REMARK  8 active torsions:
REMARK  status: ('A' for Active; 'I' for Inactive)
REMARK    1  A    between atoms: C_4  and  C_20 
REMARK    2  A    between atoms: C_4  and  C_16 
REMARK    3  A    between atoms: C_4  and  N_14 
REMARK    4  A    between atoms: O_6  and  C_19 
REMARK    5  A    between atoms: C_8  and  C_16 
REMARK    6  A    between atoms: C_9  and  C_13 
REMARK    7  A    between atoms: C_13  and  C_19 
REMARK    8  A    between atoms: C_13  and  N_17 
REMARK       I    between atoms: N_17  and  C_20 
ROOT
HETATM    1  C           1     -21.170  -5.691  -6.947  0.00  0.00     0.278 C 
ENDROOT
BRANCH   1   2
HETATM    2  C           1     -21.680  -4.551  -7.795  0.00  0.00     0.249 C 
HETATM    3  N           1     -22.117  -4.790  -9.070  0.00  0.00    -0.343 N 
HETATM    4  H           1     -22.099  -5.730  -9.444  0.00  0.00     0.163 HD
HETATM    5  O           1     -21.702  -3.430  -7.348  0.00  0.00    -0.271 OA
BRANCH   3   6
HETATM    6  C           1     -22.607  -3.695  -9.884  0.00  0.00     0.214 C 
BRANCH   6   7
HETATM    7  C           1     -24.071  -3.907 -10.184  0.00  0.00     0.199 C 
HETATM    8  O           1     -24.753  -2.976 -10.661  0.00  0.00    -0.646 OA
HETATM    9  O           1     -24.601  -5.015  -9.954  0.00  0.00    -0.646 OA
ENDBRANCH   6   7
BRANCH   6  10
HETATM   10  C           1     -21.825  -3.642 -11.190  0.00  0.00     0.147 C 
HETATM   11  C           1     -20.436  -4.230 -10.975  0.00  0.00     0.042 C 
BRANCH  10  12
HETATM   12  O           1     -22.500  -4.385 -12.168  0.00  0.00    -0.393 OA
HETATM   13  H           1     -22.692  -5.226 -11.789  0.00  0.00     0.210 HD
ENDBRANCH  10  12
ENDBRANCH   6  10
ENDBRANCH   3   6
ENDBRANCH   1   2
BRANCH   1  14
HETATM   14  C           1     -20.950  -5.205  -5.521  0.00  0.00     0.081 C 
BRANCH  14  15
HETATM   15  C           1     -21.187  -6.332  -4.565  0.00  0.00    -0.056 A 
HETATM   16  C           1     -21.294  -6.078  -3.198  0.00  0.00     0.007 A 
HETATM   17  C           1     -21.515  -7.128  -2.308  0.00  0.00     0.001 A 
HETATM   18  C           1     -21.630  -8.434  -2.785  0.00  0.00     0.000 A 
HETATM   19  C           1     -21.524  -8.689  -4.153  0.00  0.00     0.001 A 
HETATM   20  C           1     -21.303  -7.638  -5.043  0.00  0.00     0.007 A 
ENDBRANCH  14  15
ENDBRANCH   1  14
BRANCH   1  21
HETATM   21  N           1     -19.873  -6.191  -7.510  0.00  0.00    -0.066 N 
HETATM   22  H           1     -20.064  -6.938  -8.216  0.00  0.00     0.275 HD
HETATM   23  H           1     -19.286  -6.580  -6.738  0.00  0.00     0.275 HD
HETATM   24  H           1     -19.364  -5.401  -7.968  0.00  0.00     0.275 HD
ENDBRANCH   1  21
TORSDOF 8
ENDMDL
MODEL 2
REMARK VINA RESULT:      -6.9      3.101      7.271
REMARK  8 active torsions:
REMARK  status: ('A' for Active; 'I' for Inactive)
REMARK    1  A    between atoms: C_4  and  C_20 
REMARK    2  A    between atoms: C_4  and  C_16 
REMARK    3  A    between atoms: C_4  and  N_14 
REMARK    4  A    between atoms: O_6  and  C_19 
REMARK    5  A    between atoms: C_8  and  C_16 
REMARK    6  A    between atoms: C_9  and  C_13 
REMARK    7  A    between atoms: C_13  and  C_19 
REMARK    8  A    between atoms: C_13  and  N_17 
REMARK       I    between atoms: N_17  and  C_20 
ROOT
HETATM    1  C           1     -22.327  -5.169  -6.805  0.00  0.00     0.278 C 
ENDROOT
BRANCH   1   2
HETATM    2  C           1     -21.480  -5.646  -5.650  0.00  0.00     0.249 C 
HETATM    3  N           1     -21.967  -6.595  -4.792  0.00  0.00    -0.343 N 
HETATM    4  H           1     -22.894  -6.975  -4.931  0.00  0.00     0.163 HD
HETATM    5  O           1     -20.373  -5.191  -5.485  0.00  0.00    -0.271 OA
BRANCH   3   6
HETATM    6  C           1     -21.153  -7.053  -3.683  0.00  0.00     0.214 C 
BRANCH   6   7
HETATM    7  C           1     -20.662  -8.452  -3.966  0.00  0.00     0.199 C 
HETATM    8  O           1     -19.435  -8.689  -4.002  0.00  0.00    -0.646 OA
HETATM    9  O           1     -21.482  -9.374  -4.164  0.00  0.00    -0.646 OA
ENDBRANCH   6   7
BRANCH   6  10
HETATM   10  C           1     -21.985  -7.056  -2.408  0.00  0.00     0.147 C 
HETATM   11  C           1     -21.152  -7.609  -1.259  0.00  0.00     0.042 C 
BRANCH  10  12
HETATM   12  O           1     -22.383  -5.746  -2.107  0.00  0.00    -0.393 OA
HETATM   13  H           1     -21.629  -5.196  -2.231  0.00  0.00     0.210 HD
ENDBRANCH  10  12
ENDBRANCH   6  10
ENDBRANCH   3   6
ENDBRANCH   1   2
BRANCH   1  14
HETATM   14  C           1     -21.700  -3.921  -7.413  0.00  0.00     0.081 C 
BRANCH  14  15
HETATM   15  C           1     -21.650  -4.060  -8.903  0.00  0.00    -0.056 A 
HETATM   16  C           1     -22.833  -4.184  -9.632  0.00  0.00     0.007 A 
HETATM   17  C           1     -22.786  -4.314 -11.020  0.00  0.00     0.001 A 
HETATM   18  C           1     -21.556  -4.320 -11.679  0.00  0.00     0.000 A 
HETATM   19  C           1     -20.374  -4.195 -10.949  0.00  0.00     0.001 A 
HETATM   20  C           1     -20.421  -4.065  -9.562  0.00  0.00     0.007 A 
ENDBRANCH  14  15
ENDBRANCH   1  14
BRANCH   1  21
HETATM   21  N           1     -23.706  -4.845  -6.312  0.00  0.00    -0.066 N 
HETATM   22  H           1     -24.382  -4.900  -7.107  0.00  0.00     0.275 HD
HETATM   23  H           1     -23.714  -3.879  -5.912  0.00  0.00     0.275 HD
HETATM   24  H           1     -23.981  -5.529  -5.572  0.00  0.00     0.275 HD
ENDBRANCH   1  21
TORSDOF 8
ENDMDL
MODEL 3
REMARK VINA RESULT:      -6.5      4.171      7.849
REMARK  8 active torsions:
REMARK  status: ('A' for Active; 'I' for Inactive)
REMARK    1  A    between atoms: C_4  and  C_20 
REMARK    2  A    between atoms: C_4  and  C_16 
REMARK    3  A    between atoms: C_4  and  N_14 
REMARK    4  A    between atoms: O_6  and  C_19 
REMARK    5  A    between atoms: C_8  and  C_16 
REMARK    6  A    between atoms: C_9  and  C_13 
REMARK    7  A    between atoms: C_13  and  C_19 
REMARK    8  A    between atoms: C_13  and  N_17 
REMARK       I    between atoms: N_17  and  C_20 
ROOT
HETATM    1  C           1     -21.672  -6.570  -5.403  0.00  0.00     0.278 C 
ENDROOT
BRANCH   1   2
HETATM    2  C           1     -20.922  -7.398  -4.388  0.00  0.00     0.249 C 
HETATM    3  N           1     -21.488  -7.663  -3.170  0.00  0.00    -0.343 N 
HETATM    4  H           1     -22.407  -7.304  -2.950  0.00  0.00     0.163 HD
HETATM    5  O           1     -19.824  -7.826  -4.652  0.00  0.00    -0.271 OA
BRANCH   3   6
HETATM    6  C           1     -20.766  -8.458  -2.195  0.00  0.00     0.214 C 
BRANCH   6   7
HETATM    7  C           1     -21.152  -9.910  -2.348  0.00  0.00     0.199 C 
HETATM    8  O           1     -20.298 -10.805  -2.172  0.00  0.00    -0.646 OA
HETATM    9  O           1     -22.325 -10.216  -2.651  0.00  0.00    -0.646 OA
ENDBRANCH   6   7
BRANCH   6  10
HETATM   10  C           1     -21.119  -7.986  -0.791  0.00  0.00     0.147 C 
HETATM   11  C           1     -22.325  -7.058  -0.855  0.00  0.00     0.042 C 
BRANCH  10  12
HETATM   12  O           1     -21.425  -9.094   0.011  0.00  0.00    -0.393 OA
HETATM   13  H           1     -21.234  -9.862  -0.500  0.00  0.00     0.210 HD
ENDBRANCH  10  12
ENDBRANCH   6  10
ENDBRANCH   3   6
ENDBRANCH   1   2
BRANCH   1  14
HETATM   14  C           1     -20.950  -5.245  -5.611  0.00  0.00     0.081 C 
BRANCH  14  15
HETATM   15  C           1     -21.043  -4.846  -7.051  0.00  0.00    -0.056 A 
HETATM   16  C           1     -22.180  -4.190  -7.522  0.00  0.00     0.007 A 
HETATM   17  C           1     -22.265  -3.818  -8.863  0.00  0.00     0.001 A 
HETATM   18  C           1     -21.213  -4.101  -9.735  0.00  0.00     0.000 A 
HETATM   19  C           1     -20.075  -4.757  -9.263  0.00  0.00     0.001 A 
HETATM   20  C           1     -19.990  -5.129  -7.922  0.00  0.00     0.007 A 
ENDBRANCH  14  15
ENDBRANCH   1  14
BRANCH   1  21
HETATM   21  N           1     -23.062  -6.308  -4.904  0.00  0.00    -0.066 N 
HETATM   22  H           1     -23.179  -5.286  -4.722  0.00  0.00     0.275 HD
HETATM   23  H           1     -23.220  -6.842  -4.020  0.00  0.00     0.275 HD
HETATM   24  H           1     -23.755  -6.615  -5.624  0.00  0.00     0.275 HD
ENDBRANCH   1  21
TORSDOF 8
ENDMDL
MODEL 4
REMARK VINA RESULT:      -6.5     11.685     14.221
REMARK  8 active torsions:
REMARK  status: ('A' for Active; 'I' for Inactive)
REMARK    1  A    between atoms: C_4  and  C_20 
REMARK    2  A    between atoms: C_4  and  C_16 
REMARK    3  A    between atoms: C_4  and  N_14 
REMARK    4  A    between atoms: O_6  and  C_19 
REMARK    5  A    between atoms: C_8  and  C_16 
REMARK    6  A    between atoms: C_9  and  C_13 
REMARK    7  A    between atoms: C_13  and  C_19 
REMARK    8  A    between atoms: C_13  and  N_17 
REMARK       I    between atoms: N_17  and  C_20 
ROOT
HETATM    1  C           1     -26.303  -7.716 -20.597  0.00  0.00     0.278 C 
ENDROOT
BRANCH   1   2
HETATM    2  C           1     -27.071  -6.569 -19.988  0.00  0.00     0.249 C 
HETATM    3  N           1     -27.571  -6.679 -18.719  0.00  0.00    -0.343 N 
HETATM    4  H           1     -27.426  -7.528 -18.189  0.00  0.00     0.163 HD
HETATM    5  O           1     -27.243  -5.555 -20.621  0.00  0.00    -0.271 OA
BRANCH   3   6
HETATM    6  C           1     -28.310  -5.576 -18.134  0.00  0.00     0.214 C 
BRANCH   6   7
HETATM    7  C           1     -27.593  -5.093 -16.896  0.00  0.00     0.199 C 
HETATM    8  O           1     -26.884  -5.882 -16.236  0.00  0.00    -0.646 OA
HETATM    9  O           1     -27.710  -3.903 -16.532  0.00  0.00    -0.646 OA
ENDBRANCH   6   7
BRANCH   6  10
HETATM   10  C           1     -29.710  -6.042 -17.759  0.00  0.00     0.147 C 
HETATM   11  C           1     -29.863  -7.518 -18.104  0.00  0.00     0.042 C 
BRANCH  10  12
HETATM   12  O           1     -29.909  -5.861 -16.383  0.00  0.00    -0.393 OA
HETATM   13  H           1     -30.787  -6.144 -16.194  0.00  0.00     0.210 HD
ENDBRANCH  10  12
ENDBRANCH   6  10
ENDBRANCH   3   6
ENDBRANCH   1   2
BRANCH   1  14
HETATM   14  C           1     -25.474  -7.208 -21.770  0.00  0.00     0.081 C 
BRANCH  14  15
HETATM   15  C           1     -24.110  -7.822 -21.723  0.00  0.00    -0.056 A 
HETATM   16  C           1     -23.445  -7.954 -20.503  0.00  0.00     0.007 A 
HETATM   17  C           1     -22.175  -8.527 -20.460  0.00  0.00     0.001 A 
HETATM   18  C           1     -21.568  -8.968 -21.637  0.00  0.00     0.000 A 
HETATM   19  C           1     -22.233  -8.837 -22.856  0.00  0.00     0.001 A 
HETATM   20  C           1     -23.504  -8.265 -22.899  0.00  0.00     0.007 A 
ENDBRANCH  14  15
ENDBRANCH   1  14
BRANCH   1  21
HETATM   21  N           1     -27.265  -8.760 -21.082  0.00  0.00    -0.066 N 
HETATM   22  H           1     -26.760  -9.444 -21.689  0.00  0.00     0.275 HD
HETATM   23  H           1     -28.028  -8.301 -21.629  0.00  0.00     0.275 HD
HETATM   24  H           1     -27.678  -9.261 -20.262  0.00  0.00     0.275 HD
ENDBRANCH   1  21
TORSDOF 8
ENDMDL
MODEL 5
REMARK VINA RESULT:      -6.4      5.109      7.934
REMARK  8 active torsions:
REMARK  status: ('A' for Active; 'I' for Inactive)
REMARK    1  A    between atoms: C_4  and  C_20 
REMARK    2  A    between atoms: C_4  and  C_16 
REMARK    3  A    between atoms: C_4  and  N_14 
REMARK    4  A    between atoms: O_6  and  C_19 
REMARK    5  A    between atoms: C_8  and  C_16 
REMARK    6  A    between atoms: C_9  and  C_13 
REMARK    7  A    between atoms: C_13  and  C_19 
REMARK    8  A    between atoms: C_13  and  N_17 
REMARK       I    between atoms: N_17  and  C_20 
ROOT
HETATM    1  C           1     -20.429  -8.309  -5.060  0.00  0.00     0.278 C 
ENDROOT
BRANCH   1   2
HETATM    2  C           1     -20.298  -8.543  -3.575  0.00  0.00     0.249 C 
HETATM    3  N           1     -21.383  -8.373  -2.758  0.00  0.00    -0.343 N 
HETATM    4  H           1     -22.272  -8.090  -3.149  0.00  0.00     0.163 HD
HETATM    5  O           1     -19.237  -8.881  -3.109  0.00  0.00    -0.271 OA
BRANCH   3   6
HETATM    6  C           1     -21.257  -8.598  -1.331  0.00  0.00     0.214 C 
BRANCH   6   7
HETATM    7  C           1     -21.943  -9.893  -0.965  0.00  0.00     0.199 C 
HETATM    8  O           1     -22.825 -10.366  -1.713  0.00  0.00    -0.646 OA
HETATM    9  O           1     -21.629 -10.490   0.087  0.00  0.00    -0.646 OA
ENDBRANCH   6   7
BRANCH   6  10
HETATM   10  C           1     -21.908  -7.449  -0.574  0.00  0.00     0.147 C 
HETATM   11  C           1     -22.295  -6.349  -1.555  0.00  0.00     0.042 C 
BRANCH  10  12
HETATM   12  O           1     -23.057  -7.913   0.082  0.00  0.00    -0.393 OA
HETATM   13  H           1     -23.039  -7.553   0.952  0.00  0.00     0.210 HD
ENDBRANCH  10  12
ENDBRANCH   6  10
ENDBRANCH   3   6
ENDBRANCH   1   2
BRANCH   1  14
HETATM   14  C           1     -21.623  -7.402  -5.328  0.00  0.00     0.081 C 
BRANCH  14  15
HETATM   15  C           1     -21.180  -6.213  -6.123  0.00  0.00    -0.056 A 
HETATM   16  C           1     -19.852  -6.105  -6.537  0.00  0.00     0.007 A 
HETATM   17  C           1     -19.441  -4.998  -7.278  0.00  0.00     0.001 A 
HETATM   18  C           1     -20.357  -3.997  -7.605  0.00  0.00     0.000 A 
HETATM   19  C           1     -21.685  -4.106  -7.192  0.00  0.00     0.001 A 
HETATM   20  C           1     -22.096  -5.214  -6.452  0.00  0.00     0.007 A 
ENDBRANCH  14  15
ENDBRANCH   1  14
BRANCH   1  21
HETATM   21  N           1     -20.633  -9.621  -5.757  0.00  0.00    -0.066 N 
HETATM   22  H           1     -21.463 -10.107  -5.348  0.00  0.00     0.275 HD
HETATM   23  H           1     -19.783 -10.216  -5.633  0.00  0.00     0.275 HD
HETATM   24  H           1     -20.794  -9.454  -6.776  0.00  0.00     0.275 HD
ENDBRANCH   1  21
TORSDOF 8
ENDMDL
MODEL 6
REMARK VINA RESULT:      -6.4      2.889      6.991
REMARK  8 active torsions:
REMARK  status: ('A' for Active; 'I' for Inactive)
REMARK    1  A    between atoms: C_4  and  C_20 
REMARK    2  A    between atoms: C_4  and  C_16 
REMARK    3  A    between atoms: C_4  and  N_14 
REMARK    4  A    between atoms: O_6  and  C_19 
REMARK    5  A    between atoms: C_8  and  C_16 
REMARK    6  A    between atoms: C_9  and  C_13 
REMARK    7  A    between atoms: C_13  and  C_19 
REMARK    8  A    between atoms: C_13  and  N_17 
REMARK       I    between atoms: N_17  and  C_20 
ROOT
HETATM    1  C           1     -20.446  -5.056  -6.605  0.00  0.00     0.278 C 
ENDROOT
BRANCH   1   2
HETATM    2  C           1     -21.319  -5.857  -5.670  0.00  0.00     0.249 C 
HETATM    3  N           1     -20.753  -6.762  -4.814  0.00  0.00    -0.343 N 
HETATM    4  H           1     -19.750  -6.894  -4.807  0.00  0.00     0.163 HD
HETATM    5  O           1     -22.516  -5.698  -5.678  0.00  0.00    -0.271 OA
BRANCH   3   6
HETATM    6  C           1     -21.593  -7.531  -3.916  0.00  0.00     0.214 C 
BRANCH   6   7
HETATM    7  C           1     -21.613  -6.871  -2.558  0.00  0.00     0.199 C 
HETATM    8  O           1     -20.867  -7.290  -1.648  0.00  0.00    -0.646 OA
HETATM    9  O           1     -22.377  -5.905  -2.345  0.00  0.00    -0.646 OA
ENDBRANCH   6   7
BRANCH   6  10
HETATM   10  C           1     -21.038  -8.943  -3.784  0.00  0.00     0.147 C 
HETATM   11  C           1     -21.239  -9.692  -5.095  0.00  0.00     0.042 C 
BRANCH  10  12
HETATM   12  O           1     -19.668  -8.880  -3.488  0.00  0.00    -0.393 OA
HETATM   13  H           1     -19.229  -8.623  -4.281  0.00  0.00     0.210 HD
ENDBRANCH  10  12
ENDBRANCH   6  10
ENDBRANCH   3   6
ENDBRANCH   1   2
BRANCH   1  14
HETATM   14  C           1     -21.241  -3.883  -7.164  0.00  0.00     0.081 C 
BRANCH  14  15
HETATM   15  C           1     -21.438  -4.069  -8.636  0.00  0.00    -0.056 A 
HETATM   16  C           1     -20.380  -3.843  -9.517  0.00  0.00     0.007 A 
HETATM   17  C           1     -20.564  -4.017 -10.888  0.00  0.00     0.001 A 
HETATM   18  C           1     -21.808  -4.416 -11.380  0.00  0.00     0.000 A 
HETATM   19  C           1     -22.866  -4.642 -10.500  0.00  0.00     0.001 A 
HETATM   20  C           1     -22.681  -4.468  -9.128  0.00  0.00     0.007 A 
ENDBRANCH  14  15
ENDBRANCH   1  14
BRANCH   1  21
HETATM   21  N           1     -19.988  -5.932  -7.734  0.00  0.00    -0.066 N 
HETATM   22  H           1     -20.714  -5.939  -8.485  0.00  0.00     0.275 HD
HETATM   23  H           1     -19.840  -6.904  -7.380  0.00  0.00     0.275 HD
HETATM   24  H           1     -19.090  -5.561  -8.120  0.00  0.00     0.275 HD
ENDBRANCH   1  21
TORSDOF 8
ENDMDL
MODEL 7
REMARK VINA RESULT:      -6.1      4.071      7.093
REMARK  8 active torsions:
REMARK  status: ('A' for Active; 'I' for Inactive)
REMARK    1  A    between atoms: C_4  and  C_20 
REMARK    2  A    between atoms: C_4  and  C_16 
REMARK    3  A    between atoms: C_4  and  N_14 
REMARK    4  A    between atoms: O_6  and  C_19 
REMARK    5  A    between atoms: C_8  and  C_16 
REMARK    6  A    between atoms: C_9  and  C_13 
REMARK    7  A    between atoms: C_13  and  C_19 
REMARK    8  A    between atoms: C_13  and  N_17 
REMARK       I    between atoms: N_17  and  C_20 
ROOT
HETATM    1  C           1     -21.781  -6.531  -5.645  0.00  0.00     0.278 C 
ENDROOT
BRANCH   1   2
HETATM    2  C           1     -20.976  -7.585  -4.923  0.00  0.00     0.249 C 
HETATM    3  N           1     -20.555  -8.701  -5.594  0.00  0.00    -0.343 N 
HETATM    4  H           1     -20.783  -8.821  -6.572  0.00  0.00     0.163 HD
HETATM    5  O           1     -20.705  -7.442  -3.755  0.00  0.00    -0.271 OA
BRANCH   3   6
HETATM    6  C           1     -19.782  -9.714  -4.900  0.00  0.00     0.214 C 
BRANCH   6   7
HETATM    7  C           1     -18.327  -9.582  -5.279  0.00  0.00     0.199 C 
HETATM    8  O           1     -18.007  -9.391  -6.472  0.00  0.00    -0.646 OA
HETATM    9  O           1     -17.443  -9.664  -4.400  0.00  0.00    -0.646 OA
ENDBRANCH   6   7
BRANCH   6  10
HETATM   10  C           1     -20.285 -11.096  -5.293  0.00  0.00     0.147 C 
HETATM   11  C           1     -21.686 -11.305  -4.734  0.00  0.00     0.042 C 
BRANCH  10  12
HETATM   12  O           1     -20.320 -11.200  -6.691  0.00  0.00    -0.393 OA
HETATM   13  H           1     -20.493 -10.336  -7.025  0.00  0.00     0.210 HD
ENDBRANCH  10  12
ENDBRANCH   6  10
ENDBRANCH   3   6
ENDBRANCH   1   2
BRANCH   1  14
HETATM   14  C           1     -20.917  -5.297  -5.869  0.00  0.00     0.081 C 
BRANCH  14  15
HETATM   15  C           1     -21.049  -4.844  -7.290  0.00  0.00    -0.056 A 
HETATM   16  C           1     -22.213  -4.204  -7.713  0.00  0.00     0.007 A 
HETATM   17  C           1     -22.335  -3.782  -9.037  0.00  0.00     0.001 A 
HETATM   18  C           1     -21.292  -4.001  -9.938  0.00  0.00     0.000 A 
HETATM   19  C           1     -20.128  -4.640  -9.514  0.00  0.00     0.001 A 
HETATM   20  C           1     -20.006  -5.062  -8.190  0.00  0.00     0.007 A 
ENDBRANCH  14  15
ENDBRANCH   1  14
BRANCH   1  21
HETATM   21  N           1     -22.975  -6.161  -4.817  0.00  0.00    -0.066 N 
HETATM   22  H           1     -22.769  -5.288  -4.280  0.00  0.00     0.275 HD
HETATM   23  H           1     -23.192  -6.938  -4.153  0.00  0.00     0.275 HD
HETATM   24  H           1     -23.797  -5.999  -5.443  0.00  0.00     0.275 HD
ENDBRANCH   1  21
TORSDOF 8
ENDMDL
MODEL 8
REMARK VINA RESULT:      -6.1     18.342     20.058
REMARK  8 active torsions:
REMARK  status: ('A' for Active; 'I' for Inactive)
REMARK    1  A    between atoms: C_4  and  C_20 
REMARK    2  A    between atoms: C_4  and  C_16 
REMARK    3  A    between atoms: C_4  and  N_14 
REMARK    4  A    between atoms: O_6  and  C_19 
REMARK    5  A    between atoms: C_8  and  C_16 
REMARK    6  A    between atoms: C_9  and  C_13 
REMARK    7  A    between atoms: C_13  and  C_19 
REMARK    8  A    between atoms: C_13  and  N_17 
REMARK       I    between atoms: N_17  and  C_20 
ROOT
HETATM    1  C           1     -15.043   9.303   5.582  0.00  0.00     0.278 C 
ENDROOT
BRANCH   1   2
HETATM    2  C           1     -16.344  10.002   5.273  0.00  0.00     0.249 C 
HETATM    3  N           1     -17.496   9.274   5.136  0.00  0.00    -0.343 N 
HETATM    4  H           1     -17.474   8.268   5.242  0.00  0.00     0.163 HD
HETATM    5  O           1     -16.369  11.203   5.148  0.00  0.00    -0.271 OA
BRANCH   3   6
HETATM    6  C           1     -18.746   9.946   4.839  0.00  0.00     0.214 C 
BRANCH   6   7
HETATM    7  C           1     -19.676   9.822   6.022  0.00  0.00     0.199 C 
HETATM    8  O           1     -20.793  10.382   6.001  0.00  0.00    -0.646 OA
HETATM    9  O           1     -19.327   9.160   7.023  0.00  0.00    -0.646 OA
ENDBRANCH   6   7
BRANCH   6  10
HETATM   10  C           1     -19.391   9.306   3.618  0.00  0.00     0.147 C 
HETATM   11  C           1     -18.333   9.072   2.548  0.00  0.00     0.042 C 
BRANCH  10  12
HETATM   12  O           1     -19.965   8.079   3.983  0.00  0.00    -0.393 OA
HETATM   13  H           1     -20.867   8.109   3.715  0.00  0.00     0.210 HD
ENDBRANCH  10  12
ENDBRANCH   6  10
ENDBRANCH   3   6
ENDBRANCH   1   2
BRANCH   1  14
HETATM   14  C           1     -14.891   8.089   4.674  0.00  0.00     0.081 C 
BRANCH  14  15
HETATM   15  C           1     -14.376   8.525   3.338  0.00  0.00    -0.056 A 
HETATM   16  C           1     -13.350   9.466   3.257  0.00  0.00     0.007 A 
HETATM   17  C           1     -12.872   9.871   2.012  0.00  0.00     0.001 A 
HETATM   18  C           1     -13.419   9.335   0.846  0.00  0.00     0.000 A 
HETATM   19  C           1     -14.445   8.393   0.926  0.00  0.00     0.001 A 
HETATM   20  C           1     -14.923   7.988   2.172  0.00  0.00     0.007 A 
ENDBRANCH  14  15
ENDBRANCH   1  14
BRANCH   1  21
HETATM   21  N           1     -15.043   8.858   7.015  0.00  0.00    -0.066 N 
HETATM   22  H           1     -14.562   7.934   7.092  0.00  0.00     0.275 HD
HETATM   23  H           1     -16.029   8.769   7.350  0.00  0.00     0.275 HD
HETATM   24  H           1     -14.539   9.563   7.599  0.00  0.00     0.275 HD
ENDBRANCH   1  21
TORSDOF 8
ENDMDL
MODEL 9
REMARK VINA RESULT:      -6.0     19.127     20.630
REMARK  8 active torsions:
REMARK  status: ('A' for Active; 'I' for Inactive)
REMARK    1  A    between atoms: C_4  and  C_20 
REMARK    2  A    between atoms: C_4  and  C_16 
REMARK    3  A    between atoms: C_4  and  N_14 
REMARK    4  A    between atoms: O_6  and  C_19 
REMARK    5  A    between atoms: C_8  and  C_16 
REMARK    6  A    between atoms: C_9  and  C_13 
REMARK    7  A    between atoms: C_13  and  C_19 
REMARK    8  A    between atoms: C_13  and  N_17 
REMARK       I    between atoms: N_17  and  C_20 
ROOT
HETATM    1  C           1     -10.410   6.900 -20.290  0.00  0.00     0.278 C 
ENDROOT
BRANCH   1   2
HETATM    2  C           1     -10.921   8.136 -19.590  0.00  0.00     0.249 C 
HETATM    3  N           1     -12.075   8.736 -20.018  0.00  0.00    -0.343 N 
HETATM    4  H           1     -12.584   8.352 -20.802  0.00  0.00     0.163 HD
HETATM    5  O           1     -10.312   8.593 -18.653  0.00  0.00    -0.271 OA
BRANCH   3   6
HETATM    6  C           1     -12.565   9.923 -19.345  0.00  0.00     0.214 C 
BRANCH   6   7
HETATM    7  C           1     -13.602   9.527 -18.320  0.00  0.00     0.199 C 
HETATM    8  O           1     -13.940  10.335 -17.429  0.00  0.00    -0.646 OA
HETATM    9  O           1     -14.120   8.391 -18.364  0.00  0.00    -0.646 OA
ENDBRANCH   6   7
BRANCH   6  10
HETATM   10  C           1     -13.194  10.863 -20.364  0.00  0.00     0.147 C 
HETATM   11  C           1     -12.941  10.332 -21.769  0.00  0.00     0.042 C 
BRANCH  10  12
HETATM   12  O           1     -14.575  10.942 -20.137  0.00  0.00    -0.393 OA
HETATM   13  H           1     -14.902  10.058 -20.133  0.00  0.00     0.210 HD
ENDBRANCH  10  12
ENDBRANCH   6  10
ENDBRANCH   3   6
ENDBRANCH   1   2
BRANCH   1  14
HETATM   14  C           1     -10.565   5.695 -19.372  0.00  0.00     0.081 C 
BRANCH  14  15
HETATM   15  C           1     -11.494   4.703 -19.999  0.00  0.00    -0.056 A 
HETATM   16  C           1     -11.018   3.452 -20.391  0.00  0.00     0.007 A 
HETATM   17  C           1     -11.884   2.528 -20.975  0.00  0.00     0.001 A 
HETATM   18  C           1     -13.227   2.855 -21.168  0.00  0.00     0.000 A 
HETATM   19  C           1     -13.702   4.106 -20.776  0.00  0.00     0.001 A 
HETATM   20  C           1     -12.836   5.030 -20.191  0.00  0.00     0.007 A 
ENDBRANCH  14  15
ENDBRANCH   1  14
BRANCH   1  21
HETATM   21  N           1      -8.961   7.084 -20.633  0.00  0.00    -0.066 N 
HETATM   22  H           1      -8.372   6.804 -19.817  0.00  0.00     0.275 HD
HETATM   23  H           1      -8.784   8.087 -20.866  0.00  0.00     0.275 HD
HETATM   24  H           1      -8.720   6.488 -21.457  0.00  0.00     0.275 HD
ENDBRANCH   1  21
TORSDOF 8
ENDMDL
