MODEL 1
REMARK VINA RESULT:      -6.6      0.000      0.000
REMARK  10 active torsions:
REMARK  status: ('A' for Active; 'I' for Inactive)
REMARK    1  A    between atoms: C_4  and  C_7 
REMARK    2  A    between atoms: C_4  and  C_14 
REMARK       I    between atoms: C_6  and  N_13 
REMARK    3  A    between atoms: C_6  and  C_7 
REMARK    4  A    between atoms: C_7  and  N_20 
REMARK    5  A    between atoms: C_9  and  C_16 
REMARK    6  A    between atoms: O_12  and  P_17 
REMARK    7  A    between atoms: N_13  and  C_16 
REMARK    8  A    between atoms: C_16  and  C_18 
REMARK    9  A    between atoms: P_17  and  O_19 
REMARK   10  A    between atoms: C_18  and  O_19 
ROOT
HETATM    1  C           1     -28.480  -6.414 -18.964  0.00  0.00     0.249 C 
HETATM    2  N           1     -27.502  -7.320 -19.277  0.00  0.00    -0.343 N 
HETATM    3  H           1     -27.653  -8.305 -19.104  0.00  0.00     0.163 HD
HETATM    4  O           1     -28.301  -5.236 -19.170  0.00  0.00    -0.271 OA
ENDROOT
BRANCH   2   5
HETATM    5  C           1     -26.252  -6.867 -19.855  0.00  0.00     0.210 C 
BRANCH   5   6
HETATM    6  C           1     -25.786  -7.864 -20.888  0.00  0.00     0.198 C 
HETATM    7  O           1     -26.613  -8.609 -21.456  0.00  0.00    -0.646 OA
HETATM    8  O           1     -24.571  -7.944 -21.175  0.00  0.00    -0.646 OA
ENDBRANCH   5   6
BRANCH   5   9
HETATM    9  C           1     -25.202  -6.742 -18.759  0.00  0.00     0.217 C 
BRANCH   9  10
HETATM   10  O           1     -25.799  -6.240 -17.594  0.00  0.00    -0.287 OA
BRANCH  10  11
HETATM   11  P           1     -25.266  -6.859 -16.201  0.00  0.00     0.406 P 
HETATM   12  O           1     -26.403  -7.449 -15.458  0.00  0.00    -0.624 OA
HETATM   13  O           1     -24.261  -7.909 -16.480  0.00  0.00    -0.624 OA
BRANCH  11  14
HETATM   14  O           1     -24.591  -5.690 -15.316  0.00  0.00    -0.300 OA
HETATM   15  H           1     -24.271  -5.062 -15.941  0.00  0.00     0.223 HD
ENDBRANCH  11  14
ENDBRANCH  10  11
ENDBRANCH   9  10
ENDBRANCH   5   9
ENDBRANCH   2   5
BRANCH   1  16
HETATM   16  C           1     -29.781  -6.884 -18.362  0.00  0.00     0.278 C 
BRANCH  16  17
HETATM   17  C           1     -30.301  -5.835 -17.389  0.00  0.00     0.021 C 
HETATM   18  C           1     -31.812  -5.971 -17.254  0.00  0.00     0.012 C 
BRANCH  17  19
HETATM   19  C           1     -29.650  -6.038 -16.028  0.00  0.00     0.002 C 
HETATM   20  C           1     -28.669  -4.905 -15.759  0.00  0.00     0.005 C 
ENDBRANCH  17  19
ENDBRANCH  16  17
BRANCH  16  21
HETATM   21  N           1     -29.555  -8.174 -17.632  0.00  0.00    -0.066 N 
HETATM   22  H           1     -28.903  -8.013 -16.831  0.00  0.00     0.275 HD
HETATM   23  H           1     -29.137  -8.875 -18.284  0.00  0.00     0.275 HD
HETATM   24  H           1     -30.468  -8.535 -17.271  0.00  0.00     0.275 HD
ENDBRANCH  16  21
ENDBRANCH   1  16
TORSDOF 10
ENDMDL
MODEL 2
REMARK VINA RESULT:      -6.2     11.313     13.378
REMARK  10 active torsions:
REMARK  status: ('A' for Active; 'I' for Inactive)
REMARK    1  A    between atoms: C_4  and  C_7 
REMARK    2  A    between atoms: C_4  and  C_14 
REMARK       I    between atoms: C_6  and  N_13 
REMARK    3  A    between atoms: C_6  and  C_7 
REMARK    4  A    between atoms: C_7  and  N_20 
REMARK    5  A    between atoms: C_9  and  C_16 
REMARK    6  A    between atoms: O_12  and  P_17 
REMARK    7  A    between atoms: N_13  and  C_16 
REMARK    8  A    between atoms: C_16  and  C_18 
REMARK    9  A    between atoms: P_17  and  O_19 
REMARK   10  A    between atoms: C_18  and  O_19 
ROOT
HETATM    1  C           1     -21.168  -6.399  -6.024  0.00  0.00     0.249 C 
HETATM    2  N           1     -21.290  -5.120  -6.495  0.00  0.00    -0.343 N 
HETATM    3  H           1     -21.226  -4.338  -5.856  0.00  0.00     0.163 HD
HETATM    4  O           1     -21.247  -7.334  -6.786  0.00  0.00    -0.271 OA
ENDROOT
BRANCH   2   5
HETATM    5  C           1     -21.515  -4.886  -7.908  0.00  0.00     0.210 C 
BRANCH   5   6
HETATM    6  C           1     -20.193  -4.629  -8.590  0.00  0.00     0.198 C 
HETATM    7  O           1     -19.179  -4.364  -7.910  0.00  0.00    -0.646 OA
HETATM    8  O           1     -20.113  -4.680  -9.837  0.00  0.00    -0.646 OA
ENDBRANCH   5   6
BRANCH   5   9
HETATM    9  C           1     -22.421  -3.675  -8.084  0.00  0.00     0.217 C 
BRANCH   9  10
HETATM   10  O           1     -23.648  -4.083  -8.626  0.00  0.00    -0.287 OA
BRANCH  10  11
HETATM   11  P           1     -23.794  -3.955 -10.228  0.00  0.00     0.406 P 
HETATM   12  O           1     -23.855  -5.307 -10.827  0.00  0.00    -0.624 OA
HETATM   13  O           1     -25.034  -3.214 -10.554  0.00  0.00    -0.624 OA
BRANCH  11  14
HETATM   14  O           1     -22.521  -3.159 -10.822  0.00  0.00    -0.300 OA
HETATM   15  H           1     -22.642  -2.265 -10.550  0.00  0.00     0.223 HD
ENDBRANCH  11  14
ENDBRANCH  10  11
ENDBRANCH   9  10
ENDBRANCH   5   9
ENDBRANCH   2   5
BRANCH   1  16
HETATM   16  C           1     -20.936  -6.644  -4.553  0.00  0.00     0.278 C 
BRANCH  16  17
HETATM   17  C           1     -20.880  -8.142  -4.289  0.00  0.00     0.021 C 
HETATM   18  C           1     -19.432  -8.613  -4.331  0.00  0.00     0.012 C 
BRANCH  17  19
HETATM   19  C           1     -21.469  -8.439  -2.916  0.00  0.00     0.002 C 
HETATM   20  C           1     -21.830  -9.915  -2.825  0.00  0.00     0.005 C 
ENDBRANCH  17  19
ENDBRANCH  16  17
BRANCH  16  21
HETATM   21  N           1     -22.058  -6.039  -3.763  0.00  0.00    -0.066 N 
HETATM   22  H           1     -21.728  -5.828  -2.794  0.00  0.00     0.275 HD
HETATM   23  H           1     -22.856  -6.711  -3.720  0.00  0.00     0.275 HD
HETATM   24  H           1     -22.371  -5.154  -4.225  0.00  0.00     0.275 HD
ENDBRANCH  16  21
ENDBRANCH   1  16
TORSDOF 10
ENDMDL
MODEL 3
REMARK VINA RESULT:      -6.2      2.712      5.730
REMARK  10 active torsions:
REMARK  status: ('A' for Active; 'I' for Inactive)
REMARK    1  A    between atoms: C_4  and  C_7 
REMARK    2  A    between atoms: C_4  and  C_14 
REMARK       I    between atoms: C_6  and  N_13 
REMARK    3  A    between atoms: C_6  and  C_7 
REMARK    4  A    between atoms: C_7  and  N_20 
REMARK    5  A    between atoms: C_9  and  C_16 
REMARK    6  A    between atoms: O_12  and  P_17 
REMARK    7  A    between atoms: N_13  and  C_16 
REMARK    8  A    between atoms: C_16  and  C_18 
REMARK    9  A    between atoms: P_17  and  O_19 
REMARK   10  A    between atoms: C_18  and  O_19 
ROOT
HETATM    1  C           1     -25.987  -6.299 -17.761  0.00  0.00     0.249 C 
HETATM    2  N           1     -27.249  -6.685 -18.123  0.00  0.00    -0.343 N 
HETATM    3  H           1     -27.397  -7.172 -18.997  0.00  0.00     0.163 HD
HETATM    4  O           1     -25.809  -5.715 -16.717  0.00  0.00    -0.271 OA
ENDROOT
BRANCH   2   5
HETATM    5  C           1     -28.373  -6.394 -17.255  0.00  0.00     0.210 C 
BRANCH   5   6
HETATM    6  C           1     -28.581  -7.542 -16.298  0.00  0.00     0.198 C 
HETATM    7  O           1     -29.327  -8.494 -16.616  0.00  0.00    -0.646 OA
HETATM    8  O           1     -28.006  -7.543 -15.188  0.00  0.00    -0.646 OA
ENDBRANCH   5   6
BRANCH   5   9
HETATM    9  C           1     -29.628  -6.201 -18.097  0.00  0.00     0.217 C 
BRANCH   9  10
HETATM   10  O           1     -29.681  -4.880 -18.563  0.00  0.00    -0.287 OA
BRANCH  10  11
HETATM   11  P           1     -30.282  -3.790 -17.535  0.00  0.00     0.406 P 
HETATM   12  O           1     -30.791  -4.479 -16.327  0.00  0.00    -0.624 OA
HETATM   13  O           1     -29.217  -2.837 -17.147  0.00  0.00    -0.624 OA
BRANCH  11  14
HETATM   14  O           1     -31.489  -2.987 -18.246  0.00  0.00    -0.300 OA
HETATM   15  H           1     -31.487  -3.283 -19.140  0.00  0.00     0.223 HD
ENDBRANCH  11  14
ENDBRANCH  10  11
ENDBRANCH   9  10
ENDBRANCH   5   9
ENDBRANCH   2   5
BRANCH   1  16
HETATM   16  C           1     -24.816  -6.601 -18.664  0.00  0.00     0.278 C 
BRANCH  16  17
HETATM   17  C           1     -25.327  -7.109 -20.005  0.00  0.00     0.021 C 
HETATM   18  C           1     -25.545  -5.930 -20.946  0.00  0.00     0.012 C 
BRANCH  17  19
HETATM   19  C           1     -24.302  -8.058 -20.613  0.00  0.00     0.002 C 
HETATM   20  C           1     -24.219  -7.823 -22.115  0.00  0.00     0.005 C 
ENDBRANCH  17  19
ENDBRANCH  16  17
BRANCH  16  21
HETATM   21  N           1     -23.954  -7.650 -18.028  0.00  0.00    -0.066 N 
HETATM   22  H           1     -24.017  -8.536 -18.579  0.00  0.00     0.275 HD
HETATM   23  H           1     -24.280  -7.824 -17.051  0.00  0.00     0.275 HD
HETATM   24  H           1     -22.961  -7.321 -18.010  0.00  0.00     0.275 HD
ENDBRANCH  16  21
ENDBRANCH   1  16
TORSDOF 10
ENDMDL
MODEL 4
REMARK VINA RESULT:      -6.1      2.678      5.696
REMARK  10 active torsions:
REMARK  status: ('A' for Active; 'I' for Inactive)
REMARK    1  A    between atoms: C_4  and  C_7 
REMARK    2  A    between atoms: C_4  and  C_14 
REMARK       I    between atoms: C_6  and  N_13 
REMARK    3  A    between atoms: C_6  and  C_7 
REMARK    4  A    between atoms: C_7  and  N_20 
REMARK    5  A    between atoms: C_9  and  C_16 
REMARK    6  A    between atoms: O_12  and  P_17 
REMARK    7  A    between atoms: N_13  and  C_16 
REMARK    8  A    between atoms: C_16  and  C_18 
REMARK    9  A    between atoms: P_17  and  O_19 
REMARK   10  A    between atoms: C_18  and  O_19 
ROOT
HETATM    1  C           1     -26.157  -6.433 -18.918  0.00  0.00     0.249 C 
HETATM    2  N           1     -27.308  -6.219 -18.209  0.00  0.00    -0.343 N 
HETATM    3  H           1     -28.194  -6.147 -18.693  0.00  0.00     0.163 HD
HETATM    4  O           1     -25.098  -6.517 -18.341  0.00  0.00    -0.271 OA
ENDROOT
BRANCH   2   5
HETATM    5  C           1     -27.257  -6.090 -16.766  0.00  0.00     0.210 C 
BRANCH   5   6
HETATM    6  C           1     -28.141  -7.140 -16.136  0.00  0.00     0.198 C 
HETATM    7  O           1     -27.929  -7.513 -14.963  0.00  0.00    -0.646 OA
HETATM    8  O           1     -29.085  -7.635 -16.789  0.00  0.00    -0.646 OA
ENDBRANCH   5   6
BRANCH   5   9
HETATM    9  C           1     -27.745  -4.706 -16.362  0.00  0.00     0.217 C 
BRANCH   9  10
HETATM   10  O           1     -29.146  -4.701 -16.305  0.00  0.00    -0.287 OA
BRANCH  10  11
HETATM   11  P           1     -29.899  -3.846 -17.449  0.00  0.00     0.406 P 
HETATM   12  O           1     -29.675  -4.483 -18.767  0.00  0.00    -0.624 OA
HETATM   13  O           1     -31.350  -3.807 -17.162  0.00  0.00    -0.624 OA
BRANCH  11  14
HETATM   14  O           1     -29.314  -2.342 -17.471  0.00  0.00    -0.300 OA
HETATM   15  H           1     -28.436  -2.416 -17.136  0.00  0.00     0.223 HD
ENDBRANCH  11  14
ENDBRANCH  10  11
ENDBRANCH   9  10
ENDBRANCH   5   9
ENDBRANCH   2   5
BRANCH   1  16
HETATM   16  C           1     -26.209  -6.566 -20.421  0.00  0.00     0.278 C 
BRANCH  16  17
HETATM   17  C           1     -25.778  -7.970 -20.822  0.00  0.00     0.021 C 
HETATM   18  C           1     -26.966  -8.716 -21.417  0.00  0.00     0.012 C 
BRANCH  17  19
HETATM   19  C           1     -24.666  -7.883 -21.858  0.00  0.00     0.002 C 
HETATM   20  C           1     -23.366  -8.395 -21.253  0.00  0.00     0.005 C 
ENDBRANCH  17  19
ENDBRANCH  16  17
BRANCH  16  21
HETATM   21  N           1     -25.285  -5.562 -21.043  0.00  0.00    -0.066 N 
HETATM   22  H           1     -25.833  -4.727 -21.351  0.00  0.00     0.275 HD
HETATM   23  H           1     -24.811  -5.991 -21.869  0.00  0.00     0.275 HD
HETATM   24  H           1     -24.567  -5.269 -20.342  0.00  0.00     0.275 HD
ENDBRANCH  16  21
ENDBRANCH   1  16
TORSDOF 10
ENDMDL
MODEL 5
REMARK VINA RESULT:      -5.8      2.949      6.121
REMARK  10 active torsions:
REMARK  status: ('A' for Active; 'I' for Inactive)
REMARK    1  A    between atoms: C_4  and  C_7 
REMARK    2  A    between atoms: C_4  and  C_14 
REMARK       I    between atoms: C_6  and  N_13 
REMARK    3  A    between atoms: C_6  and  C_7 
REMARK    4  A    between atoms: C_7  and  N_20 
REMARK    5  A    between atoms: C_9  and  C_16 
REMARK    6  A    between atoms: O_12  and  P_17 
REMARK    7  A    between atoms: N_13  and  C_16 
REMARK    8  A    between atoms: C_16  and  C_18 
REMARK    9  A    between atoms: P_17  and  O_19 
REMARK   10  A    between atoms: C_18  and  O_19 
ROOT
HETATM    1  C           1     -26.960  -6.645 -19.778  0.00  0.00     0.249 C 
HETATM    2  N           1     -27.387  -6.647 -18.478  0.00  0.00    -0.343 N 
HETATM    3  H           1     -27.104  -7.392 -17.854  0.00  0.00     0.163 HD
HETATM    4  O           1     -27.298  -5.757 -20.524  0.00  0.00    -0.271 OA
ENDROOT
BRANCH   2   5
HETATM    5  C           1     -28.246  -5.583 -17.995  0.00  0.00     0.210 C 
BRANCH   5   6
HETATM    6  C           1     -27.546  -4.836 -16.886  0.00  0.00     0.198 C 
HETATM    7  O           1     -26.511  -5.310 -16.369  0.00  0.00    -0.646 OA
HETATM    8  O           1     -28.000  -3.742 -16.485  0.00  0.00    -0.646 OA
ENDBRANCH   5   6
BRANCH   5   9
HETATM    9  C           1     -29.543  -6.180 -17.466  0.00  0.00     0.217 C 
BRANCH   9  10
HETATM   10  O           1     -30.633  -5.476 -17.996  0.00  0.00    -0.287 OA
BRANCH  10  11
HETATM   11  P           1     -31.565  -4.702 -16.929  0.00  0.00     0.406 P 
HETATM   12  O           1     -30.936  -4.765 -15.590  0.00  0.00    -0.624 OA
HETATM   13  O           1     -31.714  -3.287 -17.338  0.00  0.00    -0.624 OA
BRANCH  11  14
HETATM   14  O           1     -33.019  -5.403 -16.876  0.00  0.00    -0.300 OA
HETATM   15  H           1     -32.848  -6.326 -16.955  0.00  0.00     0.223 HD
ENDBRANCH  11  14
ENDBRANCH  10  11
ENDBRANCH   9  10
ENDBRANCH   5   9
ENDBRANCH   2   5
BRANCH   1  16
HETATM   16  C           1     -26.066  -7.752 -20.281  0.00  0.00     0.278 C 
BRANCH  16  17
HETATM   17  C           1     -24.772  -7.157 -20.819  0.00  0.00     0.021 C 
HETATM   18  C           1     -23.671  -7.308 -19.777  0.00  0.00     0.012 C 
BRANCH  17  19
HETATM   19  C           1     -24.367  -7.887 -22.093  0.00  0.00     0.002 C 
HETATM   20  C           1     -22.933  -8.381 -21.962  0.00  0.00     0.005 C 
ENDBRANCH  17  19
ENDBRANCH  16  17
BRANCH  16  21
HETATM   21  N           1     -26.766  -8.499 -21.377  0.00  0.00    -0.066 N 
HETATM   22  H           1     -27.691  -8.052 -21.568  0.00  0.00     0.275 HD
HETATM   23  H           1     -26.913  -9.491 -21.084  0.00  0.00     0.275 HD
HETATM   24  H           1     -26.181  -8.475 -22.244  0.00  0.00     0.275 HD
ENDBRANCH  16  21
ENDBRANCH   1  16
TORSDOF 10
ENDMDL
MODEL 6
REMARK VINA RESULT:      -5.8     12.333     14.529
REMARK  10 active torsions:
REMARK  status: ('A' for Active; 'I' for Inactive)
REMARK    1  A    between atoms: C_4  and  C_7 
REMARK    2  A    between atoms: C_4  and  C_14 
REMARK       I    between atoms: C_6  and  N_13 
REMARK    3  A    between atoms: C_6  and  C_7 
REMARK    4  A    between atoms: C_7  and  N_20 
REMARK    5  A    between atoms: C_9  and  C_16 
REMARK    6  A    between atoms: O_12  and  P_17 
REMARK    7  A    between atoms: N_13  and  C_16 
REMARK    8  A    between atoms: C_16  and  C_18 
REMARK    9  A    between atoms: P_17  and  O_19 
REMARK   10  A    between atoms: C_18  and  O_19 
ROOT
HETATM    1  C           1     -21.857  -5.324  -6.181  0.00  0.00     0.249 C 
HETATM    2  N           1     -21.189  -6.273  -5.454  0.00  0.00    -0.343 N 
HETATM    3  H           1     -20.183  -6.354  -5.533  0.00  0.00     0.163 HD
HETATM    4  O           1     -23.058  -5.227  -6.089  0.00  0.00    -0.271 OA
ENDROOT
BRANCH   2   5
HETATM    5  C           1     -21.922  -7.162  -4.575  0.00  0.00     0.210 C 
BRANCH   5   6
HETATM    6  C           1     -21.650  -6.785  -3.139  0.00  0.00     0.198 C 
HETATM    7  O           1     -20.716  -7.333  -2.515  0.00  0.00    -0.646 OA
HETATM    8  O           1     -22.359  -5.925  -2.573  0.00  0.00    -0.646 OA
ENDBRANCH   5   6
BRANCH   5   9
HETATM    9  C           1     -21.475  -8.597  -4.817  0.00  0.00     0.217 C 
BRANCH   9  10
HETATM   10  O           1     -20.326  -8.601  -5.621  0.00  0.00    -0.287 OA
BRANCH  10  11
HETATM   11  P           1     -19.140  -9.593  -5.157  0.00  0.00     0.406 P 
HETATM   12  O           1     -19.687 -10.952  -4.949  0.00  0.00    -0.624 OA
HETATM   13  O           1     -18.095  -9.637  -6.205  0.00  0.00    -0.624 OA
BRANCH  11  14
HETATM   14  O           1     -18.496  -9.054  -3.778  0.00  0.00    -0.300 OA
HETATM   15  H           1     -19.012  -9.449  -3.096  0.00  0.00     0.223 HD
ENDBRANCH  11  14
ENDBRANCH  10  11
ENDBRANCH   9  10
ENDBRANCH   5   9
ENDBRANCH   2   5
BRANCH   1  16
HETATM   16  C           1     -21.094  -4.398  -7.097  0.00  0.00     0.278 C 
BRANCH  16  17
HETATM   17  C           1     -21.417  -4.737  -8.546  0.00  0.00     0.021 C 
HETATM   18  C           1     -22.441  -3.744  -9.084  0.00  0.00     0.012 C 
BRANCH  17  19
HETATM   19  C           1     -20.147  -4.657  -9.382  0.00  0.00     0.002 C 
HETATM   20  C           1     -20.498  -4.232 -10.801  0.00  0.00     0.005 C 
ENDBRANCH  17  19
ENDBRANCH  16  17
BRANCH  16  21
HETATM   21  N           1     -19.622  -4.565  -6.862  0.00  0.00    -0.066 N 
HETATM   22  H           1     -19.184  -3.627  -6.718  0.00  0.00     0.275 HD
HETATM   23  H           1     -19.187  -5.028  -7.690  0.00  0.00     0.275 HD
HETATM   24  H           1     -19.470  -5.155  -6.012  0.00  0.00     0.275 HD
ENDBRANCH  16  21
ENDBRANCH   1  16
TORSDOF 10
ENDMDL
MODEL 7
REMARK VINA RESULT:      -5.8     11.960     14.110
REMARK  10 active torsions:
REMARK  status: ('A' for Active; 'I' for Inactive)
REMARK    1  A    between atoms: C_4  and  C_7 
REMARK    2  A    between atoms: C_4  and  C_14 
REMARK       I    between atoms: C_6  and  N_13 
REMARK    3  A    between atoms: C_6  and  C_7 
REMARK    4  A    between atoms: C_7  and  N_20 
REMARK    5  A    between atoms: C_9  and  C_16 
REMARK    6  A    between atoms: O_12  and  P_17 
REMARK    7  A    between atoms: N_13  and  C_16 
REMARK    8  A    between atoms: C_16  and  C_18 
REMARK    9  A    between atoms: P_17  and  O_19 
REMARK   10  A    between atoms: C_18  and  O_19 
ROOT
HETATM    1  C           1     -21.529  -7.247  -5.361  0.00  0.00     0.249 C 
HETATM    2  N           1     -21.985  -6.007  -5.719  0.00  0.00    -0.343 N 
HETATM    3  H           1     -22.584  -5.488  -5.089  0.00  0.00     0.163 HD
HETATM    4  O           1     -20.815  -7.868  -6.112  0.00  0.00    -0.271 OA
ENDROOT
BRANCH   2   5
HETATM    5  C           1     -21.614  -5.439  -7.000  0.00  0.00     0.210 C 
BRANCH   5   6
HETATM    6  C           1     -20.260  -4.781  -6.884  0.00  0.00     0.198 C 
HETATM    7  O           1     -19.881  -4.321  -5.786  0.00  0.00    -0.646 OA
HETATM    8  O           1     -19.519  -4.696  -7.887  0.00  0.00    -0.646 OA
ENDBRANCH   5   6
BRANCH   5   9
HETATM    9  C           1     -22.649  -4.402  -7.415  0.00  0.00     0.217 C 
BRANCH   9  10
HETATM   10  O           1     -22.244  -3.787  -8.608  0.00  0.00    -0.287 OA
BRANCH  10  11
HETATM   11  P           1     -23.319  -3.795  -9.811  0.00  0.00     0.406 P 
HETATM   12  O           1     -23.688  -5.193 -10.132  0.00  0.00    -0.624 OA
HETATM   13  O           1     -24.529  -3.049  -9.398  0.00  0.00    -0.624 OA
BRANCH  11  14
HETATM   14  O           1     -22.674  -3.094 -11.115  0.00  0.00    -0.300 OA
HETATM   15  H           1     -21.929  -3.626 -11.335  0.00  0.00     0.223 HD
ENDBRANCH  11  14
ENDBRANCH  10  11
ENDBRANCH   9  10
ENDBRANCH   5   9
ENDBRANCH   2   5
BRANCH   1  16
HETATM   16  C           1     -21.916  -7.838  -4.027  0.00  0.00     0.278 C 
BRANCH  16  17
HETATM   17  C           1     -21.160  -7.124  -2.915  0.00  0.00     0.021 C 
HETATM   18  C           1     -22.122  -6.236  -2.136  0.00  0.00     0.012 C 
BRANCH  17  19
HETATM   19  C           1     -20.547  -8.153  -1.975  0.00  0.00     0.002 C 
HETATM   20  C           1     -21.219  -8.061  -0.612  0.00  0.00     0.005 C 
ENDBRANCH  17  19
ENDBRANCH  16  17
BRANCH  16  21
HETATM   21  N           1     -21.570  -9.297  -4.010  0.00  0.00    -0.066 N 
HETATM   22  H           1     -21.617  -9.679  -4.982  0.00  0.00     0.275 HD
HETATM   23  H           1     -22.248  -9.809  -3.402  0.00  0.00     0.275 HD
HETATM   24  H           1     -20.602  -9.421  -3.634  0.00  0.00     0.275 HD
ENDBRANCH  16  21
ENDBRANCH   1  16
TORSDOF 10
ENDMDL
MODEL 8
REMARK VINA RESULT:      -5.6     15.683     17.782
REMARK  10 active torsions:
REMARK  status: ('A' for Active; 'I' for Inactive)
REMARK    1  A    between atoms: C_4  and  C_7 
REMARK    2  A    between atoms: C_4  and  C_14 
REMARK       I    between atoms: C_6  and  N_13 
REMARK    3  A    between atoms: C_6  and  C_7 
REMARK    4  A    between atoms: C_7  and  N_20 
REMARK    5  A    between atoms: C_9  and  C_16 
REMARK    6  A    between atoms: O_12  and  P_17 
REMARK    7  A    between atoms: N_13  and  C_16 
REMARK    8  A    between atoms: C_16  and  C_18 
REMARK    9  A    between atoms: P_17  and  O_19 
REMARK   10  A    between atoms: C_18  and  O_19 
ROOT
HETATM    1  C           1     -20.315  -9.834  -1.684  0.00  0.00     0.249 C 
HETATM    2  N           1     -21.385  -8.993  -1.837  0.00  0.00    -0.343 N 
HETATM    3  H           1     -22.292  -9.259  -1.474  0.00  0.00     0.163 HD
HETATM    4  O           1     -19.232  -9.518  -2.118  0.00  0.00    -0.271 OA
ENDROOT
BRANCH   2   5
HETATM    5  C           1     -21.220  -7.726  -2.520  0.00  0.00     0.210 C 
BRANCH   5   6
HETATM    6  C           1     -22.127  -6.695  -1.894  0.00  0.00     0.198 C 
HETATM    7  O           1     -22.656  -6.920  -0.784  0.00  0.00    -0.646 OA
HETATM    8  O           1     -22.349  -5.616  -2.484  0.00  0.00    -0.646 OA
ENDBRANCH   5   6
BRANCH   5   9
HETATM    9  C           1     -21.579  -7.891  -3.991  0.00  0.00     0.217 C 
BRANCH   9  10
HETATM   10  O           1     -20.570  -7.331  -4.786  0.00  0.00    -0.287 OA
BRANCH  10  11
HETATM   11  P           1     -21.016  -6.109  -5.741  0.00  0.00     0.406 P 
HETATM   12  O           1     -20.189  -4.919  -5.438  0.00  0.00    -0.624 OA
HETATM   13  O           1     -20.825  -6.494  -7.158  0.00  0.00    -0.624 OA
BRANCH  11  14
HETATM   14  O           1     -22.573  -5.764  -5.483  0.00  0.00    -0.300 OA
HETATM   15  H           1     -22.700  -5.888  -4.558  0.00  0.00     0.223 HD
ENDBRANCH  11  14
ENDBRANCH  10  11
ENDBRANCH   9  10
ENDBRANCH   5   9
ENDBRANCH   2   5
BRANCH   1  16
HETATM   16  C           1     -20.487 -11.154  -0.973  0.00  0.00     0.278 C 
BRANCH  16  17
HETATM   17  C           1     -21.307 -10.947   0.292  0.00  0.00     0.021 C 
HETATM   18  C           1     -21.837 -12.289   0.780  0.00  0.00     0.012 C 
BRANCH  17  19
HETATM   19  C           1     -20.429 -10.327   1.371  0.00  0.00     0.002 C 
HETATM   20  C           1     -20.888  -8.902   1.644  0.00  0.00     0.005 C 
ENDBRANCH  17  19
ENDBRANCH  16  17
BRANCH  16  21
HETATM   21  N           1     -19.139 -11.704  -0.611  0.00  0.00    -0.066 N 
HETATM   22  H           1     -18.419 -11.321  -1.265  0.00  0.00     0.275 HD
HETATM   23  H           1     -19.157 -12.746  -0.685  0.00  0.00     0.275 HD
HETATM   24  H           1     -18.902 -11.428   0.369  0.00  0.00     0.275 HD
ENDBRANCH  16  21
ENDBRANCH   1  16
TORSDOF 10
ENDMDL
MODEL 9
REMARK VINA RESULT:      -5.4     14.315     16.329
REMARK  10 active torsions:
REMARK  status: ('A' for Active; 'I' for Inactive)
REMARK    1  A    between atoms: C_4  and  C_7 
REMARK    2  A    between atoms: C_4  and  C_14 
REMARK       I    between atoms: C_6  and  N_13 
REMARK    3  A    between atoms: C_6  and  C_7 
REMARK    4  A    between atoms: C_7  and  N_20 
REMARK    5  A    between atoms: C_9  and  C_16 
REMARK    6  A    between atoms: O_12  and  P_17 
REMARK    7  A    between atoms: N_13  and  C_16 
REMARK    8  A    between atoms: C_16  and  C_18 
REMARK    9  A    between atoms: P_17  and  O_19 
REMARK   10  A    between atoms: C_18  and  O_19 
ROOT
HETATM    1  C           1     -21.406  -6.626  -4.382  0.00  0.00     0.249 C 
HETATM    2  N           1     -20.862  -7.877  -4.275  0.00  0.00    -0.343 N 
HETATM    3  H           1     -20.726  -8.442  -5.103  0.00  0.00     0.163 HD
HETATM    4  O           1     -21.570  -5.951  -3.393  0.00  0.00    -0.271 OA
ENDROOT
BRANCH   2   5
HETATM    5  C           1     -20.482  -8.393  -2.974  0.00  0.00     0.210 C 
BRANCH   5   6
HETATM    6  C           1     -19.379  -9.410  -3.140  0.00  0.00     0.198 C 
HETATM    7  O           1     -19.659 -10.597  -3.416  0.00  0.00    -0.646 OA
HETATM    8  O           1     -18.185  -9.066  -3.001  0.00  0.00    -0.646 OA
ENDBRANCH   5   6
BRANCH   5   9
HETATM    9  C           1     -21.688  -9.054  -2.319  0.00  0.00     0.217 C 
BRANCH   9  10
HETATM   10  O           1     -21.473  -9.157  -0.938  0.00  0.00    -0.287 OA
BRANCH  10  11
HETATM   11  P           1     -22.395  -8.217  -0.004  0.00  0.00     0.406 P 
HETATM   12  O           1     -23.664  -8.917   0.299  0.00  0.00    -0.624 OA
HETATM   13  O           1     -21.681  -7.922   1.259  0.00  0.00    -0.624 OA
BRANCH  11  14
HETATM   14  O           1     -22.712  -6.835  -0.777  0.00  0.00    -0.300 OA
HETATM   15  H           1     -23.597  -6.926  -1.086  0.00  0.00     0.223 HD
ENDBRANCH  11  14
ENDBRANCH  10  11
ENDBRANCH   9  10
ENDBRANCH   5   9
ENDBRANCH   2   5
BRANCH   1  16
HETATM   16  C           1     -21.802  -6.088  -5.736  0.00  0.00     0.278 C 
BRANCH  16  17
HETATM   17  C           1     -20.872  -4.946  -6.121  0.00  0.00     0.021 C 
HETATM   18  C           1     -19.633  -5.509  -6.808  0.00  0.00     0.012 C 
BRANCH  17  19
HETATM   19  C           1     -21.593  -4.002  -7.073  0.00  0.00     0.002 C 
HETATM   20  C           1     -21.016  -4.154  -8.474  0.00  0.00     0.005 C 
ENDBRANCH  17  19
ENDBRANCH  16  17
BRANCH  16  21
HETATM   21  N           1     -23.214  -5.585  -5.679  0.00  0.00    -0.066 N 
HETATM   22  H           1     -23.375  -4.908  -6.459  0.00  0.00     0.275 HD
HETATM   23  H           1     -23.377  -5.107  -4.765  0.00  0.00     0.275 HD
HETATM   24  H           1     -23.874  -6.390  -5.774  0.00  0.00     0.275 HD
ENDBRANCH  16  21
ENDBRANCH   1  16
TORSDOF 10
ENDMDL
