MODEL 1
REMARK VINA RESULT:      -6.0      0.000      0.000
REMARK  8 active torsions:
REMARK  status: ('A' for Active; 'I' for Inactive)
REMARK    1  A    between atoms: C_6  and  C_11 
REMARK    2  A    between atoms: C_6  and  C_19 
REMARK    3  A    between atoms: C_6  and  N_20 
REMARK    4  A    between atoms: S_7  and  C_15 
REMARK    5  A    between atoms: N_8  and  C_9 
REMARK    6  A    between atoms: C_9  and  C_10 
REMARK    7  A    between atoms: C_9  and  C_15 
REMARK       I    between atoms: C_10  and  N_20 
REMARK    8  A    between atoms: C_11  and  C_13 
REMARK       I    between atoms: N_12  and  C_13 
ROOT
HETATM    1  H           1     -27.887  -6.553 -19.860  0.00  0.00     0.163 HD
HETATM    2  O           1     -26.127  -6.158 -17.292  0.00  0.00    -0.271 OA
HETATM    3  C           1     -26.380  -6.390 -18.450  0.00  0.00     0.249 C 
HETATM    4  N           1     -27.677  -6.360 -18.889  0.00  0.00    -0.344 N 
ENDROOT
BRANCH   4   5
HETATM    5  C           1     -28.748  -6.051 -17.961  0.00  0.00     0.194 C 
BRANCH   5   6
HETATM    6  C           1     -29.400  -4.734 -18.362  0.00  0.00     0.138 C 
BRANCH   6   7
HETATM    7  C           1     -28.941  -3.641 -17.428  0.00  0.00     0.217 C 
HETATM    8  N           1     -29.511  -2.398 -17.496  0.00  0.00    -0.370 N 
HETATM    9  H           1     -30.240  -2.212 -18.173  0.00  0.00     0.159 HD
HETATM   10  H           1     -29.203  -1.665 -16.870  0.00  0.00     0.159 HD
HETATM   11  O           1     -28.070  -3.863 -16.620  0.00  0.00    -0.274 OA
ENDBRANCH   6   7
ENDBRANCH   5   6
BRANCH   5  12
HETATM   12  C           1     -29.777  -7.154 -17.997  0.00  0.00     0.197 C 
HETATM   13  O           1     -30.831  -7.047 -17.334  0.00  0.00    -0.646 OA
HETATM   14  O           1     -29.575  -8.175 -18.689  0.00  0.00    -0.646 OA
ENDBRANCH   5  12
ENDBRANCH   4   5
BRANCH   3  15
HETATM   15  C           1     -25.265  -6.711 -19.415  0.00  0.00     0.283 C 
BRANCH  15  16
HETATM   16  N           1     -24.240  -7.563 -18.728  0.00  0.00    -0.066 N 
HETATM   17  H           1     -23.547  -7.911 -19.429  0.00  0.00     0.275 HD
HETATM   18  H           1     -23.745  -6.996 -18.003  0.00  0.00     0.275 HD
HETATM   19  H           1     -24.712  -8.377 -18.273  0.00  0.00     0.275 HD
ENDBRANCH  15  16
BRANCH  15  20
HETATM   20  C           1     -25.830  -7.465 -20.612  0.00  0.00     0.113 C 
BRANCH  20  21
HETATM   21  S           1     -24.490  -7.849 -21.774  0.00  0.00    -0.180 SA
HETATM   22  H           1     -25.145  -8.828 -22.424  0.00  0.00     0.101 HD
ENDBRANCH  20  21
ENDBRANCH  15  20
ENDBRANCH   3  15
TORSDOF 8
ENDMDL
MODEL 2
REMARK VINA RESULT:      -5.8      9.488     10.846
REMARK  8 active torsions:
REMARK  status: ('A' for Active; 'I' for Inactive)
REMARK    1  A    between atoms: C_6  and  C_11 
REMARK    2  A    between atoms: C_6  and  C_19 
REMARK    3  A    between atoms: C_6  and  N_20 
REMARK    4  A    between atoms: S_7  and  C_15 
REMARK    5  A    between atoms: N_8  and  C_9 
REMARK    6  A    between atoms: C_9  and  C_10 
REMARK    7  A    between atoms: C_9  and  C_15 
REMARK       I    between atoms: C_10  and  N_20 
REMARK    8  A    between atoms: C_11  and  C_13 
REMARK       I    between atoms: N_12  and  C_13 
ROOT
HETATM    1  H           1     -35.501  -1.955 -13.696  0.00  0.00     0.163 HD
HETATM    2  O           1     -33.692  -2.237 -11.148  0.00  0.00    -0.271 OA
HETATM    3  C           1     -34.281  -2.580 -12.145  0.00  0.00     0.249 C 
HETATM    4  N           1     -35.009  -1.667 -12.860  0.00  0.00    -0.344 N 
ENDROOT
BRANCH   4   5
HETATM    5  C           1     -35.072  -0.287 -12.419  0.00  0.00     0.194 C 
BRANCH   5   6
HETATM    6  C           1     -35.036   0.634 -13.633  0.00  0.00     0.138 C 
BRANCH   6   7
HETATM    7  C           1     -35.619  -0.084 -14.826  0.00  0.00     0.217 C 
HETATM    8  N           1     -36.949   0.053 -15.124  0.00  0.00    -0.370 N 
HETATM    9  H           1     -37.540   0.635 -14.545  0.00  0.00     0.159 HD
HETATM   10  H           1     -37.339  -0.428 -15.924  0.00  0.00     0.159 HD
HETATM   11  O           1     -34.913  -0.779 -15.517  0.00  0.00    -0.274 OA
ENDBRANCH   6   7
ENDBRANCH   5   6
BRANCH   5  12
HETATM   12  C           1     -36.354  -0.062 -11.654  0.00  0.00     0.197 C 
HETATM   13  O           1     -36.339   0.591 -10.588  0.00  0.00    -0.646 OA
HETATM   14  O           1     -37.429  -0.529 -12.087  0.00  0.00    -0.646 OA
ENDBRANCH   5  12
ENDBRANCH   4   5
BRANCH   3  15
HETATM   15  C           1     -34.214  -4.017 -12.603  0.00  0.00     0.283 C 
BRANCH  15  16
HETATM   16  N           1     -33.733  -4.066 -14.023  0.00  0.00    -0.066 N 
HETATM   17  H           1     -34.442  -3.620 -14.648  0.00  0.00     0.275 HD
HETATM   18  H           1     -32.827  -3.550 -14.102  0.00  0.00     0.275 HD
HETATM   19  H           1     -33.594  -5.061 -14.309  0.00  0.00     0.275 HD
ENDBRANCH  15  16
BRANCH  15  20
HETATM   20  C           1     -33.250  -4.790 -11.714  0.00  0.00     0.113 C 
BRANCH  20  21
HETATM   21  S           1     -34.170  -6.016 -10.743  0.00  0.00    -0.180 SA
HETATM   22  H           1     -35.364  -5.781 -11.316  0.00  0.00     0.101 HD
ENDBRANCH  20  21
ENDBRANCH  15  20
ENDBRANCH   3  15
TORSDOF 8
ENDMDL
MODEL 3
REMARK VINA RESULT:      -5.7      9.859     11.033
REMARK  8 active torsions:
REMARK  status: ('A' for Active; 'I' for Inactive)
REMARK    1  A    between atoms: C_6  and  C_11 
REMARK    2  A    between atoms: C_6  and  C_19 
REMARK    3  A    between atoms: C_6  and  N_20 
REMARK    4  A    between atoms: S_7  and  C_15 
REMARK    5  A    between atoms: N_8  and  C_9 
REMARK    6  A    between atoms: C_9  and  C_10 
REMARK    7  A    between atoms: C_9  and  C_15 
REMARK       I    between atoms: C_10  and  N_20 
REMARK    8  A    between atoms: C_11  and  C_13 
REMARK       I    between atoms: N_12  and  C_13 
ROOT
HETATM    1  H           1     -33.948  -0.946 -14.204  0.00  0.00     0.163 HD
HETATM    2  O           1     -36.681  -1.116 -12.670  0.00  0.00    -0.271 OA
HETATM    3  C           1     -35.496  -1.249 -12.863  0.00  0.00     0.249 C 
HETATM    4  N           1     -34.941  -0.835 -14.044  0.00  0.00    -0.344 N 
ENDROOT
BRANCH   4   5
HETATM    5  C           1     -35.778  -0.235 -15.065  0.00  0.00     0.194 C 
BRANCH   5   6
HETATM    6  C           1     -35.328   1.200 -15.309  0.00  0.00     0.138 C 
BRANCH   6   7
HETATM    7  C           1     -36.414   1.950 -16.043  0.00  0.00     0.217 C 
HETATM    8  N           1     -37.715   1.534 -15.950  0.00  0.00    -0.370 N 
HETATM    9  H           1     -37.950   0.725 -15.389  0.00  0.00     0.159 HD
HETATM   10  H           1     -38.443   2.036 -16.442  0.00  0.00     0.159 HD
HETATM   11  O           1     -36.134   2.915 -16.713  0.00  0.00    -0.274 OA
ENDBRANCH   6   7
ENDBRANCH   5   6
BRANCH   5  12
HETATM   12  C           1     -35.655  -1.026 -16.345  0.00  0.00     0.197 C 
HETATM   13  O           1     -36.570  -0.986 -17.194  0.00  0.00    -0.646 OA
HETATM   14  O           1     -34.636  -1.719 -16.554  0.00  0.00    -0.646 OA
ENDBRANCH   5  12
ENDBRANCH   4   5
BRANCH   3  15
HETATM   15  C           1     -34.626  -1.874 -11.800  0.00  0.00     0.283 C 
BRANCH  15  16
HETATM   16  N           1     -35.159  -1.516 -10.444  0.00  0.00    -0.066 N 
HETATM   17  H           1     -36.159  -1.225 -10.528  0.00  0.00     0.275 HD
HETATM   18  H           1     -35.092  -2.347  -9.813  0.00  0.00     0.275 HD
HETATM   19  H           1     -34.600  -0.729 -10.046  0.00  0.00     0.275 HD
ENDBRANCH  15  16
BRANCH  15  20
HETATM   20  C           1     -34.631  -3.388 -11.963  0.00  0.00     0.113 C 
BRANCH  20  21
HETATM   21  S           1     -32.936  -4.019 -11.817  0.00  0.00    -0.180 SA
HETATM   22  H           1     -33.271  -5.196 -11.261  0.00  0.00     0.101 HD
ENDBRANCH  20  21
ENDBRANCH  15  20
ENDBRANCH   3  15
TORSDOF 8
ENDMDL
MODEL 4
REMARK VINA RESULT:      -5.7     11.173     12.150
REMARK  8 active torsions:
REMARK  status: ('A' for Active; 'I' for Inactive)
REMARK    1  A    between atoms: C_6  and  C_11 
REMARK    2  A    between atoms: C_6  and  C_19 
REMARK    3  A    between atoms: C_6  and  N_20 
REMARK    4  A    between atoms: S_7  and  C_15 
REMARK    5  A    between atoms: N_8  and  C_9 
REMARK    6  A    between atoms: C_9  and  C_10 
REMARK    7  A    between atoms: C_9  and  C_15 
REMARK       I    between atoms: C_10  and  N_20 
REMARK    8  A    between atoms: C_11  and  C_13 
REMARK       I    between atoms: N_12  and  C_13 
ROOT
HETATM    1  H           1     -22.553  -5.939  -8.951  0.00  0.00     0.163 HD
HETATM    2  O           1     -21.332  -3.523  -7.364  0.00  0.00    -0.271 OA
HETATM    3  C           1     -21.603  -4.672  -7.616  0.00  0.00     0.249 C 
HETATM    4  N           1     -22.326  -4.976  -8.739  0.00  0.00    -0.344 N 
ENDROOT
BRANCH   4   5
HETATM    5  C           1     -22.766  -3.915  -9.625  0.00  0.00     0.194 C 
BRANCH   5   6
HETATM    6  C           1     -22.241  -4.180 -11.030  0.00  0.00     0.138 C 
BRANCH   6   7
HETATM    7  C           1     -20.752  -3.931 -11.066  0.00  0.00     0.217 C 
HETATM    8  N           1     -20.270  -2.730 -11.514  0.00  0.00    -0.370 N 
HETATM    9  H           1     -20.911  -2.010 -11.822  0.00  0.00     0.159 HD
HETATM   10  H           1     -19.273  -2.563 -11.538  0.00  0.00     0.159 HD
HETATM   11  O           1     -19.987  -4.790 -10.699  0.00  0.00    -0.274 OA
ENDBRANCH   6   7
ENDBRANCH   5   6
BRANCH   5  12
HETATM   12  C           1     -24.274  -3.874  -9.650  0.00  0.00     0.197 C 
HETATM   13  O           1     -24.925  -4.930  -9.808  0.00  0.00    -0.646 OA
HETATM   14  O           1     -24.872  -2.786  -9.513  0.00  0.00    -0.646 OA
ENDBRANCH   5  12
ENDBRANCH   4   5
BRANCH   3  15
HETATM   15  C           1     -21.145  -5.776  -6.694  0.00  0.00     0.283 C 
BRANCH  15  16
HETATM   16  N           1     -19.920  -6.426  -7.264  0.00  0.00    -0.066 N 
HETATM   17  H           1     -19.168  -6.450  -6.539  0.00  0.00     0.275 HD
HETATM   18  H           1     -20.149  -7.403  -7.559  0.00  0.00     0.275 HD
HETATM   19  H           1     -19.588  -5.881  -8.091  0.00  0.00     0.275 HD
ENDBRANCH  15  16
BRANCH  15  20
HETATM   20  C           1     -20.820  -5.192  -5.326  0.00  0.00     0.113 C 
BRANCH  20  21
HETATM   21  S           1     -21.408  -6.318  -4.031  0.00  0.00    -0.180 SA
HETATM   22  H           1     -20.549  -7.314  -4.310  0.00  0.00     0.101 HD
ENDBRANCH  20  21
ENDBRANCH  15  20
ENDBRANCH   3  15
TORSDOF 8
ENDMDL
MODEL 5
REMARK VINA RESULT:      -5.6      1.736      3.023
REMARK  8 active torsions:
REMARK  status: ('A' for Active; 'I' for Inactive)
REMARK    1  A    between atoms: C_6  and  C_11 
REMARK    2  A    between atoms: C_6  and  C_19 
REMARK    3  A    between atoms: C_6  and  N_20 
REMARK    4  A    between atoms: S_7  and  C_15 
REMARK    5  A    between atoms: N_8  and  C_9 
REMARK    6  A    between atoms: C_9  and  C_10 
REMARK    7  A    between atoms: C_9  and  C_15 
REMARK       I    between atoms: C_10  and  N_20 
REMARK    8  A    between atoms: C_11  and  C_13 
REMARK       I    between atoms: N_12  and  C_13 
ROOT
HETATM    1  H           1     -26.272  -6.795 -17.483  0.00  0.00     0.163 HD
HETATM    2  O           1     -27.119  -6.097 -20.423  0.00  0.00    -0.271 OA
HETATM    3  C           1     -26.402  -6.462 -19.522  0.00  0.00     0.249 C 
HETATM    4  N           1     -26.873  -6.489 -18.237  0.00  0.00    -0.344 N 
ENDROOT
BRANCH   4   5
HETATM    5  C           1     -28.236  -6.079 -17.958  0.00  0.00     0.194 C 
BRANCH   5   6
HETATM    6  C           1     -28.957  -7.195 -17.211  0.00  0.00     0.138 C 
BRANCH   6   7
HETATM    7  C           1     -30.329  -7.395 -17.808  0.00  0.00     0.217 C 
HETATM    8  N           1     -31.412  -6.760 -17.262  0.00  0.00    -0.370 N 
HETATM    9  H           1     -31.293  -6.157 -16.458  0.00  0.00     0.159 HD
HETATM   10  H           1     -32.332  -6.895 -17.662  0.00  0.00     0.159 HD
HETATM   11  O           1     -30.471  -8.115 -18.768  0.00  0.00    -0.274 OA
ENDBRANCH   6   7
ENDBRANCH   5   6
BRANCH   5  12
HETATM   12  C           1     -28.222  -4.832 -17.108  0.00  0.00     0.197 C 
HETATM   13  O           1     -28.693  -3.765 -17.557  0.00  0.00    -0.646 OA
HETATM   14  O           1     -27.740  -4.867 -15.956  0.00  0.00    -0.646 OA
ENDBRANCH   5  12
ENDBRANCH   4   5
BRANCH   3  15
HETATM   15  C           1     -24.984  -6.888 -19.813  0.00  0.00     0.283 C 
BRANCH  15  16
HETATM   16  N           1     -24.371  -7.467 -18.572  0.00  0.00    -0.066 N 
HETATM   17  H           1     -23.928  -8.387 -18.797  0.00  0.00     0.275 HD
HETATM   18  H           1     -23.644  -6.812 -18.204  0.00  0.00     0.275 HD
HETATM   19  H           1     -25.113  -7.607 -17.850  0.00  0.00     0.275 HD
ENDBRANCH  15  16
BRANCH  15  20
HETATM   20  C           1     -24.985  -7.939 -20.915  0.00  0.00     0.113 C 
BRANCH  20  21
HETATM   21  S           1     -23.278  -8.294 -21.417  0.00  0.00    -0.180 SA
HETATM   22  H           1     -23.448  -7.997 -22.717  0.00  0.00     0.101 HD
ENDBRANCH  20  21
ENDBRANCH  15  20
ENDBRANCH   3  15
TORSDOF 8
ENDMDL
MODEL 6
REMARK VINA RESULT:      -5.5      3.181      5.111
REMARK  8 active torsions:
REMARK  status: ('A' for Active; 'I' for Inactive)
REMARK    1  A    between atoms: C_6  and  C_11 
REMARK    2  A    between atoms: C_6  and  C_19 
REMARK    3  A    between atoms: C_6  and  N_20 
REMARK    4  A    between atoms: S_7  and  C_15 
REMARK    5  A    between atoms: N_8  and  C_9 
REMARK    6  A    between atoms: C_9  and  C_10 
REMARK    7  A    between atoms: C_9  and  C_15 
REMARK       I    between atoms: C_10  and  N_20 
REMARK    8  A    between atoms: C_11  and  C_13 
REMARK       I    between atoms: N_12  and  C_13 
ROOT
HETATM    1  H           1     -27.054  -7.939 -18.687  0.00  0.00     0.163 HD
HETATM    2  O           1     -28.477  -5.190 -19.199  0.00  0.00    -0.271 OA
HETATM    3  C           1     -28.165  -6.194 -18.605  0.00  0.00     0.249 C 
HETATM    4  N           1     -27.316  -7.098 -19.185  0.00  0.00    -0.344 N 
ENDROOT
BRANCH   4   5
HETATM    5  C           1     -26.790  -6.848 -20.514  0.00  0.00     0.194 C 
BRANCH   5   6
HETATM    6  C           1     -25.409  -6.214 -20.400  0.00  0.00     0.138 C 
BRANCH   6   7
HETATM    7  C           1     -24.634  -6.892 -19.296  0.00  0.00     0.217 C 
HETATM    8  N           1     -23.699  -7.845 -19.602  0.00  0.00    -0.370 N 
HETATM    9  H           1     -23.528  -8.095 -20.568  0.00  0.00     0.159 HD
HETATM   10  H           1     -23.180  -8.299 -18.862  0.00  0.00     0.159 HD
HETATM   11  O           1     -24.838  -6.594 -18.143  0.00  0.00    -0.274 OA
ENDBRANCH   6   7
ENDBRANCH   5   6
BRANCH   5  12
HETATM   12  C           1     -26.686  -8.152 -21.266  0.00  0.00     0.197 C 
HETATM   13  O           1     -25.600  -8.487 -21.788  0.00  0.00    -0.646 OA
HETATM   14  O           1     -27.684  -8.896 -21.367  0.00  0.00    -0.646 OA
ENDBRANCH   5  12
ENDBRANCH   4   5
BRANCH   3  15
HETATM   15  C           1     -28.713  -6.454 -17.223  0.00  0.00     0.283 C 
BRANCH  15  16
HETATM   16  N           1     -27.641  -7.061 -16.367  0.00  0.00    -0.066 N 
HETATM   17  H           1     -27.815  -6.820 -15.366  0.00  0.00     0.275 HD
HETATM   18  H           1     -27.650  -8.100 -16.481  0.00  0.00     0.275 HD
HETATM   19  H           1     -26.710  -6.686 -16.658  0.00  0.00     0.275 HD
ENDBRANCH  15  16
BRANCH  15  20
HETATM   20  C           1     -29.173  -5.141 -16.604  0.00  0.00     0.113 C 
BRANCH  20  21
HETATM   21  S           1     -30.973  -4.987 -16.778  0.00  0.00    -0.180 SA
HETATM   22  H           1     -30.976  -3.670 -17.048  0.00  0.00     0.101 HD
ENDBRANCH  20  21
ENDBRANCH  15  20
ENDBRANCH   3  15
TORSDOF 8
ENDMDL
MODEL 7
REMARK VINA RESULT:      -5.4      9.636     11.106
REMARK  8 active torsions:
REMARK  status: ('A' for Active; 'I' for Inactive)
REMARK    1  A    between atoms: C_6  and  C_11 
REMARK    2  A    between atoms: C_6  and  C_19 
REMARK    3  A    between atoms: C_6  and  N_20 
REMARK    4  A    between atoms: S_7  and  C_15 
REMARK    5  A    between atoms: N_8  and  C_9 
REMARK    6  A    between atoms: C_9  and  C_10 
REMARK    7  A    between atoms: C_9  and  C_15 
REMARK       I    between atoms: C_10  and  N_20 
REMARK    8  A    between atoms: C_11  and  C_13 
REMARK       I    between atoms: N_12  and  C_13 
ROOT
HETATM    1  H           1     -34.674  -0.831 -11.495  0.00  0.00     0.163 HD
HETATM    2  O           1     -34.510  -3.192 -13.556  0.00  0.00    -0.271 OA
HETATM    3  C           1     -34.271  -2.566 -12.550  0.00  0.00     0.249 C 
HETATM    4  N           1     -34.874  -1.355 -12.337  0.00  0.00    -0.344 N 
ENDROOT
BRANCH   4   5
HETATM    5  C           1     -35.799  -0.824 -13.320  0.00  0.00     0.194 C 
BRANCH   5   6
HETATM    6  C           1     -36.949  -0.125 -12.605  0.00  0.00     0.138 C 
BRANCH   6   7
HETATM    7  C           1     -36.892  -0.442 -11.131  0.00  0.00     0.217 C 
HETATM    8  N           1     -36.526   0.528 -10.235  0.00  0.00    -0.370 N 
HETATM    9  H           1     -36.295   1.457 -10.562  0.00  0.00     0.159 HD
HETATM   10  H           1     -36.488   0.315  -9.247  0.00  0.00     0.159 HD
HETATM   11  O           1     -37.168  -1.551 -10.740  0.00  0.00    -0.274 OA
ENDBRANCH   6   7
ENDBRANCH   5   6
BRANCH   5  12
HETATM   12  C           1     -35.080   0.165 -14.204  0.00  0.00     0.197 C 
HETATM   13  O           1     -34.808   1.306 -13.774  0.00  0.00    -0.646 OA
HETATM   14  O           1     -34.756  -0.159 -15.367  0.00  0.00    -0.646 OA
ENDBRANCH   5  12
ENDBRANCH   4   5
BRANCH   3  15
HETATM   15  C           1     -33.308  -3.119 -11.529  0.00  0.00     0.283 C 
BRANCH  15  16
HETATM   16  N           1     -33.957  -3.113 -10.176  0.00  0.00    -0.066 N 
HETATM   17  H           1     -33.747  -2.211  -9.692  0.00  0.00     0.275 HD
HETATM   18  H           1     -34.992  -3.215 -10.286  0.00  0.00     0.275 HD
HETATM   19  H           1     -33.586  -3.907  -9.608  0.00  0.00     0.275 HD
ENDBRANCH  15  16
BRANCH  15  20
HETATM   20  C           1     -32.933  -4.547 -11.904  0.00  0.00     0.113 C 
BRANCH  20  21
HETATM   21  S           1     -33.975  -5.710 -10.980  0.00  0.00    -0.180 SA
HETATM   22  H           1     -35.140  -5.087 -11.233  0.00  0.00     0.101 HD
ENDBRANCH  20  21
ENDBRANCH  15  20
ENDBRANCH   3  15
TORSDOF 8
ENDMDL
MODEL 8
REMARK VINA RESULT:      -5.0      3.052      5.801
REMARK  8 active torsions:
REMARK  status: ('A' for Active; 'I' for Inactive)
REMARK    1  A    between atoms: C_6  and  C_11 
REMARK    2  A    between atoms: C_6  and  C_19 
REMARK    3  A    between atoms: C_6  and  N_20 
REMARK    4  A    between atoms: S_7  and  C_15 
REMARK    5  A    between atoms: N_8  and  C_9 
REMARK    6  A    between atoms: C_9  and  C_10 
REMARK    7  A    between atoms: C_9  and  C_15 
REMARK       I    between atoms: C_10  and  N_20 
REMARK    8  A    between atoms: C_11  and  C_13 
REMARK       I    between atoms: N_12  and  C_13 
ROOT
HETATM    1  H           1     -26.336  -5.213 -17.681  0.00  0.00     0.163 HD
HETATM    2  O           1     -28.600  -7.109 -18.741  0.00  0.00    -0.271 OA
HETATM    3  C           1     -28.108  -6.156 -18.185  0.00  0.00     0.249 C 
HETATM    4  N           1     -26.747  -6.012 -18.146  0.00  0.00    -0.344 N 
ENDROOT
BRANCH   4   5
HETATM    5  C           1     -25.896  -7.004 -18.773  0.00  0.00     0.194 C 
BRANCH   5   6
HETATM    6  C           1     -25.717  -6.659 -20.246  0.00  0.00     0.138 C 
BRANCH   6   7
HETATM    7  C           1     -25.563  -7.930 -21.046  0.00  0.00     0.217 C 
HETATM    8  N           1     -24.314  -8.376 -21.388  0.00  0.00    -0.370 N 
HETATM    9  H           1     -23.495  -7.854 -21.105  0.00  0.00     0.159 HD
HETATM   10  H           1     -24.211  -9.228 -21.924  0.00  0.00     0.159 HD
HETATM   11  O           1     -26.541  -8.554 -21.383  0.00  0.00    -0.274 OA
ENDBRANCH   6   7
ENDBRANCH   5   6
BRANCH   5  12
HETATM   12  C           1     -24.550  -7.016 -18.091  0.00  0.00     0.197 C 
HETATM   13  O           1     -23.524  -6.689 -18.727  0.00  0.00    -0.646 OA
HETATM   14  O           1     -24.461  -7.350 -16.890  0.00  0.00    -0.646 OA
ENDBRANCH   5  12
ENDBRANCH   4   5
BRANCH   3  15
HETATM   15  C           1     -28.994  -5.123 -17.532  0.00  0.00     0.283 C 
BRANCH  15  16
HETATM   16  N           1     -29.487  -4.160 -18.571  0.00  0.00    -0.066 N 
HETATM   17  H           1     -28.778  -3.406 -18.713  0.00  0.00     0.275 HD
HETATM   18  H           1     -29.639  -4.668 -19.473  0.00  0.00     0.275 HD
HETATM   19  H           1     -30.388  -3.736 -18.254  0.00  0.00     0.275 HD
ENDBRANCH  15  16
BRANCH  15  20
HETATM   20  C           1     -30.183  -5.815 -16.878  0.00  0.00     0.113 C 
BRANCH  20  21
HETATM   21  S           1     -31.595  -4.675 -16.829  0.00  0.00    -0.180 SA
HETATM   22  H           1     -30.874  -3.551 -16.986  0.00  0.00     0.101 HD
ENDBRANCH  20  21
ENDBRANCH  15  20
ENDBRANCH   3  15
TORSDOF 8
ENDMDL
MODEL 9
REMARK VINA RESULT:      -5.0      3.125      4.935
REMARK  8 active torsions:
REMARK  status: ('A' for Active; 'I' for Inactive)
REMARK    1  A    between atoms: C_6  and  C_11 
REMARK    2  A    between atoms: C_6  and  C_19 
REMARK    3  A    between atoms: C_6  and  N_20 
REMARK    4  A    between atoms: S_7  and  C_15 
REMARK    5  A    between atoms: N_8  and  C_9 
REMARK    6  A    between atoms: C_9  and  C_10 
REMARK    7  A    between atoms: C_9  and  C_15 
REMARK       I    between atoms: C_10  and  N_20 
REMARK    8  A    between atoms: C_11  and  C_13 
REMARK       I    between atoms: N_12  and  C_13 
ROOT
HETATM    1  H           1     -27.432  -7.945 -18.232  0.00  0.00     0.163 HD
HETATM    2  O           1     -28.566  -5.081 -18.833  0.00  0.00    -0.271 OA
HETATM    3  C           1     -28.572  -6.233 -18.470  0.00  0.00     0.249 C 
HETATM    4  N           1     -27.426  -6.980 -18.537  0.00  0.00    -0.344 N 
ENDROOT
BRANCH   4   5
HETATM    5  C           1     -26.204  -6.386 -19.045  0.00  0.00     0.194 C 
BRANCH   5   6
HETATM    6  C           1     -25.026  -6.850 -18.197  0.00  0.00     0.138 C 
BRANCH   6   7
HETATM    7  C           1     -25.280  -6.502 -16.751  0.00  0.00     0.217 C 
HETATM    8  N           1     -24.771  -7.295 -15.757  0.00  0.00    -0.370 N 
HETATM    9  H           1     -24.225  -8.114 -15.992  0.00  0.00     0.159 HD
HETATM   10  H           1     -24.941  -7.062 -14.787  0.00  0.00     0.159 HD
HETATM   11  O           1     -25.932  -5.525 -16.469  0.00  0.00    -0.274 OA
ENDBRANCH   6   7
ENDBRANCH   5   6
BRANCH   5  12
HETATM   12  C           1     -25.994  -6.815 -20.477  0.00  0.00     0.197 C 
HETATM   13  O           1     -26.591  -7.819 -20.922  0.00  0.00    -0.646 OA
HETATM   14  O           1     -25.225  -6.165 -21.216  0.00  0.00    -0.646 OA
ENDBRANCH   5  12
ENDBRANCH   4   5
BRANCH   3  15
HETATM   15  C           1     -29.843  -6.851 -17.942  0.00  0.00     0.283 C 
BRANCH  15  16
HETATM   16  N           1     -29.528  -8.164 -17.289  0.00  0.00    -0.066 N 
HETATM   17  H           1     -30.158  -8.904 -17.670  0.00  0.00     0.275 HD
HETATM   18  H           1     -28.533  -8.420 -17.485  0.00  0.00     0.275 HD
HETATM   19  H           1     -29.671  -8.083 -16.257  0.00  0.00     0.275 HD
ENDBRANCH  15  16
BRANCH  15  20
HETATM   20  C           1     -30.475  -5.915 -16.919  0.00  0.00     0.113 C 
BRANCH  20  21
HETATM   21  S           1     -29.361  -5.729 -15.499  0.00  0.00    -0.180 SA
HETATM   22  H           1     -28.572  -4.796 -16.061  0.00  0.00     0.101 HD
ENDBRANCH  20  21
ENDBRANCH  15  20
ENDBRANCH   3  15
TORSDOF 8
ENDMDL
