MODEL 1
REMARK VINA RESULT:      -6.8      0.000      0.000
REMARK  9 active torsions:
REMARK  status: ('A' for Active; 'I' for Inactive)
REMARK    1  A    between atoms: C_2  and  C_8 
REMARK    2  A    between atoms: C_2  and  C_25 
REMARK    3  A    between atoms: C_8  and  C_19 
REMARK    4  A    between atoms: C_8  and  N_22 
REMARK    5  A    between atoms: C_10  and  C_11 
REMARK    6  A    between atoms: C_11  and  C_12 
REMARK    7  A    between atoms: C_12  and  C_14 
REMARK    8  A    between atoms: C_12  and  N_18 
REMARK       I    between atoms: N_18  and  C_19 
REMARK    9  A    between atoms: C_25  and  C_26 
ROOT
HETATM    1  N           1     -34.641  -1.445 -12.802  0.00  0.00    -0.344 N 
HETATM    2  C           1     -35.248  -0.352 -13.360  0.00  0.00     0.249 C 
HETATM    3  H           1     -33.762  -1.781 -13.175  0.00  0.00     0.163 HD
HETATM    4  O           1     -34.998   0.755 -12.946  0.00  0.00    -0.271 OA
ENDROOT
BRANCH   1   5
HETATM    5  C           1     -35.258  -2.122 -11.678  0.00  0.00     0.191 C 
BRANCH   5   6
HETATM    6  C           1     -34.178  -2.558 -10.696  0.00  0.00     0.094 C 
BRANCH   6   7
HETATM    7  C           1     -33.841  -3.998 -10.931  0.00  0.00     0.028 A 
HETATM    8  C           1     -32.795  -4.438 -11.707  0.00  0.00     0.114 A 
HETATM    9  N           1     -32.858  -5.803 -11.645  0.00  0.00    -0.360 N 
HETATM   10  H           1     -32.209  -6.476 -12.122  0.00  0.00     0.166 HD
HETATM   11  C           1     -33.919  -6.128 -10.849  0.00  0.00     0.180 A 
HETATM   12  N           1     -34.532  -5.058 -10.402  0.00  0.00    -0.354 N 
ATOM     13  HN          1     -35.348  -5.022  -9.791  1.00  0.00     0.166 HD
ENDBRANCH   6   7
ENDBRANCH   5   6
BRANCH   5  14
HETATM   14  C           1     -36.213  -1.179 -10.989  0.00  0.00     0.197 C 
HETATM   15  O           1     -37.406  -1.116 -11.360  0.00  0.00    -0.646 OA
HETATM   16  O           1     -35.813  -0.461 -10.047  0.00  0.00    -0.646 OA
ENDBRANCH   5  14
ENDBRANCH   1   5
BRANCH   2  17
HETATM   17  C           1     -36.230  -0.530 -14.492  0.00  0.00     0.275 C 
BRANCH  17  18
HETATM   18  C           1     -35.552  -0.193 -15.812  0.00  0.00     0.053 C 
BRANCH  18  19
HETATM   19  C           1     -35.755  -1.339 -16.795  0.00  0.00     0.115 C 
BRANCH  19  20
HETATM   20  C           1     -34.675  -2.373 -16.593  0.00  0.00     0.172 C 
HETATM   21  O           1     -34.690  -3.105 -15.579  0.00  0.00    -0.648 OA
HETATM   22  O           1     -33.763  -2.498 -17.439  0.00  0.00    -0.648 OA
ENDBRANCH  19  20
ENDBRANCH  18  19
ENDBRANCH  17  18
BRANCH  17  23
HETATM   23  N           1     -37.402   0.384 -14.285  0.00  0.00    -0.066 N 
HETATM   24  H           1     -38.283  -0.178 -14.266  0.00  0.00     0.275 HD
HETATM   25  H           1     -37.293   0.890 -13.377  0.00  0.00     0.275 HD
HETATM   26  H           1     -37.446   1.076 -15.066  0.00  0.00     0.275 HD
ENDBRANCH  17  23
ENDBRANCH   2  17
TORSDOF 9
ENDMDL
MODEL 2
REMARK VINA RESULT:      -6.8      3.021      5.714
REMARK  9 active torsions:
REMARK  status: ('A' for Active; 'I' for Inactive)
REMARK    1  A    between atoms: C_2  and  C_8 
REMARK    2  A    between atoms: C_2  and  C_25 
REMARK    3  A    between atoms: C_8  and  C_19 
REMARK    4  A    between atoms: C_8  and  N_22 
REMARK    5  A    between atoms: C_10  and  C_11 
REMARK    6  A    between atoms: C_11  and  C_12 
REMARK    7  A    between atoms: C_12  and  C_14 
REMARK    8  A    between atoms: C_12  and  N_18 
REMARK       I    between atoms: N_18  and  C_19 
REMARK    9  A    between atoms: C_25  and  C_26 
ROOT
HETATM    1  N           1     -36.101  -1.404 -10.221  0.00  0.00    -0.344 N 
HETATM    2  C           1     -34.961  -2.020 -10.663  0.00  0.00     0.249 C 
HETATM    3  H           1     -36.653  -1.827  -9.486  0.00  0.00     0.163 HD
HETATM    4  O           1     -33.900  -1.774 -10.141  0.00  0.00    -0.271 OA
ENDROOT
BRANCH   1   5
HETATM    5  C           1     -36.517  -0.144 -10.806  0.00  0.00     0.191 C 
BRANCH   5   6
HETATM    6  C           1     -37.668  -0.390 -11.772  0.00  0.00     0.094 C 
BRANCH   6   7
HETATM    7  C           1     -37.251  -0.001 -13.156  0.00  0.00     0.028 A 
HETATM    8  C           1     -38.074  -0.024 -14.257  0.00  0.00     0.114 A 
HETATM    9  N           1     -37.292   0.402 -15.294  0.00  0.00    -0.360 N 
HETATM   10  H           1     -37.592   0.511 -16.294  0.00  0.00     0.166 HD
HETATM   11  C           1     -36.049   0.661 -14.791  0.00  0.00     0.180 A 
HETATM   12  N           1     -35.994   0.427 -13.501  0.00  0.00    -0.354 N 
ATOM     13  HN          1     -35.188   0.539 -12.885  1.00  0.00     0.166 HD
ENDBRANCH   6   7
ENDBRANCH   5   6
BRANCH   5  14
HETATM   14  C           1     -36.970   0.792  -9.712  0.00  0.00     0.197 C 
HETATM   15  O           1     -36.240   0.988  -8.715  0.00  0.00    -0.646 OA
HETATM   16  O           1     -38.075   1.369  -9.801  0.00  0.00    -0.646 OA
ENDBRANCH   5  14
ENDBRANCH   1   5
BRANCH   2  17
HETATM   17  C           1     -35.030  -3.006 -11.803  0.00  0.00     0.275 C 
BRANCH  17  18
HETATM   18  C           1     -34.243  -4.258 -11.441  0.00  0.00     0.053 C 
BRANCH  18  19
HETATM   19  C           1     -35.088  -5.145 -10.536  0.00  0.00     0.115 C 
BRANCH  19  20
HETATM   20  C           1     -34.422  -6.492 -10.387  0.00  0.00     0.172 C 
HETATM   21  O           1     -33.274  -6.677 -10.845  0.00  0.00    -0.648 OA
HETATM   22  O           1     -35.020  -7.423  -9.805  0.00  0.00    -0.648 OA
ENDBRANCH  19  20
ENDBRANCH  18  19
ENDBRANCH  17  18
BRANCH  17  23
HETATM   23  N           1     -34.443  -2.386 -13.036  0.00  0.00    -0.066 N 
HETATM   24  H           1     -33.406  -2.304 -12.925  0.00  0.00     0.275 HD
HETATM   25  H           1     -34.657  -2.986 -13.865  0.00  0.00     0.275 HD
HETATM   26  H           1     -34.854  -1.436 -13.178  0.00  0.00     0.275 HD
ENDBRANCH  17  23
ENDBRANCH   2  17
TORSDOF 9
ENDMDL
MODEL 3
REMARK VINA RESULT:      -6.7      2.208      3.606
REMARK  9 active torsions:
REMARK  status: ('A' for Active; 'I' for Inactive)
REMARK    1  A    between atoms: C_2  and  C_8 
REMARK    2  A    between atoms: C_2  and  C_25 
REMARK    3  A    between atoms: C_8  and  C_19 
REMARK    4  A    between atoms: C_8  and  N_22 
REMARK    5  A    between atoms: C_10  and  C_11 
REMARK    6  A    between atoms: C_11  and  C_12 
REMARK    7  A    between atoms: C_12  and  C_14 
REMARK    8  A    between atoms: C_12  and  N_18 
REMARK       I    between atoms: N_18  and  C_19 
REMARK    9  A    between atoms: C_25  and  C_26 
ROOT
HETATM    1  N           1     -33.360  -2.843 -11.718  0.00  0.00    -0.344 N 
HETATM    2  C           1     -34.134  -2.019 -10.945  0.00  0.00     0.249 C 
HETATM    3  H           1     -32.571  -2.466 -12.226  0.00  0.00     0.163 HD
HETATM    4  O           1     -33.855  -1.845  -9.782  0.00  0.00    -0.271 OA
ENDROOT
BRANCH   1   5
HETATM    5  C           1     -33.673  -4.256 -11.808  0.00  0.00     0.191 C 
BRANCH   5   6
HETATM    6  C           1     -34.516  -4.665 -10.607  0.00  0.00     0.094 C 
BRANCH   6   7
HETATM    7  C           1     -34.352  -6.132 -10.358  0.00  0.00     0.028 A 
HETATM    8  C           1     -35.217  -6.900  -9.616  0.00  0.00     0.114 A 
HETATM    9  N           1     -34.690  -8.161  -9.650  0.00  0.00    -0.360 N 
HETATM   10  H           1     -35.091  -9.015  -9.187  0.00  0.00     0.166 HD
HETATM   11  C           1     -33.548  -8.108 -10.397  0.00  0.00     0.180 A 
HETATM   12  N           1     -33.318  -6.894 -10.839  0.00  0.00    -0.354 N 
ATOM     13  HN          1     -32.537  -6.584 -11.417  1.00  0.00     0.166 HD
ENDBRANCH   6   7
ENDBRANCH   5   6
BRANCH   5  14
HETATM   14  C           1     -34.444  -4.519 -13.077  0.00  0.00     0.197 C 
HETATM   15  O           1     -34.334  -3.740 -14.049  0.00  0.00    -0.646 OA
HETATM   16  O           1     -35.195  -5.516 -13.158  0.00  0.00    -0.646 OA
ENDBRANCH   5  14
ENDBRANCH   1   5
BRANCH   2  17
HETATM   17  C           1     -35.334  -1.328 -11.545  0.00  0.00     0.275 C 
BRANCH  17  18
HETATM   18  C           1     -34.877  -0.374 -12.640  0.00  0.00     0.053 C 
BRANCH  18  19
HETATM   19  C           1     -36.051  -0.055 -13.557  0.00  0.00     0.115 C 
BRANCH  19  20
HETATM   20  C           1     -35.533   0.437 -14.886  0.00  0.00     0.172 C 
HETATM   21  O           1     -36.334   0.754 -15.792  0.00  0.00    -0.648 OA
HETATM   22  O           1     -34.301   0.528 -15.082  0.00  0.00    -0.648 OA
ENDBRANCH  19  20
ENDBRANCH  18  19
ENDBRANCH  17  18
BRANCH  17  23
HETATM   23  N           1     -36.052  -0.557 -10.477  0.00  0.00    -0.066 N 
HETATM   24  H           1     -37.045  -0.878 -10.424  0.00  0.00     0.275 HD
HETATM   25  H           1     -35.584  -0.719  -9.556  0.00  0.00     0.275 HD
HETATM   26  H           1     -36.026   0.462 -10.706  0.00  0.00     0.275 HD
ENDBRANCH  17  23
ENDBRANCH   2  17
TORSDOF 9
ENDMDL
MODEL 4
REMARK VINA RESULT:      -6.6     13.505     16.354
REMARK  9 active torsions:
REMARK  status: ('A' for Active; 'I' for Inactive)
REMARK    1  A    between atoms: C_2  and  C_8 
REMARK    2  A    between atoms: C_2  and  C_25 
REMARK    3  A    between atoms: C_8  and  C_19 
REMARK    4  A    between atoms: C_8  and  N_22 
REMARK    5  A    between atoms: C_10  and  C_11 
REMARK    6  A    between atoms: C_11  and  C_12 
REMARK    7  A    between atoms: C_12  and  C_14 
REMARK    8  A    between atoms: C_12  and  N_18 
REMARK       I    between atoms: N_18  and  C_19 
REMARK    9  A    between atoms: C_25  and  C_26 
ROOT
HETATM    1  N           1     -20.393  -5.911  -6.964  0.00  0.00    -0.344 N 
HETATM    2  C           1     -21.098  -6.677  -6.075  0.00  0.00     0.249 C 
HETATM    3  H           1     -19.403  -5.755  -6.823  0.00  0.00     0.163 HD
HETATM    4  O           1     -21.194  -7.870  -6.248  0.00  0.00    -0.271 OA
ENDROOT
BRANCH   1   5
HETATM    5  C           1     -21.064  -5.325  -8.108  0.00  0.00     0.191 C 
BRANCH   5   6
HETATM    6  C           1     -22.172  -4.399  -7.625  0.00  0.00     0.094 C 
BRANCH   6   7
HETATM    7  C           1     -23.181  -4.215  -8.716  0.00  0.00     0.028 A 
HETATM    8  C           1     -23.215  -4.945  -9.880  0.00  0.00     0.114 A 
HETATM    9  N           1     -24.282  -4.451 -10.577  0.00  0.00    -0.360 N 
HETATM   10  H           1     -24.611  -4.775 -11.520  0.00  0.00     0.166 HD
HETATM   11  C           1     -24.842  -3.461  -9.822  0.00  0.00     0.180 A 
HETATM   12  N           1     -24.198  -3.295  -8.690  0.00  0.00    -0.354 N 
ATOM     13  HN          1     -24.409  -2.626  -7.950  1.00  0.00     0.166 HD
ENDBRANCH   6   7
ENDBRANCH   5   6
BRANCH   5  14
HETATM   14  C           1     -20.069  -4.537  -8.924  0.00  0.00     0.197 C 
HETATM   15  O           1     -19.447  -3.586  -8.402  0.00  0.00    -0.646 OA
HETATM   16  O           1     -19.867  -4.834 -10.121  0.00  0.00    -0.646 OA
ENDBRANCH   5  14
ENDBRANCH   1   5
BRANCH   2  17
HETATM   17  C           1     -21.757  -6.033  -4.880  0.00  0.00     0.275 C 
BRANCH  17  18
HETATM   18  C           1     -21.198  -6.642  -3.601  0.00  0.00     0.053 C 
BRANCH  18  19
HETATM   19  C           1     -21.983  -6.119  -2.405  0.00  0.00     0.115 C 
BRANCH  19  20
HETATM   20  C           1     -22.055  -7.188  -1.343  0.00  0.00     0.172 C 
HETATM   21  O           1     -22.850  -7.067  -0.386  0.00  0.00    -0.648 OA
HETATM   22  O           1     -21.318  -8.195  -1.418  0.00  0.00    -0.648 OA
ENDBRANCH  19  20
ENDBRANCH  18  19
ENDBRANCH  17  18
BRANCH  17  23
HETATM   23  N           1     -23.237  -6.267  -4.940  0.00  0.00    -0.066 N 
HETATM   24  H           1     -23.494  -7.042  -4.287  0.00  0.00     0.275 HD
HETATM   25  H           1     -23.740  -5.395  -4.659  0.00  0.00     0.275 HD
HETATM   26  H           1     -23.510  -6.527  -5.914  0.00  0.00     0.275 HD
ENDBRANCH  17  23
ENDBRANCH   2  17
TORSDOF 9
ENDMDL
MODEL 5
REMARK VINA RESULT:      -6.5     13.870     15.832
REMARK  9 active torsions:
REMARK  status: ('A' for Active; 'I' for Inactive)
REMARK    1  A    between atoms: C_2  and  C_8 
REMARK    2  A    between atoms: C_2  and  C_25 
REMARK    3  A    between atoms: C_8  and  C_19 
REMARK    4  A    between atoms: C_8  and  N_22 
REMARK    5  A    between atoms: C_10  and  C_11 
REMARK    6  A    between atoms: C_11  and  C_12 
REMARK    7  A    between atoms: C_12  and  C_14 
REMARK    8  A    between atoms: C_12  and  N_18 
REMARK       I    between atoms: N_18  and  C_19 
REMARK    9  A    between atoms: C_25  and  C_26 
ROOT
HETATM    1  N           1     -20.695  -6.714  -6.851  0.00  0.00    -0.344 N 
HETATM    2  C           1     -20.619  -5.422  -7.300  0.00  0.00     0.249 C 
HETATM    3  H           1     -20.813  -7.472  -7.511  0.00  0.00     0.163 HD
HETATM    4  O           1     -19.545  -4.942  -7.578  0.00  0.00    -0.271 OA
ENDROOT
BRANCH   1   5
HETATM    5  C           1     -20.608  -6.994  -5.431  0.00  0.00     0.191 C 
BRANCH   5   6
HETATM    6  C           1     -21.990  -6.862  -4.803  0.00  0.00     0.094 C 
BRANCH   6   7
HETATM    7  C           1     -21.892  -7.095  -3.328  0.00  0.00     0.028 A 
HETATM    8  C           1     -22.129  -6.139  -2.369  0.00  0.00     0.114 A 
HETATM    9  N           1     -21.928  -6.776  -1.176  0.00  0.00    -0.360 N 
HETATM   10  H           1     -22.022  -6.350  -0.221  0.00  0.00     0.166 HD
HETATM   11  C           1     -21.584  -8.068  -1.454  0.00  0.00     0.180 A 
HETATM   12  N           1     -21.555  -8.291  -2.747  0.00  0.00    -0.354 N 
ATOM     13  HN          1     -21.330  -9.166  -3.219  1.00  0.00     0.166 HD
ENDBRANCH   6   7
ENDBRANCH   5   6
BRANCH   5  14
HETATM   14  C           1     -20.095  -8.399  -5.229  0.00  0.00     0.197 C 
HETATM   15  O           1     -19.040  -8.593  -4.586  0.00  0.00    -0.646 OA
HETATM   16  O           1     -20.724  -9.369  -5.704  0.00  0.00    -0.646 OA
ENDBRANCH   5  14
ENDBRANCH   1   5
BRANCH   2  17
HETATM   17  C           1     -21.873  -4.597  -7.444  0.00  0.00     0.275 C 
BRANCH  17  18
HETATM   18  C           1     -22.378  -4.686  -8.878  0.00  0.00     0.053 C 
BRANCH  18  19
HETATM   19  C           1     -23.700  -3.939  -8.999  0.00  0.00     0.115 C 
BRANCH  19  20
HETATM   20  C           1     -24.044  -3.754 -10.456  0.00  0.00     0.172 C 
HETATM   21  O           1     -23.246  -4.135 -11.340  0.00  0.00    -0.648 OA
HETATM   22  O           1     -25.126  -3.218 -10.781  0.00  0.00    -0.648 OA
ENDBRANCH  19  20
ENDBRANCH  18  19
ENDBRANCH  17  18
BRANCH  17  23
HETATM   23  N           1     -21.572  -3.167  -7.108  0.00  0.00    -0.066 N 
HETATM   24  H           1     -22.263  -2.544  -7.587  0.00  0.00     0.275 HD
HETATM   25  H           1     -21.639  -3.030  -6.074  0.00  0.00     0.275 HD
HETATM   26  H           1     -20.607  -2.929  -7.429  0.00  0.00     0.275 HD
ENDBRANCH  17  23
ENDBRANCH   2  17
TORSDOF 9
ENDMDL
MODEL 6
REMARK VINA RESULT:      -6.0      2.044      4.658
REMARK  9 active torsions:
REMARK  status: ('A' for Active; 'I' for Inactive)
REMARK    1  A    between atoms: C_2  and  C_8 
REMARK    2  A    between atoms: C_2  and  C_25 
REMARK    3  A    between atoms: C_8  and  C_19 
REMARK    4  A    between atoms: C_8  and  N_22 
REMARK    5  A    between atoms: C_10  and  C_11 
REMARK    6  A    between atoms: C_11  and  C_12 
REMARK    7  A    between atoms: C_12  and  C_14 
REMARK    8  A    between atoms: C_12  and  N_18 
REMARK       I    between atoms: N_18  and  C_19 
REMARK    9  A    between atoms: C_25  and  C_26 
ROOT
HETATM    1  N           1     -35.846  -1.608 -10.813  0.00  0.00    -0.344 N 
HETATM    2  C           1     -34.519  -1.931 -10.716  0.00  0.00     0.249 C 
HETATM    3  H           1     -36.552  -2.305 -10.614  0.00  0.00     0.163 HD
HETATM    4  O           1     -33.936  -1.782  -9.668  0.00  0.00    -0.271 OA
ENDROOT
BRANCH   1   5
HETATM    5  C           1     -36.240  -0.267 -11.201  0.00  0.00     0.191 C 
BRANCH   5   6
HETATM    6  C           1     -37.194  -0.343 -12.385  0.00  0.00     0.094 C 
BRANCH   6   7
HETATM    7  C           1     -36.479   0.077 -13.631  0.00  0.00     0.028 A 
HETATM    8  C           1     -35.206   0.595 -13.664  0.00  0.00     0.114 A 
HETATM    9  N           1     -34.955   0.835 -14.987  0.00  0.00    -0.360 N 
HETATM   10  H           1     -34.071   1.234 -15.389  0.00  0.00     0.166 HD
HETATM   11  C           1     -36.065   0.459 -15.689  0.00  0.00     0.180 A 
HETATM   12  N           1     -37.002  -0.004 -14.896  0.00  0.00    -0.354 N 
ATOM     13  HN          1     -37.923  -0.350 -15.164  1.00  0.00     0.166 HD
ENDBRANCH   6   7
ENDBRANCH   5   6
BRANCH   5  14
HETATM   14  C           1     -36.929   0.408 -10.041  0.00  0.00     0.197 C 
HETATM   15  O           1     -36.393   0.412  -8.911  0.00  0.00    -0.646 OA
HETATM   16  O           1     -38.037   0.962 -10.209  0.00  0.00    -0.646 OA
ENDBRANCH   5  14
ENDBRANCH   1   5
BRANCH   2  17
HETATM   17  C           1     -33.783  -2.471 -11.918  0.00  0.00     0.275 C 
BRANCH  17  18
HETATM   18  C           1     -34.769  -3.160 -12.851  0.00  0.00     0.053 C 
BRANCH  18  19
HETATM   19  C           1     -34.033  -4.188 -13.699  0.00  0.00     0.115 C 
BRANCH  19  20
HETATM   20  C           1     -34.024  -3.741 -15.140  0.00  0.00     0.172 C 
HETATM   21  O           1     -34.841  -2.880 -15.533  0.00  0.00    -0.648 OA
HETATM   22  O           1     -33.202  -4.233 -15.943  0.00  0.00    -0.648 OA
ENDBRANCH  19  20
ENDBRANCH  18  19
ENDBRANCH  17  18
BRANCH  17  23
HETATM   23  N           1     -32.748  -3.458 -11.468  0.00  0.00    -0.066 N 
HETATM   24  H           1     -33.219  -4.331 -11.138  0.00  0.00     0.275 HD
HETATM   25  H           1     -32.113  -3.686 -12.266  0.00  0.00     0.275 HD
HETATM   26  H           1     -32.191  -3.046 -10.686  0.00  0.00     0.275 HD
ENDBRANCH  17  23
ENDBRANCH   2  17
TORSDOF 9
ENDMDL
MODEL 7
REMARK VINA RESULT:      -6.0     13.465     15.432
REMARK  9 active torsions:
REMARK  status: ('A' for Active; 'I' for Inactive)
REMARK    1  A    between atoms: C_2  and  C_8 
REMARK    2  A    between atoms: C_2  and  C_25 
REMARK    3  A    between atoms: C_8  and  C_19 
REMARK    4  A    between atoms: C_8  and  N_22 
REMARK    5  A    between atoms: C_10  and  C_11 
REMARK    6  A    between atoms: C_11  and  C_12 
REMARK    7  A    between atoms: C_12  and  C_14 
REMARK    8  A    between atoms: C_12  and  N_18 
REMARK       I    between atoms: N_18  and  C_19 
REMARK    9  A    between atoms: C_25  and  C_26 
ROOT
HETATM    1  N           1     -20.610  -6.596  -6.873  0.00  0.00    -0.344 N 
HETATM    2  C           1     -20.965  -5.305  -7.162  0.00  0.00     0.249 C 
HETATM    3  H           1     -19.905  -7.063  -7.428  0.00  0.00     0.163 HD
HETATM    4  O           1     -20.379  -4.387  -6.639  0.00  0.00    -0.271 OA
ENDROOT
BRANCH   1   5
HETATM    5  C           1     -21.247  -7.293  -5.772  0.00  0.00     0.191 C 
BRANCH   5   6
HETATM    6  C           1     -20.188  -8.025  -4.957  0.00  0.00     0.094 C 
BRANCH   6   7
HETATM    7  C           1     -20.854  -8.857  -3.905  0.00  0.00     0.028 A 
HETATM    8  C           1     -21.631  -9.963  -4.159  0.00  0.00     0.114 A 
HETATM    9  N           1     -22.030 -10.405  -2.928  0.00  0.00    -0.360 N 
HETATM   10  H           1     -22.639 -11.239  -2.736  0.00  0.00     0.166 HD
HETATM   11  C           1     -21.489  -9.566  -1.996  0.00  0.00     0.180 A 
HETATM   12  N           1     -20.773  -8.621  -2.557  0.00  0.00    -0.354 N 
ATOM     13  HN          1     -20.265  -7.870  -2.089  1.00  0.00     0.166 HD
ENDBRANCH   6   7
ENDBRANCH   5   6
BRANCH   5  14
HETATM   14  C           1     -21.959  -6.296  -4.892  0.00  0.00     0.197 C 
HETATM   15  O           1     -23.170  -6.048  -5.080  0.00  0.00    -0.646 OA
HETATM   16  O           1     -21.338  -5.716  -3.975  0.00  0.00    -0.646 OA
ENDBRANCH   5  14
ENDBRANCH   1   5
BRANCH   2  17
HETATM   17  C           1     -22.086  -5.029  -8.132  0.00  0.00     0.275 C 
BRANCH  17  18
HETATM   18  C           1     -21.520  -4.405  -9.400  0.00  0.00     0.053 C 
BRANCH  18  19
HETATM   19  C           1     -22.577  -3.518 -10.045  0.00  0.00     0.115 C 
BRANCH  19  20
HETATM   20  C           1     -23.583  -4.378 -10.770  0.00  0.00     0.172 C 
HETATM   21  O           1     -23.363  -4.744 -11.945  0.00  0.00    -0.648 OA
HETATM   22  O           1     -24.639  -4.724 -10.196  0.00  0.00    -0.648 OA
ENDBRANCH  19  20
ENDBRANCH  18  19
ENDBRANCH  17  18
BRANCH  17  23
HETATM   23  N           1     -23.068  -4.085  -7.505  0.00  0.00    -0.066 N 
HETATM   24  H           1     -24.039  -4.355  -7.784  0.00  0.00     0.275 HD
HETATM   25  H           1     -22.980  -4.130  -6.465  0.00  0.00     0.275 HD
HETATM   26  H           1     -22.871  -3.112  -7.829  0.00  0.00     0.275 HD
ENDBRANCH  17  23
ENDBRANCH   2  17
TORSDOF 9
ENDMDL
MODEL 8
REMARK VINA RESULT:      -5.8     15.434     17.469
REMARK  9 active torsions:
REMARK  status: ('A' for Active; 'I' for Inactive)
REMARK    1  A    between atoms: C_2  and  C_8 
REMARK    2  A    between atoms: C_2  and  C_25 
REMARK    3  A    between atoms: C_8  and  C_19 
REMARK    4  A    between atoms: C_8  and  N_22 
REMARK    5  A    between atoms: C_10  and  C_11 
REMARK    6  A    between atoms: C_11  and  C_12 
REMARK    7  A    between atoms: C_12  and  C_14 
REMARK    8  A    between atoms: C_12  and  N_18 
REMARK       I    between atoms: N_18  and  C_19 
REMARK    9  A    between atoms: C_25  and  C_26 
ROOT
HETATM    1  N           1     -21.348  -6.484  -3.044  0.00  0.00    -0.344 N 
HETATM    2  C           1     -21.553  -6.294  -4.385  0.00  0.00     0.249 C 
HETATM    3  H           1     -21.170  -5.691  -2.442  0.00  0.00     0.163 HD
HETATM    4  O           1     -22.671  -6.110  -4.805  0.00  0.00    -0.271 OA
ENDROOT
BRANCH   1   5
HETATM    5  C           1     -21.386  -7.823  -2.488  0.00  0.00     0.191 C 
BRANCH   5   6
HETATM    6  C           1     -19.967  -8.361  -2.366  0.00  0.00     0.094 C 
BRANCH   6   7
HETATM    7  C           1     -19.659  -9.229  -3.546  0.00  0.00     0.028 A 
HETATM    8  C           1     -20.564 -10.060  -4.162  0.00  0.00     0.114 A 
HETATM    9  N           1     -19.866 -10.654  -5.177  0.00  0.00    -0.360 N 
HETATM   10  H           1     -20.243 -11.355  -5.862  0.00  0.00     0.166 HD
HETATM   11  C           1     -18.590 -10.168  -5.136  0.00  0.00     0.180 A 
HETATM   12  N           1     -18.435  -9.304  -4.161  0.00  0.00    -0.354 N 
ATOM     13  HN          1     -17.586  -8.797  -3.913  1.00  0.00     0.166 HD
ENDBRANCH   6   7
ENDBRANCH   5   6
BRANCH   5  14
HETATM   14  C           1     -22.028  -7.780  -1.123  0.00  0.00     0.197 C 
HETATM   15  O           1     -22.739  -6.805  -0.796  0.00  0.00    -0.646 OA
HETATM   16  O           1     -21.846  -8.718  -0.317  0.00  0.00    -0.646 OA
ENDBRANCH   5  14
ENDBRANCH   1   5
BRANCH   2  17
HETATM   17  C           1     -20.384  -6.314  -5.338  0.00  0.00     0.275 C 
BRANCH  17  18
HETATM   18  C           1     -20.114  -4.904  -5.843  0.00  0.00     0.053 C 
BRANCH  18  19
HETATM   19  C           1     -19.872  -4.940  -7.347  0.00  0.00     0.115 C 
BRANCH  19  20
HETATM   20  C           1     -20.969  -4.181  -8.052  0.00  0.00     0.172 C 
HETATM   21  O           1     -21.767  -3.479  -7.394  0.00  0.00    -0.648 OA
HETATM   22  O           1     -21.081  -4.255  -9.295  0.00  0.00    -0.648 OA
ENDBRANCH  19  20
ENDBRANCH  18  19
ENDBRANCH  17  18
BRANCH  17  23
HETATM   23  N           1     -20.701  -7.209  -6.499  0.00  0.00    -0.066 N 
HETATM   24  H           1     -21.228  -6.667  -7.222  0.00  0.00     0.275 HD
HETATM   25  H           1     -19.813  -7.571  -6.914  0.00  0.00     0.275 HD
HETATM   26  H           1     -21.284  -8.011  -6.171  0.00  0.00     0.275 HD
ENDBRANCH  17  23
ENDBRANCH   2  17
TORSDOF 9
ENDMDL
MODEL 9
REMARK VINA RESULT:      -5.8     24.934     26.163
REMARK  9 active torsions:
REMARK  status: ('A' for Active; 'I' for Inactive)
REMARK    1  A    between atoms: C_2  and  C_8 
REMARK    2  A    between atoms: C_2  and  C_25 
REMARK    3  A    between atoms: C_8  and  C_19 
REMARK    4  A    between atoms: C_8  and  N_22 
REMARK    5  A    between atoms: C_10  and  C_11 
REMARK    6  A    between atoms: C_11  and  C_12 
REMARK    7  A    between atoms: C_12  and  C_14 
REMARK    8  A    between atoms: C_12  and  N_18 
REMARK       I    between atoms: N_18  and  C_19 
REMARK    9  A    between atoms: C_25  and  C_26 
ROOT
HETATM    1  N           1     -10.182   6.970 -20.775  0.00  0.00    -0.344 N 
HETATM    2  C           1     -10.347   8.169 -20.133  0.00  0.00     0.249 C 
HETATM    3  H           1      -9.253   6.653 -21.023  0.00  0.00     0.163 HD
HETATM    4  O           1     -10.338   8.213 -18.925  0.00  0.00    -0.271 OA
ENDROOT
BRANCH   1   5
HETATM    5  C           1     -11.337   6.156 -21.099  0.00  0.00     0.191 C 
BRANCH   5   6
HETATM    6  C           1     -10.873   4.806 -21.628  0.00  0.00     0.094 C 
BRANCH   6   7
HETATM    7  C           1     -12.054   3.903 -21.800  0.00  0.00     0.028 A 
HETATM    8  C           1     -12.947   3.974 -22.843  0.00  0.00     0.114 A 
HETATM    9  N           1     -13.852   2.978 -22.604  0.00  0.00    -0.360 N 
HETATM   10  H           1     -14.681   2.736 -23.201  0.00  0.00     0.166 HD
HETATM   11  C           1     -13.479   2.354 -21.448  0.00  0.00     0.180 A 
HETATM   12  N           1     -12.395   2.891 -20.939  0.00  0.00    -0.354 N 
ATOM     13  HN          1     -11.910   2.615 -20.086  1.00  0.00     0.166 HD
ENDBRANCH   6   7
ENDBRANCH   5   6
BRANCH   5  14
HETATM   14  C           1     -12.170   5.951 -19.858  0.00  0.00     0.197 C 
HETATM   15  O           1     -11.740   5.234 -18.928  0.00  0.00    -0.646 OA
HETATM   16  O           1     -13.290   6.497 -19.759  0.00  0.00    -0.646 OA
ENDBRANCH   5  14
ENDBRANCH   1   5
BRANCH   2  17
HETATM   17  C           1     -10.540   9.433 -20.933  0.00  0.00     0.275 C 
BRANCH  17  18
HETATM   18  C           1     -12.013   9.594 -21.283  0.00  0.00     0.053 C 
BRANCH  18  19
HETATM   19  C           1     -12.551  10.869 -20.646  0.00  0.00     0.115 C 
BRANCH  19  20
HETATM   20  C           1     -13.605  10.516 -19.625  0.00  0.00     0.172 C 
HETATM   21  O           1     -13.361   9.666 -18.742  0.00  0.00    -0.648 OA
HETATM   22  O           1     -14.723  11.074 -19.663  0.00  0.00    -0.648 OA
ENDBRANCH  19  20
ENDBRANCH  18  19
ENDBRANCH  17  18
BRANCH  17  23
HETATM   23  N           1      -9.732   9.355 -22.194  0.00  0.00    -0.066 N 
HETATM   24  H           1     -10.357   9.105 -22.993  0.00  0.00     0.275 HD
HETATM   25  H           1      -9.285  10.282 -22.379  0.00  0.00     0.275 HD
HETATM   26  H           1      -8.991   8.626 -22.088  0.00  0.00     0.275 HD
ENDBRANCH  17  23
ENDBRANCH   2  17
TORSDOF 9
ENDMDL
