MODEL 1
REMARK VINA RESULT:      -6.3      0.000      0.000
REMARK  10 active torsions:
REMARK  status: ('A' for Active; 'I' for Inactive)
REMARK    1  A    between atoms: C_1  and  C_8 
REMARK    2  A    between atoms: C_1  and  C_13 
REMARK    3  A    between atoms: N_3  and  C_8 
REMARK    4  A    between atoms: C_6  and  C_12 
REMARK    5  A    between atoms: N_7  and  C_12 
REMARK       I    between atoms: N_7  and  C_9 
REMARK    6  A    between atoms: C_8  and  C_9 
REMARK    7  A    between atoms: C_10  and  N_20 
REMARK    8  A    between atoms: C_10  and  C_14 
REMARK    9  A    between atoms: C_11  and  C_14 
REMARK   10  A    between atoms: C_11  and  C_12 
ROOT
HETATM    1  N           1     -26.821  -6.182 -17.812  0.00  0.00    -0.345 N 
HETATM    2  C           1     -25.513  -6.522 -18.026  0.00  0.00     0.249 C 
HETATM    3  O           1     -24.756  -6.633 -17.090  0.00  0.00    -0.271 OA
HETATM    4  H           1     -27.455  -6.089 -18.595  0.00  0.00     0.163 HD
ENDROOT
BRANCH   1   5
HETATM    5  C           1     -27.299  -5.956 -16.462  0.00  0.00     0.185 C 
BRANCH   5   6
HETATM    6  C           1     -28.059  -7.171 -15.987  0.00  0.00     0.196 C 
HETATM    7  O           1     -29.027  -7.601 -16.650  0.00  0.00    -0.646 OA
HETATM    8  O           1     -27.718  -7.747 -14.931  0.00  0.00    -0.646 OA
ENDBRANCH   5   6
BRANCH   5   9
HETATM    9  C           1     -28.220  -4.743 -16.447  0.00  0.00     0.038 C 
BRANCH   9  10
HETATM   10  C           1     -28.770  -4.504 -17.847  0.00  0.00     0.030 C 
BRANCH  10  11
HETATM   11  C           1     -30.281  -4.327 -17.775  0.00  0.00     0.230 C 
BRANCH  11  12
HETATM   12  N           1     -30.609  -2.871 -17.625  0.00  0.00    -0.079 N 
HETATM   13  H           1     -30.046  -2.467 -16.843  0.00  0.00     0.274 HD
HETATM   14  H           1     -31.627  -2.765 -17.414  0.00  0.00     0.274 HD
HETATM   15  H           1     -30.384  -2.370 -18.513  0.00  0.00     0.274 HD
ENDBRANCH  11  12
ENDBRANCH  10  11
ENDBRANCH   9  10
ENDBRANCH   5   9
ENDBRANCH   1   5
BRANCH   2  16
HETATM   16  C           1     -25.014  -6.758 -19.430  0.00  0.00     0.284 C 
BRANCH  16  17
HETATM   17  C           1     -26.198  -6.835 -20.384  0.00  0.00     0.155 C 
BRANCH  17  18
HETATM   18  C           1     -25.984  -7.963 -21.364  0.00  0.00     0.175 C 
HETATM   19  O           1     -24.968  -7.973 -22.092  0.00  0.00    -0.648 OA
HETATM   20  O           1     -26.821  -8.887 -21.448  0.00  0.00    -0.648 OA
ENDBRANCH  17  18
ENDBRANCH  16  17
BRANCH  16  21
HETATM   21  N           1     -24.250  -8.048 -19.479  0.00  0.00    -0.066 N 
HETATM   22  H           1     -24.870  -8.833 -19.178  0.00  0.00     0.275 HD
HETATM   23  H           1     -23.919  -8.220 -20.456  0.00  0.00     0.275 HD
HETATM   24  H           1     -23.427  -7.989 -18.836  0.00  0.00     0.275 HD
ENDBRANCH  16  21
ENDBRANCH   2  16
TORSDOF 10
ENDMDL
MODEL 2
REMARK VINA RESULT:      -6.3      1.599      2.106
REMARK  10 active torsions:
REMARK  status: ('A' for Active; 'I' for Inactive)
REMARK    1  A    between atoms: C_1  and  C_8 
REMARK    2  A    between atoms: C_1  and  C_13 
REMARK    3  A    between atoms: N_3  and  C_8 
REMARK    4  A    between atoms: C_6  and  C_12 
REMARK    5  A    between atoms: N_7  and  C_12 
REMARK       I    between atoms: N_7  and  C_9 
REMARK    6  A    between atoms: C_8  and  C_9 
REMARK    7  A    between atoms: C_10  and  N_20 
REMARK    8  A    between atoms: C_10  and  C_14 
REMARK    9  A    between atoms: C_11  and  C_14 
REMARK   10  A    between atoms: C_11  and  C_12 
ROOT
HETATM    1  N           1     -27.624  -6.749 -19.057  0.00  0.00    -0.345 N 
HETATM    2  C           1     -26.392  -6.413 -18.563  0.00  0.00     0.249 C 
HETATM    3  O           1     -26.281  -6.038 -17.420  0.00  0.00    -0.271 OA
HETATM    4  H           1     -27.716  -7.063 -20.014  0.00  0.00     0.163 HD
ENDROOT
BRANCH   1   5
HETATM    5  C           1     -28.796  -6.654 -18.208  0.00  0.00     0.185 C 
BRANCH   5   6
HETATM    6  C           1     -29.765  -7.754 -18.565  0.00  0.00     0.196 C 
HETATM    7  O           1     -30.875  -7.819 -17.994  0.00  0.00    -0.646 OA
HETATM    8  O           1     -29.458  -8.600 -19.433  0.00  0.00    -0.646 OA
ENDBRANCH   5   6
BRANCH   5   9
HETATM    9  C           1     -29.463  -5.301 -18.415  0.00  0.00     0.038 C 
BRANCH   9  10
HETATM   10  C           1     -29.540  -4.563 -17.084  0.00  0.00     0.030 C 
BRANCH  10  11
HETATM   11  C           1     -28.601  -3.363 -17.114  0.00  0.00     0.230 C 
BRANCH  11  12
HETATM   12  N           1     -29.385  -2.120 -17.411  0.00  0.00    -0.079 N 
HETATM   13  H           1     -29.867  -2.224 -18.332  0.00  0.00     0.274 HD
HETATM   14  H           1     -28.737  -1.301 -17.447  0.00  0.00     0.274 HD
HETATM   15  H           1     -30.096  -1.969 -16.661  0.00  0.00     0.274 HD
ENDBRANCH  11  12
ENDBRANCH  10  11
ENDBRANCH   9  10
ENDBRANCH   5   9
ENDBRANCH   1   5
BRANCH   2  16
HETATM   16  C           1     -25.172  -6.512 -19.445  0.00  0.00     0.284 C 
BRANCH  16  17
HETATM   17  C           1     -25.599  -6.498 -20.907  0.00  0.00     0.155 C 
BRANCH  17  18
HETATM   18  C           1     -25.514  -7.895 -21.470  0.00  0.00     0.175 C 
HETATM   19  O           1     -26.474  -8.683 -21.334  0.00  0.00    -0.648 OA
HETATM   20  O           1     -24.484  -8.264 -22.075  0.00  0.00    -0.648 OA
ENDBRANCH  17  18
ENDBRANCH  16  17
BRANCH  16  21
HETATM   21  N           1     -24.445  -7.791 -19.150  0.00  0.00    -0.066 N 
HETATM   22  H           1     -24.706  -8.513 -19.859  0.00  0.00     0.275 HD
HETATM   23  H           1     -23.414  -7.621 -19.189  0.00  0.00     0.275 HD
HETATM   24  H           1     -24.708  -8.129 -18.196  0.00  0.00     0.275 HD
ENDBRANCH  16  21
ENDBRANCH   2  16
TORSDOF 10
ENDMDL
MODEL 3
REMARK VINA RESULT:      -5.9      1.865      5.576
REMARK  10 active torsions:
REMARK  status: ('A' for Active; 'I' for Inactive)
REMARK    1  A    between atoms: C_1  and  C_8 
REMARK    2  A    between atoms: C_1  and  C_13 
REMARK    3  A    between atoms: N_3  and  C_8 
REMARK    4  A    between atoms: C_6  and  C_12 
REMARK    5  A    between atoms: N_7  and  C_12 
REMARK       I    between atoms: N_7  and  C_9 
REMARK    6  A    between atoms: C_8  and  C_9 
REMARK    7  A    between atoms: C_10  and  N_20 
REMARK    8  A    between atoms: C_10  and  C_14 
REMARK    9  A    between atoms: C_11  and  C_14 
REMARK   10  A    between atoms: C_11  and  C_12 
ROOT
HETATM    1  N           1     -27.357  -6.754 -18.770  0.00  0.00    -0.345 N 
HETATM    2  C           1     -28.182  -5.847 -18.162  0.00  0.00     0.249 C 
HETATM    3  O           1     -28.863  -5.106 -18.831  0.00  0.00    -0.271 OA
HETATM    4  H           1     -26.787  -7.375 -18.209  0.00  0.00     0.163 HD
ENDROOT
BRANCH   1   5
HETATM    5  C           1     -27.300  -6.826 -20.217  0.00  0.00     0.185 C 
BRANCH   5   6
HETATM    6  C           1     -27.758  -8.191 -20.671  0.00  0.00     0.196 C 
HETATM    7  O           1     -27.130  -8.795 -21.567  0.00  0.00    -0.646 OA
HETATM    8  O           1     -28.765  -8.717 -20.149  0.00  0.00    -0.646 OA
ENDBRANCH   5   6
BRANCH   5   9
HETATM    9  C           1     -25.869  -6.590 -20.680  0.00  0.00     0.038 C 
BRANCH   9  10
HETATM   10  C           1     -24.903  -6.982 -19.570  0.00  0.00     0.030 C 
BRANCH  10  11
HETATM   11  C           1     -23.736  -7.761 -20.163  0.00  0.00     0.230 C 
BRANCH  11  12
HETATM   12  N           1     -24.194  -8.490 -21.391  0.00  0.00    -0.079 N 
HETATM   13  H           1     -25.238  -8.496 -21.424  0.00  0.00     0.274 HD
HETATM   14  H           1     -23.840  -9.473 -21.363  0.00  0.00     0.274 HD
HETATM   15  H           1     -23.821  -8.010 -22.241  0.00  0.00     0.274 HD
ENDBRANCH  11  12
ENDBRANCH  10  11
ENDBRANCH   9  10
ENDBRANCH   5   9
ENDBRANCH   1   5
BRANCH   2  16
HETATM   16  C           1     -28.242  -5.772 -16.656  0.00  0.00     0.284 C 
BRANCH  16  17
HETATM   17  C           1     -27.550  -6.988 -16.058  0.00  0.00     0.155 C 
BRANCH  17  18
HETATM   18  C           1     -26.084  -6.687 -15.859  0.00  0.00     0.175 C 
HETATM   19  O           1     -25.324  -7.562 -15.391  0.00  0.00    -0.648 OA
HETATM   20  O           1     -25.630  -5.563 -16.164  0.00  0.00    -0.648 OA
ENDBRANCH  17  18
ENDBRANCH  16  17
BRANCH  16  21
HETATM   21  N           1     -29.676  -5.746 -16.214  0.00  0.00    -0.066 N 
HETATM   22  H           1     -30.109  -6.683 -16.379  0.00  0.00     0.275 HD
HETATM   23  H           1     -29.721  -5.515 -15.196  0.00  0.00     0.275 HD
HETATM   24  H           1     -30.195  -5.022 -16.761  0.00  0.00     0.275 HD
ENDBRANCH  16  21
ENDBRANCH   2  16
TORSDOF 10
ENDMDL
MODEL 4
REMARK VINA RESULT:      -5.7      9.891     12.015
REMARK  10 active torsions:
REMARK  status: ('A' for Active; 'I' for Inactive)
REMARK    1  A    between atoms: C_1  and  C_8 
REMARK    2  A    between atoms: C_1  and  C_13 
REMARK    3  A    between atoms: N_3  and  C_8 
REMARK    4  A    between atoms: C_6  and  C_12 
REMARK    5  A    between atoms: N_7  and  C_12 
REMARK       I    between atoms: N_7  and  C_9 
REMARK    6  A    between atoms: C_8  and  C_9 
REMARK    7  A    between atoms: C_10  and  N_20 
REMARK    8  A    between atoms: C_10  and  C_14 
REMARK    9  A    between atoms: C_11  and  C_14 
REMARK   10  A    between atoms: C_11  and  C_12 
ROOT
HETATM    1  N           1     -23.106  -4.205  -8.529  0.00  0.00    -0.345 N 
HETATM    2  C           1     -21.873  -4.219  -7.936  0.00  0.00     0.249 C 
HETATM    3  O           1     -20.903  -3.840  -8.549  0.00  0.00    -0.271 OA
HETATM    4  H           1     -23.918  -4.523  -8.016  0.00  0.00     0.163 HD
ENDROOT
BRANCH   1   5
HETATM    5  C           1     -23.248  -3.736  -9.894  0.00  0.00     0.185 C 
BRANCH   5   6
HETATM    6  C           1     -24.654  -3.229 -10.106  0.00  0.00     0.196 C 
HETATM    7  O           1     -25.185  -3.313 -11.235  0.00  0.00    -0.646 OA
HETATM    8  O           1     -25.287  -2.725  -9.153  0.00  0.00    -0.646 OA
ENDBRANCH   5   6
BRANCH   5   9
HETATM    9  C           1     -22.971  -4.883 -10.856  0.00  0.00     0.038 C 
BRANCH   9  10
HETATM   10  C           1     -21.933  -4.446 -11.882  0.00  0.00     0.030 C 
BRANCH  10  11
HETATM   11  C           1     -21.558  -2.990 -11.636  0.00  0.00     0.230 C 
BRANCH  11  12
HETATM   12  N           1     -20.084  -2.889 -11.377  0.00  0.00    -0.079 N 
HETATM   13  H           1     -19.907  -2.942 -10.349  0.00  0.00     0.274 HD
HETATM   14  H           1     -19.728  -1.979 -11.747  0.00  0.00     0.274 HD
HETATM   15  H           1     -19.591  -3.676 -11.857  0.00  0.00     0.274 HD
ENDBRANCH  11  12
ENDBRANCH  10  11
ENDBRANCH   9  10
ENDBRANCH   5   9
ENDBRANCH   1   5
BRANCH   2  16
HETATM   16  C           1     -21.724  -4.707  -6.516  0.00  0.00     0.284 C 
BRANCH  16  17
HETATM   17  C           1     -20.544  -5.665  -6.428  0.00  0.00     0.155 C 
BRANCH  17  18
HETATM   18  C           1     -20.923  -6.855  -5.580  0.00  0.00     0.175 C 
HETATM   19  O           1     -21.269  -7.925  -6.125  0.00  0.00    -0.648 OA
HETATM   20  O           1     -20.890  -6.771  -4.333  0.00  0.00    -0.648 OA
ENDBRANCH  17  18
ENDBRANCH  16  17
BRANCH  16  21
HETATM   21  N           1     -22.976  -5.418  -6.098  0.00  0.00    -0.066 N 
HETATM   22  H           1     -23.063  -6.314  -6.628  0.00  0.00     0.275 HD
HETATM   23  H           1     -22.935  -5.622  -5.073  0.00  0.00     0.275 HD
HETATM   24  H           1     -23.804  -4.812  -6.300  0.00  0.00     0.275 HD
ENDBRANCH  16  21
ENDBRANCH   2  16
TORSDOF 10
ENDMDL
MODEL 5
REMARK VINA RESULT:      -5.6     11.688     13.415
REMARK  10 active torsions:
REMARK  status: ('A' for Active; 'I' for Inactive)
REMARK    1  A    between atoms: C_1  and  C_8 
REMARK    2  A    between atoms: C_1  and  C_13 
REMARK    3  A    between atoms: N_3  and  C_8 
REMARK    4  A    between atoms: C_6  and  C_12 
REMARK    5  A    between atoms: N_7  and  C_12 
REMARK       I    between atoms: N_7  and  C_9 
REMARK    6  A    between atoms: C_8  and  C_9 
REMARK    7  A    between atoms: C_10  and  N_20 
REMARK    8  A    between atoms: C_10  and  C_14 
REMARK    9  A    between atoms: C_11  and  C_14 
REMARK   10  A    between atoms: C_11  and  C_12 
ROOT
HETATM    1  N           1     -21.947  -5.312  -6.594  0.00  0.00    -0.345 N 
HETATM    2  C           1     -21.351  -4.324  -7.330  0.00  0.00     0.249 C 
HETATM    3  O           1     -20.213  -3.996  -7.093  0.00  0.00    -0.271 OA
HETATM    4  H           1     -22.901  -5.586  -6.794  0.00  0.00     0.163 HD
ENDROOT
BRANCH   1   5
HETATM    5  C           1     -21.213  -5.964  -5.528  0.00  0.00     0.185 C 
BRANCH   5   6
HETATM    6  C           1     -20.610  -7.248  -6.045  0.00  0.00     0.196 C 
HETATM    7  O           1     -19.449  -7.251  -6.509  0.00  0.00    -0.646 OA
HETATM    8  O           1     -21.272  -8.308  -6.009  0.00  0.00    -0.646 OA
ENDBRANCH   5   6
BRANCH   5   9
HETATM    9  C           1     -22.159  -6.274  -4.376  0.00  0.00     0.038 C 
BRANCH   9  10
HETATM   10  C           1     -21.363  -6.403  -3.084  0.00  0.00     0.030 C 
BRANCH  10  11
HETATM   11  C           1     -22.296  -6.224  -1.893  0.00  0.00     0.230 C 
BRANCH  11  12
HETATM   12  N           1     -22.024  -7.294  -0.878  0.00  0.00    -0.079 N 
HETATM   13  H           1     -21.441  -8.045  -1.311  0.00  0.00     0.274 HD
HETATM   14  H           1     -22.930  -7.701  -0.551  0.00  0.00     0.274 HD
HETATM   15  H           1     -21.514  -6.882  -0.065  0.00  0.00     0.274 HD
ENDBRANCH  11  12
ENDBRANCH  10  11
ENDBRANCH   9  10
ENDBRANCH   5   9
ENDBRANCH   1   5
BRANCH   2  16
HETATM   16  C           1     -22.115  -3.645  -8.440  0.00  0.00     0.284 C 
BRANCH  16  17
HETATM   17  C           1     -23.533  -4.197  -8.495  0.00  0.00     0.155 C 
BRANCH  17  18
HETATM   18  C           1     -24.035  -4.157  -9.917  0.00  0.00     0.175 C 
HETATM   19  O           1     -24.485  -3.092 -10.392  0.00  0.00    -0.648 OA
HETATM   20  O           1     -24.000  -5.189 -10.622  0.00  0.00    -0.648 OA
ENDBRANCH  17  18
ENDBRANCH  16  17
BRANCH  16  21
HETATM   21  N           1     -21.429  -3.902  -9.749  0.00  0.00    -0.066 N 
HETATM   22  H           1     -20.792  -4.725  -9.654  0.00  0.00     0.275 HD
HETATM   23  H           1     -22.145  -4.099 -10.485  0.00  0.00     0.275 HD
HETATM   24  H           1     -20.871  -3.061 -10.021  0.00  0.00     0.275 HD
ENDBRANCH  16  21
ENDBRANCH   2  16
TORSDOF 10
ENDMDL
MODEL 6
REMARK VINA RESULT:      -5.4     11.925     13.632
REMARK  10 active torsions:
REMARK  status: ('A' for Active; 'I' for Inactive)
REMARK    1  A    between atoms: C_1  and  C_8 
REMARK    2  A    between atoms: C_1  and  C_13 
REMARK    3  A    between atoms: N_3  and  C_8 
REMARK    4  A    between atoms: C_6  and  C_12 
REMARK    5  A    between atoms: N_7  and  C_12 
REMARK       I    between atoms: N_7  and  C_9 
REMARK    6  A    between atoms: C_8  and  C_9 
REMARK    7  A    between atoms: C_10  and  N_20 
REMARK    8  A    between atoms: C_10  and  C_14 
REMARK    9  A    between atoms: C_11  and  C_14 
REMARK   10  A    between atoms: C_11  and  C_12 
ROOT
HETATM    1  N           1     -21.752  -5.951  -6.587  0.00  0.00    -0.345 N 
HETATM    2  C           1     -21.492  -4.823  -7.317  0.00  0.00     0.249 C 
HETATM    3  O           1     -20.657  -4.037  -6.938  0.00  0.00    -0.271 OA
HETATM    4  H           1     -22.451  -6.610  -6.905  0.00  0.00     0.163 HD
ENDROOT
BRANCH   1   5
HETATM    5  C           1     -21.025  -6.202  -5.358  0.00  0.00     0.185 C 
BRANCH   5   6
HETATM    6  C           1     -20.017  -7.302  -5.586  0.00  0.00     0.196 C 
HETATM    7  O           1     -19.312  -7.300  -6.618  0.00  0.00    -0.646 OA
HETATM    8  O           1     -19.888  -8.215  -4.742  0.00  0.00    -0.646 OA
ENDBRANCH   5   6
BRANCH   5   9
HETATM    9  C           1     -22.001  -6.624  -4.268  0.00  0.00     0.038 C 
BRANCH   9  10
HETATM   10  C           1     -21.544  -6.060  -2.929  0.00  0.00     0.030 C 
BRANCH  10  11
HETATM   11  C           1     -21.705  -7.124  -1.850  0.00  0.00     0.230 C 
BRANCH  11  12
HETATM   12  N           1     -20.425  -7.894  -1.710  0.00  0.00    -0.079 N 
HETATM   13  H           1     -20.621  -8.915  -1.805  0.00  0.00     0.274 HD
HETATM   14  H           1     -20.006  -7.704  -0.772  0.00  0.00     0.274 HD
HETATM   15  H           1     -19.756  -7.596  -2.456  0.00  0.00     0.274 HD
ENDBRANCH  11  12
ENDBRANCH  10  11
ENDBRANCH   9  10
ENDBRANCH   5   9
ENDBRANCH   1   5
BRANCH   2  16
HETATM   16  C           1     -22.247  -4.562  -8.597  0.00  0.00     0.284 C 
BRANCH  16  17
HETATM   17  C           1     -21.278  -4.096  -9.675  0.00  0.00     0.155 C 
BRANCH  17  18
HETATM   18  C           1     -22.054  -3.618 -10.878  0.00  0.00     0.175 C 
HETATM   19  O           1     -23.119  -4.187 -11.201  0.00  0.00    -0.648 OA
HETATM   20  O           1     -21.633  -2.652 -11.551  0.00  0.00    -0.648 OA
ENDBRANCH  17  18
ENDBRANCH  16  17
BRANCH  16  21
HETATM   21  N           1     -23.279  -3.498  -8.360  0.00  0.00    -0.066 N 
HETATM   22  H           1     -22.989  -2.617  -8.840  0.00  0.00     0.275 HD
HETATM   23  H           1     -24.199  -3.816  -8.740  0.00  0.00     0.275 HD
HETATM   24  H           1     -23.367  -3.322  -7.333  0.00  0.00     0.275 HD
ENDBRANCH  16  21
ENDBRANCH   2  16
TORSDOF 10
ENDMDL
MODEL 7
REMARK VINA RESULT:      -5.3      2.025      5.666
REMARK  10 active torsions:
REMARK  status: ('A' for Active; 'I' for Inactive)
REMARK    1  A    between atoms: C_1  and  C_8 
REMARK    2  A    between atoms: C_1  and  C_13 
REMARK    3  A    between atoms: N_3  and  C_8 
REMARK    4  A    between atoms: C_6  and  C_12 
REMARK    5  A    between atoms: N_7  and  C_12 
REMARK       I    between atoms: N_7  and  C_9 
REMARK    6  A    between atoms: C_8  and  C_9 
REMARK    7  A    between atoms: C_10  and  N_20 
REMARK    8  A    between atoms: C_10  and  C_14 
REMARK    9  A    between atoms: C_11  and  C_14 
REMARK   10  A    between atoms: C_11  and  C_12 
ROOT
HETATM    1  N           1     -27.359  -6.807 -18.932  0.00  0.00    -0.345 N 
HETATM    2  C           1     -28.188  -5.834 -18.444  0.00  0.00     0.249 C 
HETATM    3  O           1     -28.679  -5.025 -19.194  0.00  0.00    -0.271 OA
HETATM    4  H           1     -26.948  -7.485 -18.304  0.00  0.00     0.163 HD
ENDROOT
BRANCH   1   5
HETATM    5  C           1     -27.071  -6.867 -20.352  0.00  0.00     0.185 C 
BRANCH   5   6
HETATM    6  C           1     -27.421  -8.237 -20.879  0.00  0.00     0.196 C 
HETATM    7  O           1     -28.494  -8.782 -20.538  0.00  0.00    -0.646 OA
HETATM    8  O           1     -26.640  -8.826 -21.656  0.00  0.00    -0.646 OA
ENDBRANCH   5   6
BRANCH   5   9
HETATM    9  C           1     -25.589  -6.598 -20.580  0.00  0.00     0.038 C 
BRANCH   9  10
HETATM   10  C           1     -24.811  -6.925 -19.312  0.00  0.00     0.030 C 
BRANCH  10  11
HETATM   11  C           1     -23.502  -7.611 -19.683  0.00  0.00     0.230 C 
BRANCH  11  12
HETATM   12  N           1     -23.726  -8.517 -20.857  0.00  0.00    -0.079 N 
HETATM   13  H           1     -24.070  -7.956 -21.669  0.00  0.00     0.274 HD
HETATM   14  H           1     -24.437  -9.241 -20.606  0.00  0.00     0.274 HD
HETATM   15  H           1     -22.827  -8.985 -21.112  0.00  0.00     0.274 HD
ENDBRANCH  11  12
ENDBRANCH  10  11
ENDBRANCH   9  10
ENDBRANCH   5   9
ENDBRANCH   1   5
BRANCH   2  16
HETATM   16  C           1     -28.489  -5.771 -16.966  0.00  0.00     0.284 C 
BRANCH  16  17
HETATM   17  C           1     -29.983  -5.964 -16.743  0.00  0.00     0.155 C 
BRANCH  17  18
HETATM   18  C           1     -30.424  -7.261 -17.375  0.00  0.00     0.175 C 
HETATM   19  O           1     -31.516  -7.322 -17.980  0.00  0.00    -0.648 OA
HETATM   20  O           1     -29.697  -8.275 -17.297  0.00  0.00    -0.648 OA
ENDBRANCH  17  18
ENDBRANCH  16  17
BRANCH  16  21
HETATM   21  N           1     -28.072  -4.434 -16.428  0.00  0.00    -0.066 N 
HETATM   22  H           1     -27.910  -3.773 -17.220  0.00  0.00     0.275 HD
HETATM   23  H           1     -28.827  -4.058 -15.810  0.00  0.00     0.275 HD
HETATM   24  H           1     -27.190  -4.541 -15.877  0.00  0.00     0.275 HD
ENDBRANCH  16  21
ENDBRANCH   2  16
TORSDOF 10
ENDMDL
MODEL 8
REMARK VINA RESULT:      -5.3     11.853     13.989
REMARK  10 active torsions:
REMARK  status: ('A' for Active; 'I' for Inactive)
REMARK    1  A    between atoms: C_1  and  C_8 
REMARK    2  A    between atoms: C_1  and  C_13 
REMARK    3  A    between atoms: N_3  and  C_8 
REMARK    4  A    between atoms: C_6  and  C_12 
REMARK    5  A    between atoms: N_7  and  C_12 
REMARK       I    between atoms: N_7  and  C_9 
REMARK    6  A    between atoms: C_8  and  C_9 
REMARK    7  A    between atoms: C_10  and  N_20 
REMARK    8  A    between atoms: C_10  and  C_14 
REMARK    9  A    between atoms: C_11  and  C_14 
REMARK   10  A    between atoms: C_11  and  C_12 
ROOT
HETATM    1  N           1     -21.228  -5.156  -6.538  0.00  0.00    -0.345 N 
HETATM    2  C           1     -21.114  -6.391  -5.959  0.00  0.00     0.249 C 
HETATM    3  O           1     -21.156  -7.386  -6.643  0.00  0.00    -0.271 OA
HETATM    4  H           1     -21.192  -4.323  -5.965  0.00  0.00     0.163 HD
ENDROOT
BRANCH   1   5
HETATM    5  C           1     -21.399  -5.042  -7.974  0.00  0.00     0.185 C 
BRANCH   5   6
HETATM    6  C           1     -20.079  -4.680  -8.610  0.00  0.00     0.196 C 
HETATM    7  O           1     -19.934  -4.777  -9.848  0.00  0.00    -0.646 OA
HETATM    8  O           1     -19.131  -4.283  -7.899  0.00  0.00    -0.646 OA
ENDBRANCH   5   6
BRANCH   5   9
HETATM    9  C           1     -22.425  -3.959  -8.278  0.00  0.00     0.038 C 
BRANCH   9  10
HETATM   10  C           1     -23.444  -4.489  -9.278  0.00  0.00     0.030 C 
BRANCH  10  11
HETATM   11  C           1     -24.248  -3.327  -9.848  0.00  0.00     0.230 C 
BRANCH  11  12
HETATM   12  N           1     -25.713  -3.613  -9.704  0.00  0.00    -0.079 N 
HETATM   13  H           1     -25.998  -4.331 -10.407  0.00  0.00     0.274 HD
HETATM   14  H           1     -26.256  -2.735  -9.862  0.00  0.00     0.274 HD
HETATM   15  H           1     -25.905  -3.972  -8.742  0.00  0.00     0.274 HD
ENDBRANCH  11  12
ENDBRANCH  10  11
ENDBRANCH   9  10
ENDBRANCH   5   9
ENDBRANCH   1   5
BRANCH   2  16
HETATM   16  C           1     -20.935  -6.510  -4.465  0.00  0.00     0.284 C 
BRANCH  16  17
HETATM   17  C           1     -20.490  -7.923  -4.117  0.00  0.00     0.155 C 
BRANCH  17  18
HETATM   18  C           1     -20.924  -8.256  -2.710  0.00  0.00     0.175 C 
HETATM   19  O           1     -20.367  -7.704  -1.737  0.00  0.00    -0.648 OA
HETATM   20  O           1     -21.841  -9.083  -2.518  0.00  0.00    -0.648 OA
ENDBRANCH  17  18
ENDBRANCH  16  17
BRANCH  16  21
HETATM   21  N           1     -22.238  -6.214  -3.782  0.00  0.00    -0.066 N 
HETATM   22  H           1     -22.962  -6.896  -4.101  0.00  0.00     0.275 HD
HETATM   23  H           1     -22.113  -6.297  -2.747  0.00  0.00     0.275 HD
HETATM   24  H           1     -22.543  -5.243  -4.020  0.00  0.00     0.275 HD
ENDBRANCH  16  21
ENDBRANCH   2  16
TORSDOF 10
ENDMDL
MODEL 9
REMARK VINA RESULT:      -5.1      2.547      6.166
REMARK  10 active torsions:
REMARK  status: ('A' for Active; 'I' for Inactive)
REMARK    1  A    between atoms: C_1  and  C_8 
REMARK    2  A    between atoms: C_1  and  C_13 
REMARK    3  A    between atoms: N_3  and  C_8 
REMARK    4  A    between atoms: C_6  and  C_12 
REMARK    5  A    between atoms: N_7  and  C_12 
REMARK       I    between atoms: N_7  and  C_9 
REMARK    6  A    between atoms: C_8  and  C_9 
REMARK    7  A    between atoms: C_10  and  N_20 
REMARK    8  A    between atoms: C_10  and  C_14 
REMARK    9  A    between atoms: C_11  and  C_14 
REMARK   10  A    between atoms: C_11  and  C_12 
ROOT
HETATM    1  N           1     -27.418  -6.826 -18.955  0.00  0.00    -0.345 N 
HETATM    2  C           1     -28.232  -5.745 -18.751  0.00  0.00     0.249 C 
HETATM    3  O           1     -28.573  -5.060 -19.686  0.00  0.00    -0.271 OA
HETATM    4  H           1     -27.132  -7.400 -18.172  0.00  0.00     0.163 HD
ENDROOT
BRANCH   1   5
HETATM    5  C           1     -26.964  -7.149 -20.294  0.00  0.00     0.185 C 
BRANCH   5   6
HETATM    6  C           1     -27.677  -8.387 -20.780  0.00  0.00     0.196 C 
HETATM    7  O           1     -27.201  -9.052 -21.727  0.00  0.00    -0.646 OA
HETATM    8  O           1     -28.743  -8.749 -20.236  0.00  0.00    -0.646 OA
ENDBRANCH   5   6
BRANCH   5   9
HETATM    9  C           1     -25.463  -7.401 -20.274  0.00  0.00     0.038 C 
BRANCH   9  10
HETATM   10  C           1     -24.830  -6.806 -21.525  0.00  0.00     0.030 C 
BRANCH  10  11
HETATM   11  C           1     -23.919  -7.841 -22.174  0.00  0.00     0.230 C 
BRANCH  11  12
HETATM   12  N           1     -23.382  -8.766 -21.123  0.00  0.00    -0.079 N 
HETATM   13  H           1     -22.420  -9.074 -21.389  0.00  0.00     0.274 HD
HETATM   14  H           1     -24.007  -9.600 -21.043  0.00  0.00     0.274 HD
HETATM   15  H           1     -23.347  -8.268 -20.206  0.00  0.00     0.274 HD
ENDBRANCH  11  12
ENDBRANCH  10  11
ENDBRANCH   9  10
ENDBRANCH   5   9
ENDBRANCH   1   5
BRANCH   2  16
HETATM   16  C           1     -28.704  -5.408 -17.358  0.00  0.00     0.284 C 
BRANCH  16  17
HETATM   17  C           1     -29.287  -4.002 -17.344  0.00  0.00     0.155 C 
BRANCH  17  18
HETATM   18  C           1     -30.792  -4.081 -17.264  0.00  0.00     0.175 C 
HETATM   19  O           1     -31.344  -5.146 -16.913  0.00  0.00    -0.648 OA
HETATM   20  O           1     -31.488  -3.082 -17.548  0.00  0.00    -0.648 OA
ENDBRANCH  17  18
ENDBRANCH  16  17
BRANCH  16  21
HETATM   21  N           1     -27.546  -5.477 -16.407  0.00  0.00    -0.066 N 
HETATM   22  H           1     -27.104  -4.534 -16.325  0.00  0.00     0.275 HD
HETATM   23  H           1     -27.885  -5.786 -15.468  0.00  0.00     0.275 HD
HETATM   24  H           1     -26.842  -6.161 -16.766  0.00  0.00     0.275 HD
ENDBRANCH  16  21
ENDBRANCH   2  16
TORSDOF 10
ENDMDL
