MODEL 1
REMARK VINA RESULT:      -6.2      0.000      0.000
REMARK  6 active torsions:
REMARK  status: ('A' for Active; 'I' for Inactive)
REMARK    1  A    between atoms: C_4  and  C_13 
REMARK    2  A    between atoms: C_6  and  C_15 
REMARK    3  A    between atoms: N_12  and  C_13 
REMARK       I    between atoms: N_12  and  C_16 
REMARK    4  A    between atoms: N_14  and  C_17 
REMARK    5  A    between atoms: C_15  and  C_17 
REMARK    6  A    between atoms: C_16  and  C_17 
ROOT
HETATM    1  C           1     -34.318  -1.939 -11.861  0.00  0.00     0.278 C 
ENDROOT
BRANCH   1   2
HETATM    2  N           1     -34.718  -1.621 -10.450  0.00  0.00    -0.066 N 
HETATM    3  H           1     -34.592  -0.598 -10.275  0.00  0.00     0.275 HD
HETATM    4  H           1     -35.721  -1.878 -10.307  0.00  0.00     0.275 HD
HETATM    5  H           1     -34.121  -2.164  -9.787  0.00  0.00     0.275 HD
ENDBRANCH   1   2
BRANCH   1   6
HETATM    6  C           1     -34.263  -3.450 -12.043  0.00  0.00     0.021 C 
HETATM    7  C           1     -32.819  -3.922 -11.941  0.00  0.00     0.012 C 
BRANCH   6   8
HETATM    8  C           1     -35.093  -4.122 -10.957  0.00  0.00     0.002 C 
HETATM    9  C           1     -34.371  -5.369 -10.464  0.00  0.00     0.005 C 
ENDBRANCH   6   8
ENDBRANCH   1   6
BRANCH   1  10
HETATM   10  C           1     -35.330  -1.352 -12.815  0.00  0.00     0.249 C 
HETATM   11  O           1     -36.508  -1.402 -12.550  0.00  0.00    -0.271 OA
HETATM   12  N           1     -34.913  -0.765 -13.978  0.00  0.00    -0.349 N 
HETATM   13  H           1     -33.926  -0.723 -14.198  0.00  0.00     0.163 HD
BRANCH  12  14
HETATM   14  C           1     -35.884  -0.201 -14.895  0.00  0.00     0.235 C 
BRANCH  14  15
HETATM   15  C           1     -35.792  -0.907 -16.224  0.00  0.00     0.191 C 
HETATM   16  O           1     -34.780  -1.585 -16.503  0.00  0.00    -0.647 OA
HETATM   17  O           1     -36.728  -0.814 -17.048  0.00  0.00    -0.647 OA
ENDBRANCH  14  15
ENDBRANCH  12  14
ENDBRANCH   1  10
TORSDOF 6
ENDMDL
MODEL 2
REMARK VINA RESULT:      -5.9      8.802     10.413
REMARK  6 active torsions:
REMARK  status: ('A' for Active; 'I' for Inactive)
REMARK    1  A    between atoms: C_4  and  C_13 
REMARK    2  A    between atoms: C_6  and  C_15 
REMARK    3  A    between atoms: N_12  and  C_13 
REMARK       I    between atoms: N_12  and  C_16 
REMARK    4  A    between atoms: N_14  and  C_17 
REMARK    5  A    between atoms: C_15  and  C_17 
REMARK    6  A    between atoms: C_16  and  C_17 
ROOT
HETATM    1  C           1     -29.072  -6.142 -16.615  0.00  0.00     0.278 C 
ENDROOT
BRANCH   1   2
HETATM    2  N           1     -30.058  -5.658 -15.594  0.00  0.00    -0.066 N 
HETATM    3  H           1     -31.009  -6.023 -15.828  0.00  0.00     0.275 HD
HETATM    4  H           1     -29.775  -6.000 -14.648  0.00  0.00     0.275 HD
HETATM    5  H           1     -30.077  -4.613 -15.596  0.00  0.00     0.275 HD
ENDBRANCH   1   2
BRANCH   1   6
HETATM    6  C           1     -28.707  -4.997 -17.551  0.00  0.00     0.021 C 
HETATM    7  C           1     -28.593  -5.522 -18.976  0.00  0.00     0.012 C 
BRANCH   6   8
HETATM    8  C           1     -29.790  -3.928 -17.489  0.00  0.00     0.002 C 
HETATM    9  C           1     -29.149  -2.570 -17.233  0.00  0.00     0.005 C 
ENDBRANCH   6   8
ENDBRANCH   1   6
BRANCH   1  10
HETATM   10  C           1     -27.829  -6.639 -15.918  0.00  0.00     0.249 C 
HETATM   11  O           1     -27.917  -7.485 -15.059  0.00  0.00    -0.271 OA
HETATM   12  N           1     -26.604  -6.133 -16.258  0.00  0.00    -0.349 N 
HETATM   13  H           1     -26.531  -5.425 -16.977  0.00  0.00     0.163 HD
BRANCH  12  14
HETATM   14  C           1     -25.410  -6.610 -15.588  0.00  0.00     0.235 C 
BRANCH  14  15
HETATM   15  C           1     -24.539  -7.347 -16.574  0.00  0.00     0.191 C 
HETATM   16  O           1     -24.304  -6.848 -17.695  0.00  0.00    -0.647 OA
HETATM   17  O           1     -24.052  -8.458 -16.270  0.00  0.00    -0.647 OA
ENDBRANCH  14  15
ENDBRANCH  12  14
ENDBRANCH   1  10
TORSDOF 6
ENDMDL
MODEL 3
REMARK VINA RESULT:      -5.5     12.447     13.892
REMARK  6 active torsions:
REMARK  status: ('A' for Active; 'I' for Inactive)
REMARK    1  A    between atoms: C_4  and  C_13 
REMARK    2  A    between atoms: C_6  and  C_15 
REMARK    3  A    between atoms: N_12  and  C_13 
REMARK       I    between atoms: N_12  and  C_16 
REMARK    4  A    between atoms: N_14  and  C_17 
REMARK    5  A    between atoms: C_15  and  C_17 
REMARK    6  A    between atoms: C_16  and  C_17 
ROOT
HETATM    1  C           1     -22.403  -4.562  -6.657  0.00  0.00     0.278 C 
ENDROOT
BRANCH   1   2
HETATM    2  N           1     -23.812  -5.004  -6.395  0.00  0.00    -0.066 N 
HETATM    3  H           1     -24.456  -4.534  -7.071  0.00  0.00     0.275 HD
HETATM    4  H           1     -23.879  -6.041  -6.512  0.00  0.00     0.275 HD
HETATM    5  H           1     -24.084  -4.746  -5.420  0.00  0.00     0.275 HD
ENDBRANCH   1   2
BRANCH   1   6
HETATM    6  C           1     -21.435  -5.600  -6.103  0.00  0.00     0.021 C 
HETATM    7  C           1     -20.251  -4.896  -5.456  0.00  0.00     0.012 C 
BRANCH   6   8
HETATM    8  C           1     -22.148  -6.453  -5.063  0.00  0.00     0.002 C 
HETATM    9  C           1     -21.419  -6.342  -3.729  0.00  0.00     0.005 C 
ENDBRANCH   6   8
ENDBRANCH   1   6
BRANCH   1  10
HETATM   10  C           1     -22.190  -4.416  -8.144  0.00  0.00     0.249 C 
HETATM   11  O           1     -21.380  -5.113  -8.709  0.00  0.00    -0.271 OA
HETATM   12  N           1     -22.914  -3.495  -8.852  0.00  0.00    -0.349 N 
HETATM   13  H           1     -23.592  -2.913  -8.378  0.00  0.00     0.163 HD
BRANCH  12  14
HETATM   14  C           1     -22.710  -3.354 -10.280  0.00  0.00     0.235 C 
BRANCH  14  15
HETATM   15  C           1     -23.938  -3.831 -11.014  0.00  0.00     0.191 C 
HETATM   16  O           1     -25.043  -3.289 -10.801  0.00  0.00    -0.647 OA
HETATM   17  O           1     -23.850  -4.769 -11.837  0.00  0.00    -0.647 OA
ENDBRANCH  14  15
ENDBRANCH  12  14
ENDBRANCH   1  10
TORSDOF 6
ENDMDL
MODEL 4
REMARK VINA RESULT:      -5.5      2.900      4.812
REMARK  6 active torsions:
REMARK  status: ('A' for Active; 'I' for Inactive)
REMARK    1  A    between atoms: C_4  and  C_13 
REMARK    2  A    between atoms: C_6  and  C_15 
REMARK    3  A    between atoms: N_12  and  C_13 
REMARK       I    between atoms: N_12  and  C_16 
REMARK    4  A    between atoms: N_14  and  C_17 
REMARK    5  A    between atoms: C_15  and  C_17 
REMARK    6  A    between atoms: C_16  and  C_17 
ROOT
HETATM    1  C           1     -34.449  -2.042 -11.656  0.00  0.00     0.278 C 
ENDROOT
BRANCH   1   2
HETATM    2  N           1     -33.421  -1.772 -10.597  0.00  0.00    -0.066 N 
HETATM    3  H           1     -32.973  -0.845 -10.775  0.00  0.00     0.275 HD
HETATM    4  H           1     -33.883  -1.762  -9.659  0.00  0.00     0.275 HD
HETATM    5  H           1     -32.693  -2.521 -10.619  0.00  0.00     0.275 HD
ENDBRANCH   1   2
BRANCH   1   6
HETATM    6  C           1     -34.669  -3.544 -11.778  0.00  0.00     0.021 C 
HETATM    7  C           1     -34.113  -4.032 -13.109  0.00  0.00     0.012 C 
BRANCH   6   8
HETATM    8  C           1     -33.951  -4.254 -10.638  0.00  0.00     0.002 C 
HETATM    9  C           1     -33.568  -5.662 -11.078  0.00  0.00     0.005 C 
ENDBRANCH   6   8
ENDBRANCH   1   6
BRANCH   1  10
HETATM   10  C           1     -35.747  -1.370 -11.280  0.00  0.00     0.249 C 
HETATM   11  O           1     -36.587  -1.164 -12.124  0.00  0.00    -0.271 OA
HETATM   12  N           1     -35.973  -0.996  -9.983  0.00  0.00    -0.349 N 
HETATM   13  H           1     -35.269  -1.169  -9.277  0.00  0.00     0.163 HD
BRANCH  12  14
HETATM   14  C           1     -37.220  -0.351  -9.621  0.00  0.00     0.235 C 
BRANCH  14  15
HETATM   15  C           1     -37.109   0.213  -8.226  0.00  0.00     0.191 C 
HETATM   16  O           1     -36.054   0.773  -7.860  0.00  0.00    -0.647 OA
HETATM   17  O           1     -38.074   0.120  -7.436  0.00  0.00    -0.647 OA
ENDBRANCH  14  15
ENDBRANCH  12  14
ENDBRANCH   1  10
TORSDOF 6
ENDMDL
MODEL 5
REMARK VINA RESULT:      -5.4      9.175     10.525
REMARK  6 active torsions:
REMARK  status: ('A' for Active; 'I' for Inactive)
REMARK    1  A    between atoms: C_4  and  C_13 
REMARK    2  A    between atoms: C_6  and  C_15 
REMARK    3  A    between atoms: N_12  and  C_13 
REMARK       I    between atoms: N_12  and  C_16 
REMARK    4  A    between atoms: N_14  and  C_17 
REMARK    5  A    between atoms: C_15  and  C_17 
REMARK    6  A    between atoms: C_16  and  C_17 
ROOT
HETATM    1  C           1     -28.323  -6.109 -16.672  0.00  0.00     0.278 C 
ENDROOT
BRANCH   1   2
HETATM    2  N           1     -28.399  -5.158 -15.515  0.00  0.00    -0.066 N 
HETATM    3  H           1     -27.438  -4.984 -15.143  0.00  0.00     0.275 HD
HETATM    4  H           1     -28.818  -4.255 -15.834  0.00  0.00     0.275 HD
HETATM    5  H           1     -28.993  -5.571 -14.762  0.00  0.00     0.275 HD
ENDBRANCH   1   2
BRANCH   1   6
HETATM    6  C           1     -29.318  -5.684 -17.744  0.00  0.00     0.021 C 
HETATM    7  C           1     -30.713  -6.156 -17.358  0.00  0.00     0.012 C 
BRANCH   6   8
HETATM    8  C           1     -29.313  -4.166 -17.866  0.00  0.00     0.002 C 
HETATM    9  C           1     -30.723  -3.633 -17.645  0.00  0.00     0.005 C 
ENDBRANCH   6   8
ENDBRANCH   1   6
BRANCH   1  10
HETATM   10  C           1     -26.926  -6.092 -17.245  0.00  0.00     0.249 C 
HETATM   11  O           1     -26.024  -5.588 -16.620  0.00  0.00    -0.271 OA
HETATM   12  N           1     -26.683  -6.648 -18.472  0.00  0.00    -0.349 N 
HETATM   13  H           1     -27.440  -7.070 -18.995  0.00  0.00     0.163 HD
BRANCH  12  14
HETATM   14  C           1     -25.342  -6.633 -19.023  0.00  0.00     0.235 C 
BRANCH  14  15
HETATM   15  C           1     -25.402  -6.907 -20.505  0.00  0.00     0.191 C 
HETATM   16  O           1     -25.239  -5.974 -21.320  0.00  0.00    -0.647 OA
HETATM   17  O           1     -25.615  -8.068 -20.917  0.00  0.00    -0.647 OA
ENDBRANCH  14  15
ENDBRANCH  12  14
ENDBRANCH   1  10
TORSDOF 6
ENDMDL
MODEL 6
REMARK VINA RESULT:      -5.3     11.202     12.774
REMARK  6 active torsions:
REMARK  status: ('A' for Active; 'I' for Inactive)
REMARK    1  A    between atoms: C_4  and  C_13 
REMARK    2  A    between atoms: C_6  and  C_15 
REMARK    3  A    between atoms: N_12  and  C_13 
REMARK       I    between atoms: N_12  and  C_16 
REMARK    4  A    between atoms: N_14  and  C_17 
REMARK    5  A    between atoms: C_15  and  C_17 
REMARK    6  A    between atoms: C_16  and  C_17 
ROOT
HETATM    1  C           1     -23.896  -6.852 -18.700  0.00  0.00     0.278 C 
ENDROOT
BRANCH   1   2
HETATM    2  N           1     -22.484  -7.350 -18.602  0.00  0.00    -0.066 N 
HETATM    3  H           1     -22.372  -7.910 -17.726  0.00  0.00     0.275 HD
HETATM    4  H           1     -22.269  -7.951 -19.430  0.00  0.00     0.275 HD
HETATM    5  H           1     -21.828  -6.537 -18.582  0.00  0.00     0.275 HD
ENDBRANCH   1   2
BRANCH   1   6
HETATM    6  C           1     -24.601  -7.551 -19.854  0.00  0.00     0.021 C 
HETATM    7  C           1     -25.449  -6.542 -20.617  0.00  0.00     0.012 C 
BRANCH   6   8
HETATM    8  C           1     -23.563  -8.152 -20.792  0.00  0.00     0.002 C 
HETATM    9  C           1     -23.994  -7.930 -22.237  0.00  0.00     0.005 C 
ENDBRANCH   6   8
ENDBRANCH   1   6
BRANCH   1  10
HETATM   10  C           1     -24.623  -7.148 -17.411  0.00  0.00     0.249 C 
HETATM   11  O           1     -24.123  -7.882 -16.591  0.00  0.00    -0.271 OA
HETATM   12  N           1     -25.848  -6.586 -17.171  0.00  0.00    -0.349 N 
HETATM   13  H           1     -26.265  -5.972 -17.858  0.00  0.00     0.163 HD
BRANCH  12  14
HETATM   14  C           1     -26.547  -6.871 -15.933  0.00  0.00     0.235 C 
BRANCH  14  15
HETATM   15  C           1     -27.873  -6.152 -15.926  0.00  0.00     0.191 C 
HETATM   16  O           1     -27.936  -4.962 -15.548  0.00  0.00    -0.647 OA
HETATM   17  O           1     -28.908  -6.745 -16.298  0.00  0.00    -0.647 OA
ENDBRANCH  14  15
ENDBRANCH  12  14
ENDBRANCH   1  10
TORSDOF 6
ENDMDL
MODEL 7
REMARK VINA RESULT:      -5.3     14.170     15.952
REMARK  6 active torsions:
REMARK  status: ('A' for Active; 'I' for Inactive)
REMARK    1  A    between atoms: C_4  and  C_13 
REMARK    2  A    between atoms: C_6  and  C_15 
REMARK    3  A    between atoms: N_12  and  C_13 
REMARK       I    between atoms: N_12  and  C_16 
REMARK    4  A    between atoms: N_14  and  C_17 
REMARK    5  A    between atoms: C_15  and  C_17 
REMARK    6  A    between atoms: C_16  and  C_17 
ROOT
HETATM    1  C           1     -22.222  -4.786  -8.449  0.00  0.00     0.278 C 
ENDROOT
BRANCH   1   2
HETATM    2  N           1     -23.495  -4.075  -8.097  0.00  0.00    -0.066 N 
HETATM    3  H           1     -24.310  -4.696  -8.305  0.00  0.00     0.275 HD
HETATM    4  H           1     -23.490  -3.836  -7.080  0.00  0.00     0.275 HD
HETATM    5  H           1     -23.573  -3.199  -8.661  0.00  0.00     0.275 HD
ENDBRANCH   1   2
BRANCH   1   6
HETATM    6  C           1     -21.387  -3.906  -9.369  0.00  0.00     0.021 C 
HETATM    7  C           1     -20.156  -4.675  -9.829  0.00  0.00     0.012 C 
BRANCH   6   8
HETATM    8  C           1     -22.219  -3.510 -10.582  0.00  0.00     0.002 C 
HETATM    9  C           1     -21.563  -4.051 -11.846  0.00  0.00     0.005 C 
ENDBRANCH   6   8
ENDBRANCH   1   6
BRANCH   1  10
HETATM   10  C           1     -21.445  -5.079  -7.189  0.00  0.00     0.249 C 
HETATM   11  O           1     -21.052  -4.170  -6.498  0.00  0.00    -0.271 OA
HETATM   12  N           1     -21.186  -6.374  -6.830  0.00  0.00    -0.349 N 
HETATM   13  H           1     -21.515  -7.135  -7.410  0.00  0.00     0.163 HD
BRANCH  12  14
HETATM   14  C           1     -20.439  -6.656  -5.620  0.00  0.00     0.235 C 
BRANCH  14  15
HETATM   15  C           1     -21.395  -7.009  -4.508  0.00  0.00     0.191 C 
HETATM   16  O           1     -21.966  -6.102  -3.863  0.00  0.00    -0.647 OA
HETATM   17  O           1     -21.618  -8.207  -4.231  0.00  0.00    -0.647 OA
ENDBRANCH  14  15
ENDBRANCH  12  14
ENDBRANCH   1  10
TORSDOF 6
ENDMDL
MODEL 8
REMARK VINA RESULT:      -5.1     12.971     14.411
REMARK  6 active torsions:
REMARK  status: ('A' for Active; 'I' for Inactive)
REMARK    1  A    between atoms: C_4  and  C_13 
REMARK    2  A    between atoms: C_6  and  C_15 
REMARK    3  A    between atoms: N_12  and  C_13 
REMARK       I    between atoms: N_12  and  C_16 
REMARK    4  A    between atoms: N_14  and  C_17 
REMARK    5  A    between atoms: C_15  and  C_17 
REMARK    6  A    between atoms: C_16  and  C_17 
ROOT
HETATM    1  C           1     -21.237  -5.945  -7.152  0.00  0.00     0.278 C 
ENDROOT
BRANCH   1   2
HETATM    2  N           1     -19.804  -6.115  -7.562  0.00  0.00    -0.066 N 
HETATM    3  H           1     -19.257  -6.505  -6.762  0.00  0.00     0.275 HD
HETATM    4  H           1     -19.750  -6.770  -8.375  0.00  0.00     0.275 HD
HETATM    5  H           1     -19.407  -5.188  -7.836  0.00  0.00     0.275 HD
ENDBRANCH   1   2
BRANCH   1   6
HETATM    6  C           1     -21.334  -5.950  -5.633  0.00  0.00     0.021 C 
HETATM    7  C           1     -22.762  -6.277  -5.216  0.00  0.00     0.012 C 
BRANCH   6   8
HETATM    8  C           1     -20.388  -7.002  -5.069  0.00  0.00     0.002 C 
HETATM    9  C           1     -21.120  -7.836  -4.024  0.00  0.00     0.005 C 
ENDBRANCH   6   8
ENDBRANCH   1   6
BRANCH   1  10
HETATM   10  C           1     -21.762  -4.635  -7.687  0.00  0.00     0.249 C 
HETATM   11  O           1     -21.434  -3.596  -7.164  0.00  0.00    -0.271 OA
HETATM   12  N           1     -22.607  -4.624  -8.763  0.00  0.00    -0.349 N 
HETATM   13  H           1     -22.880  -5.494  -9.200  0.00  0.00     0.163 HD
BRANCH  12  14
HETATM   14  C           1     -23.111  -3.365  -9.277  0.00  0.00     0.235 C 
BRANCH  14  15
HETATM   15  C           1     -24.253  -3.629 -10.225  0.00  0.00     0.191 C 
HETATM   16  O           1     -24.051  -4.251 -11.290  0.00  0.00    -0.647 OA
HETATM   17  O           1     -25.403  -3.225  -9.946  0.00  0.00    -0.647 OA
ENDBRANCH  14  15
ENDBRANCH  12  14
ENDBRANCH   1  10
TORSDOF 6
ENDMDL
MODEL 9
REMARK VINA RESULT:      -5.0     15.408     17.592
REMARK  6 active torsions:
REMARK  status: ('A' for Active; 'I' for Inactive)
REMARK    1  A    between atoms: C_4  and  C_13 
REMARK    2  A    between atoms: C_6  and  C_15 
REMARK    3  A    between atoms: N_12  and  C_13 
REMARK       I    between atoms: N_12  and  C_16 
REMARK    4  A    between atoms: N_14  and  C_17 
REMARK    5  A    between atoms: C_15  and  C_17 
REMARK    6  A    between atoms: C_16  and  C_17 
ROOT
HETATM    1  C           1     -20.668  -6.399  -5.447  0.00  0.00     0.278 C 
ENDROOT
BRANCH   1   2
HETATM    2  N           1     -21.009  -7.578  -6.309  0.00  0.00    -0.066 N 
HETATM    3  H           1     -21.592  -8.252  -5.763  0.00  0.00     0.275 HD
HETATM    4  H           1     -21.544  -7.253  -7.147  0.00  0.00     0.275 HD
HETATM    5  H           1     -20.130  -8.050  -6.619  0.00  0.00     0.275 HD
ENDBRANCH   1   2
BRANCH   1   6
HETATM    6  C           1     -20.692  -5.131  -6.289  0.00  0.00     0.021 C 
HETATM    7  C           1     -19.266  -4.666  -6.549  0.00  0.00     0.012 C 
BRANCH   6   8
HETATM    8  C           1     -21.381  -5.418  -7.617  0.00  0.00     0.002 C 
HETATM    9  C           1     -22.266  -4.237  -7.996  0.00  0.00     0.005 C 
ENDBRANCH   6   8
ENDBRANCH   1   6
BRANCH   1  10
HETATM   10  C           1     -21.678  -6.284  -4.331  0.00  0.00     0.249 C 
HETATM   11  O           1     -22.856  -6.200  -4.590  0.00  0.00    -0.271 OA
HETATM   12  N           1     -21.260  -6.274  -3.028  0.00  0.00    -0.349 N 
HETATM   13  H           1     -20.274  -6.344  -2.813  0.00  0.00     0.163 HD
BRANCH  12  14
HETATM   14  C           1     -22.230  -6.163  -1.956  0.00  0.00     0.235 C 
BRANCH  14  15
HETATM   15  C           1     -22.017  -7.280  -0.966  0.00  0.00     0.191 C 
HETATM   16  O           1     -22.917  -7.570  -0.148  0.00  0.00    -0.647 OA
HETATM   17  O           1     -20.941  -7.916  -0.962  0.00  0.00    -0.647 OA
ENDBRANCH  14  15
ENDBRANCH  12  14
ENDBRANCH   1  10
TORSDOF 6
ENDMDL
