MODEL 1
REMARK VINA RESULT:      -5.8      0.000      0.000
REMARK  5 active torsions:
REMARK  status: ('A' for Active; 'I' for Inactive)
REMARK    1  A    between atoms: C_1  and  C_6 
REMARK    2  A    between atoms: C_3  and  C_5 
REMARK    3  A    between atoms: C_3  and  C_11 
REMARK    4  A    between atoms: C_3  and  N_14 
REMARK       I    between atoms: C_5  and  N_18 
REMARK    5  A    between atoms: C_11  and  O_12 
ROOT
HETATM    1  C           1     -21.831  -4.642  -7.893  0.00  0.00     0.253 C 
HETATM    2  C           1     -22.560  -3.752 -10.156  0.00  0.00     0.188 C 
HETATM    3  C           1     -21.610  -3.000 -11.071  0.00  0.00     0.038 C 
HETATM    4  C           1     -20.306  -3.790 -11.025  0.00  0.00     0.022 C 
HETATM    5  C           1     -20.578  -4.947 -10.079  0.00  0.00     0.127 C 
HETATM    6  N           1     -21.672  -4.465  -9.241  0.00  0.00    -0.336 N 
HETATM    7  O           1     -22.797  -4.181  -7.334  0.00  0.00    -0.271 OA
ENDROOT
BRANCH   1   8
HETATM    8  C           1     -20.800  -5.415  -7.107  0.00  0.00     0.302 C 
BRANCH   8   9
HETATM    9  C           1     -21.496  -6.462  -6.249  0.00  0.00     0.153 C 
HETATM   10  C           1     -20.451  -7.351  -5.588  0.00  0.00     0.042 C 
BRANCH   9  11
HETATM   11  O           1     -22.259  -5.825  -5.261  0.00  0.00    -0.393 OA
HETATM   12  H           1     -21.731  -5.799  -4.480  0.00  0.00     0.210 HD
ENDBRANCH   9  11
ENDBRANCH   8   9
BRANCH   8  13
HETATM   13  N           1     -20.036  -4.472  -6.225  0.00  0.00    -0.064 N 
HETATM   14  H           1     -19.273  -4.021  -6.777  0.00  0.00     0.275 HD
HETATM   15  H           1     -19.622  -5.002  -5.425  0.00  0.00     0.275 HD
HETATM   16  H           1     -20.683  -3.737  -5.859  0.00  0.00     0.275 HD
ENDBRANCH   8  13
ENDBRANCH   1   8
BRANCH   2  17
HETATM   17  C           1     -23.411  -4.719 -10.942  0.00  0.00     0.196 C 
HETATM   18  O           1     -23.462  -4.636 -12.188  0.00  0.00    -0.646 OA
HETATM   19  O           1     -24.064  -5.603 -10.347  0.00  0.00    -0.646 OA
ENDBRANCH   2  17
TORSDOF 5
ENDMDL
MODEL 2
REMARK VINA RESULT:      -5.3      1.916      2.645
REMARK  5 active torsions:
REMARK  status: ('A' for Active; 'I' for Inactive)
REMARK    1  A    between atoms: C_1  and  C_6 
REMARK    2  A    between atoms: C_3  and  C_5 
REMARK    3  A    between atoms: C_3  and  C_11 
REMARK    4  A    between atoms: C_3  and  N_14 
REMARK       I    between atoms: C_5  and  N_18 
REMARK    5  A    between atoms: C_11  and  O_12 
ROOT
HETATM    1  C           1     -21.752  -5.102  -8.058  0.00  0.00     0.253 C 
HETATM    2  C           1     -22.154  -4.702 -10.532  0.00  0.00     0.188 C 
HETATM    3  C           1     -23.549  -4.700 -11.133  0.00  0.00     0.038 C 
HETATM    4  C           1     -24.401  -3.899 -10.154  0.00  0.00     0.022 C 
HETATM    5  C           1     -23.450  -3.493  -9.042  0.00  0.00     0.127 C 
HETATM    6  N           1     -22.389  -4.493  -9.106  0.00  0.00    -0.336 N 
HETATM    7  O           1     -20.886  -5.917  -8.269  0.00  0.00    -0.271 OA
ENDROOT
BRANCH   1   8
HETATM    8  C           1     -22.133  -4.755  -6.639  0.00  0.00     0.302 C 
BRANCH   8   9
HETATM    9  C           1     -21.287  -5.572  -5.672  0.00  0.00     0.153 C 
HETATM   10  C           1     -20.114  -4.730  -5.189  0.00  0.00     0.042 C 
BRANCH   9  11
HETATM   11  O           1     -22.070  -5.955  -4.575  0.00  0.00    -0.393 OA
HETATM   12  H           1     -21.549  -6.550  -4.061  0.00  0.00     0.210 HD
ENDBRANCH   9  11
ENDBRANCH   8   9
BRANCH   8  13
HETATM   13  N           1     -23.584  -5.068  -6.421  0.00  0.00    -0.064 N 
HETATM   14  H           1     -24.006  -4.343  -5.798  0.00  0.00     0.275 HD
HETATM   15  H           1     -23.674  -6.008  -5.975  0.00  0.00     0.275 HD
HETATM   16  H           1     -24.081  -5.070  -7.341  0.00  0.00     0.275 HD
ENDBRANCH   8  13
ENDBRANCH   1   8
BRANCH   2  17
HETATM   17  C           1     -21.319  -3.585 -11.109  0.00  0.00     0.196 C 
HETATM   18  O           1     -20.105  -3.501 -10.825  0.00  0.00    -0.646 OA
HETATM   19  O           1     -21.842  -2.745 -11.872  0.00  0.00    -0.646 OA
ENDBRANCH   2  17
TORSDOF 5
ENDMDL
MODEL 3
REMARK VINA RESULT:      -5.1     17.699     19.825
REMARK  5 active torsions:
REMARK  status: ('A' for Active; 'I' for Inactive)
REMARK    1  A    between atoms: C_1  and  C_6 
REMARK    2  A    between atoms: C_3  and  C_5 
REMARK    3  A    between atoms: C_3  and  C_11 
REMARK    4  A    between atoms: C_3  and  N_14 
REMARK       I    between atoms: C_5  and  N_18 
REMARK    5  A    between atoms: C_11  and  O_12 
ROOT
HETATM    1  C           1     -12.474   6.699 -20.122  0.00  0.00     0.253 C 
HETATM    2  C           1     -11.549   9.059 -20.242  0.00  0.00     0.188 C 
HETATM    3  C           1     -10.064   9.352 -20.110  0.00  0.00     0.038 C 
HETATM    4  C           1      -9.374   8.293 -20.962  0.00  0.00     0.022 C 
HETATM    5  C           1     -10.500   7.447 -21.531  0.00  0.00     0.127 C 
HETATM    6  N           1     -11.595   7.641 -20.586  0.00  0.00    -0.336 N 
HETATM    7  O           1     -13.335   7.012 -19.336  0.00  0.00    -0.271 OA
ENDROOT
BRANCH   1   8
HETATM    8  C           1     -12.366   5.270 -20.595  0.00  0.00     0.302 C 
BRANCH   8   9
HETATM    9  C           1     -13.760   4.710 -20.843  0.00  0.00     0.153 C 
HETATM   10  C           1     -13.648   3.366 -21.549  0.00  0.00     0.042 C 
BRANCH   9  11
HETATM   11  O           1     -14.421   4.542 -19.619  0.00  0.00    -0.393 OA
HETATM   12  H           1     -14.056   3.773 -19.214  0.00  0.00     0.210 HD
ENDBRANCH   9  11
ENDBRANCH   8   9
BRANCH   8  13
HETATM   13  N           1     -11.677   4.448 -19.546  0.00  0.00    -0.064 N 
HETATM   14  H           1     -12.287   4.381 -18.701  0.00  0.00     0.275 HD
HETATM   15  H           1     -10.771   4.901 -19.288  0.00  0.00     0.275 HD
HETATM   16  H           1     -11.493   3.489 -19.920  0.00  0.00     0.275 HD
ENDBRANCH   8  13
ENDBRANCH   1   8
BRANCH   2  17
HETATM   17  C           1     -12.166   9.898 -21.334  0.00  0.00     0.196 C 
HETATM   18  O           1     -13.324   9.650 -21.734  0.00  0.00    -0.646 OA
HETATM   19  O           1     -11.519  10.841 -21.838  0.00  0.00    -0.646 OA
ENDBRANCH   2  17
TORSDOF 5
ENDMDL
MODEL 4
REMARK VINA RESULT:      -5.1     17.583     19.288
REMARK  5 active torsions:
REMARK  status: ('A' for Active; 'I' for Inactive)
REMARK    1  A    between atoms: C_1  and  C_6 
REMARK    2  A    between atoms: C_3  and  C_5 
REMARK    3  A    between atoms: C_3  and  C_11 
REMARK    4  A    between atoms: C_3  and  N_14 
REMARK       I    between atoms: C_5  and  N_18 
REMARK    5  A    between atoms: C_11  and  O_12 
ROOT
HETATM    1  C           1     -12.069   6.523 -20.366  0.00  0.00     0.253 C 
HETATM    2  C           1     -13.716   4.625 -20.724  0.00  0.00     0.188 C 
HETATM    3  C           1     -15.051   4.836 -21.417  0.00  0.00     0.038 C 
HETATM    4  C           1     -14.739   5.719 -22.620  0.00  0.00     0.022 C 
HETATM    5  C           1     -13.243   5.973 -22.548  0.00  0.00     0.127 C 
HETATM    6  N           1     -12.924   5.781 -21.136  0.00  0.00    -0.336 N 
HETATM    7  O           1     -11.905   6.241 -19.203  0.00  0.00    -0.271 OA
ENDROOT
BRANCH   1   8
HETATM    8  C           1     -11.330   7.692 -20.971  0.00  0.00     0.302 C 
BRANCH   8   9
HETATM    9  C           1      -9.985   7.857 -20.278  0.00  0.00     0.153 C 
HETATM   10  C           1      -9.130   8.845 -21.059  0.00  0.00     0.042 C 
BRANCH   9  11
HETATM   11  O           1     -10.185   8.339 -18.977  0.00  0.00    -0.393 OA
HETATM   12  H           1      -9.460   8.908 -18.781  0.00  0.00     0.210 HD
ENDBRANCH   9  11
ENDBRANCH   8   9
BRANCH   8  13
HETATM   13  N           1     -12.142   8.941 -20.792  0.00  0.00    -0.064 N 
HETATM   14  H           1     -12.223   9.160 -19.774  0.00  0.00     0.275 HD
HETATM   15  H           1     -13.095   8.798 -21.195  0.00  0.00     0.275 HD
HETATM   16  H           1     -11.671   9.735 -21.282  0.00  0.00     0.275 HD
ENDBRANCH   8  13
ENDBRANCH   1   8
BRANCH   2  17
HETATM   17  C           1     -13.070   3.341 -21.182  0.00  0.00     0.196 C 
HETATM   18  O           1     -11.858   3.135 -20.957  0.00  0.00    -0.646 OA
HETATM   19  O           1     -13.749   2.481 -21.785  0.00  0.00    -0.646 OA
ENDBRANCH   2  17
TORSDOF 5
ENDMDL
MODEL 5
REMARK VINA RESULT:      -4.8      2.490      5.946
REMARK  5 active torsions:
REMARK  status: ('A' for Active; 'I' for Inactive)
REMARK    1  A    between atoms: C_1  and  C_6 
REMARK    2  A    between atoms: C_3  and  C_5 
REMARK    3  A    between atoms: C_3  and  C_11 
REMARK    4  A    between atoms: C_3  and  N_14 
REMARK       I    between atoms: C_5  and  N_18 
REMARK    5  A    between atoms: C_11  and  O_12 
ROOT
HETATM    1  C           1     -20.673  -6.195  -6.591  0.00  0.00     0.253 C 
HETATM    2  C           1     -20.462  -7.856  -4.684  0.00  0.00     0.188 C 
HETATM    3  C           1     -20.660  -7.449  -3.234  0.00  0.00     0.038 C 
HETATM    4  C           1     -21.892  -6.552  -3.238  0.00  0.00     0.022 C 
HETATM    5  C           1     -22.330  -6.487  -4.691  0.00  0.00     0.127 C 
HETATM    6  N           1     -21.112  -6.787  -5.438  0.00  0.00    -0.336 N 
HETATM    7  O           1     -19.637  -6.553  -7.097  0.00  0.00    -0.271 OA
ENDROOT
BRANCH   1   8
HETATM    8  C           1     -21.486  -5.096  -7.231  0.00  0.00     0.302 C 
BRANCH   8   9
HETATM    9  C           1     -21.299  -5.140  -8.741  0.00  0.00     0.153 C 
HETATM   10  C           1     -22.427  -4.370  -9.415  0.00  0.00     0.042 C 
BRANCH   9  11
HETATM   11  O           1     -20.070  -4.557  -9.078  0.00  0.00    -0.393 OA
HETATM   12  H           1     -19.452  -5.261  -9.181  0.00  0.00     0.210 HD
ENDBRANCH   9  11
ENDBRANCH   8   9
BRANCH   8  13
HETATM   13  N           1     -21.027  -3.767  -6.709  0.00  0.00    -0.064 N 
HETATM   14  H           1     -20.286  -3.384  -7.338  0.00  0.00     0.275 HD
HETATM   15  H           1     -20.640  -3.886  -5.746  0.00  0.00     0.275 HD
HETATM   16  H           1     -21.836  -3.106  -6.681  0.00  0.00     0.275 HD
ENDBRANCH   8  13
ENDBRANCH   1   8
BRANCH   2  17
HETATM   17  C           1     -21.119  -9.186  -4.963  0.00  0.00     0.196 C 
HETATM   18  O           1     -21.121  -9.652  -6.123  0.00  0.00    -0.646 OA
HETATM   19  O           1     -21.660  -9.822  -4.033  0.00  0.00    -0.646 OA
ENDBRANCH   2  17
TORSDOF 5
ENDMDL
MODEL 6
REMARK VINA RESULT:      -4.8      5.817      7.855
REMARK  5 active torsions:
REMARK  status: ('A' for Active; 'I' for Inactive)
REMARK    1  A    between atoms: C_1  and  C_6 
REMARK    2  A    between atoms: C_3  and  C_5 
REMARK    3  A    between atoms: C_3  and  C_11 
REMARK    4  A    between atoms: C_3  and  N_14 
REMARK       I    between atoms: C_5  and  N_18 
REMARK    5  A    between atoms: C_11  and  O_12 
ROOT
HETATM    1  C           1     -21.188  -8.989  -1.423  0.00  0.00     0.253 C 
HETATM    2  C           1     -20.766  -7.432  -3.383  0.00  0.00     0.188 C 
HETATM    3  C           1     -20.182  -7.925  -4.694  0.00  0.00     0.038 C 
HETATM    4  C           1     -20.916  -9.228  -4.991  0.00  0.00     0.022 C 
HETATM    5  C           1     -21.877  -9.414  -3.829  0.00  0.00     0.127 C 
HETATM    6  N           1     -21.269  -8.646  -2.746  0.00  0.00    -0.336 N 
HETATM    7  O           1     -20.652  -8.244  -0.639  0.00  0.00    -0.271 OA
ENDROOT
BRANCH   1   8
HETATM    8  C           1     -21.771 -10.296  -0.946  0.00  0.00     0.302 C 
BRANCH   8   9
HETATM    9  C           1     -23.241 -10.102  -0.602  0.00  0.00     0.153 C 
HETATM   10  C           1     -23.793 -11.384   0.007  0.00  0.00     0.042 C 
BRANCH   9  11
HETATM   11  O           1     -23.372  -9.054   0.319  0.00  0.00    -0.393 OA
HETATM   12  H           1     -24.192  -9.182   0.765  0.00  0.00     0.210 HD
ENDBRANCH   9  11
ENDBRANCH   8   9
BRANCH   8  13
HETATM   13  N           1     -21.029 -10.758   0.273  0.00  0.00    -0.064 N 
HETATM   14  H           1     -21.119 -10.040   1.027  0.00  0.00     0.275 HD
HETATM   15  H           1     -20.020 -10.891   0.037  0.00  0.00     0.275 HD
HETATM   16  H           1     -21.432 -11.663   0.604  0.00  0.00     0.275 HD
ENDBRANCH   8  13
ENDBRANCH   1   8
BRANCH   2  17
HETATM   17  C           1     -21.886  -6.450  -3.630  0.00  0.00     0.196 C 
HETATM   18  O           1     -22.556  -6.011  -2.670  0.00  0.00    -0.646 OA
HETATM   19  O           1     -22.142  -6.076  -4.794  0.00  0.00    -0.646 OA
ENDBRANCH   2  17
TORSDOF 5
ENDMDL
MODEL 7
REMARK VINA RESULT:      -4.7      7.922     10.042
REMARK  5 active torsions:
REMARK  status: ('A' for Active; 'I' for Inactive)
REMARK    1  A    between atoms: C_1  and  C_6 
REMARK    2  A    between atoms: C_3  and  C_5 
REMARK    3  A    between atoms: C_3  and  C_11 
REMARK    4  A    between atoms: C_3  and  N_14 
REMARK       I    between atoms: C_5  and  N_18 
REMARK    5  A    between atoms: C_11  and  O_12 
ROOT
HETATM    1  C           1     -21.394 -10.718  -0.017  0.00  0.00     0.253 C 
HETATM    2  C           1     -21.153  -8.280  -0.683  0.00  0.00     0.188 C 
HETATM    3  C           1     -20.428  -7.858  -1.949  0.00  0.00     0.038 C 
HETATM    4  C           1     -20.910  -8.825  -3.024  0.00  0.00     0.022 C 
HETATM    5  C           1     -21.880  -9.754  -2.315  0.00  0.00     0.127 C 
HETATM    6  N           1     -21.469  -9.687  -0.915  0.00  0.00    -0.336 N 
HETATM    7  O           1     -21.034 -10.506   1.116  0.00  0.00    -0.271 OA
ENDROOT
BRANCH   1   8
HETATM    8  C           1     -21.764 -12.117  -0.443  0.00  0.00     0.302 C 
BRANCH   8   9
HETATM    9  C           1     -23.194 -12.417  -0.016  0.00  0.00     0.153 C 
HETATM   10  C           1     -23.179 -13.257   1.254  0.00  0.00     0.042 C 
BRANCH   9  11
HETATM   11  O           1     -23.871 -11.215   0.228  0.00  0.00    -0.393 OA
HETATM   12  H           1     -23.681 -10.641  -0.495  0.00  0.00     0.210 HD
ENDBRANCH   9  11
ENDBRANCH   8   9
BRANCH   8  13
HETATM   13  N           1     -20.832 -13.098   0.206  0.00  0.00    -0.064 N 
HETATM   14  H           1     -21.333 -13.597   0.974  0.00  0.00     0.275 HD
HETATM   15  H           1     -20.009 -12.589   0.599  0.00  0.00     0.275 HD
HETATM   16  H           1     -20.506 -13.791  -0.506  0.00  0.00     0.275 HD
ENDBRANCH   8  13
ENDBRANCH   1   8
BRANCH   2  17
HETATM   17  C           1     -22.413  -7.472  -0.490  0.00  0.00     0.196 C 
HETATM   18  O           1     -23.264  -7.830   0.352  0.00  0.00    -0.646 OA
HETATM   19  O           1     -22.604  -6.442  -1.173  0.00  0.00    -0.646 OA
ENDBRANCH   2  17
TORSDOF 5
ENDMDL
MODEL 8
REMARK VINA RESULT:      -4.6      2.967      6.122
REMARK  5 active torsions:
REMARK  status: ('A' for Active; 'I' for Inactive)
REMARK    1  A    between atoms: C_1  and  C_6 
REMARK    2  A    between atoms: C_3  and  C_5 
REMARK    3  A    between atoms: C_3  and  C_11 
REMARK    4  A    between atoms: C_3  and  N_14 
REMARK       I    between atoms: C_5  and  N_18 
REMARK    5  A    between atoms: C_11  and  O_12 
ROOT
HETATM    1  C           1     -21.988  -5.924  -6.097  0.00  0.00     0.253 C 
HETATM    2  C           1     -21.965  -7.438  -4.060  0.00  0.00     0.188 C 
HETATM    3  C           1     -21.556  -8.898  -4.144  0.00  0.00     0.038 C 
HETATM    4  C           1     -20.316  -8.912  -5.031  0.00  0.00     0.022 C 
HETATM    5  C           1     -20.087  -7.460  -5.413  0.00  0.00     0.127 C 
HETATM    6  N           1     -21.405  -6.848  -5.272  0.00  0.00    -0.336 N 
HETATM    7  O           1     -23.094  -5.506  -5.848  0.00  0.00    -0.271 OA
ENDROOT
BRANCH   1   8
HETATM    8  C           1     -21.249  -5.427  -7.315  0.00  0.00     0.302 C 
BRANCH   8   9
HETATM    9  C           1     -20.576  -4.100  -6.994  0.00  0.00     0.153 C 
HETATM   10  C           1     -19.493  -3.818  -8.027  0.00  0.00     0.042 C 
BRANCH   9  11
HETATM   11  O           1     -21.528  -3.072  -7.024  0.00  0.00    -0.393 OA
HETATM   12  H           1     -21.840  -3.013  -7.911  0.00  0.00     0.210 HD
ENDBRANCH   9  11
ENDBRANCH   8   9
BRANCH   8  13
HETATM   13  N           1     -22.219  -5.235  -8.443  0.00  0.00    -0.064 N 
HETATM   14  H           1     -21.786  -4.629  -9.175  0.00  0.00     0.275 HD
HETATM   15  H           1     -23.088  -4.780  -8.081  0.00  0.00     0.275 HD
HETATM   16  H           1     -22.459  -6.164  -8.857  0.00  0.00     0.275 HD
ENDBRANCH   8  13
ENDBRANCH   1   8
BRANCH   2  17
HETATM   17  C           1     -21.385  -6.788  -2.828  0.00  0.00     0.196 C 
HETATM   18  O           1     -20.746  -7.474  -2.001  0.00  0.00    -0.646 OA
HETATM   19  O           1     -21.543  -5.563  -2.635  0.00  0.00    -0.646 OA
ENDBRANCH   2  17
TORSDOF 5
ENDMDL
MODEL 9
REMARK VINA RESULT:      -4.6      8.216     11.138
REMARK  5 active torsions:
REMARK  status: ('A' for Active; 'I' for Inactive)
REMARK    1  A    between atoms: C_1  and  C_6 
REMARK    2  A    between atoms: C_3  and  C_5 
REMARK    3  A    between atoms: C_3  and  C_11 
REMARK    4  A    between atoms: C_3  and  N_14 
REMARK       I    between atoms: C_5  and  N_18 
REMARK    5  A    between atoms: C_11  and  O_12 
ROOT
HETATM    1  C           1     -21.813  -9.471   0.403  0.00  0.00     0.253 C 
HETATM    2  C           1     -21.301 -11.930   0.768  0.00  0.00     0.188 C 
HETATM    3  C           1     -22.387 -12.943   1.084  0.00  0.00     0.038 C 
HETATM    4  C           1     -23.532 -12.607   0.134  0.00  0.00     0.022 C 
HETATM    5  C           1     -23.041 -11.416  -0.670  0.00  0.00     0.127 C 
HETATM    6  N           1     -22.030 -10.806   0.188  0.00  0.00    -0.336 N 
HETATM    7  O           1     -20.931  -9.116   1.147  0.00  0.00    -0.271 OA
ENDROOT
BRANCH   1   8
HETATM    8  C           1     -22.676  -8.446  -0.290  0.00  0.00     0.302 C 
BRANCH   8   9
HETATM    9  C           1     -21.794  -7.349  -0.870  0.00  0.00     0.153 C 
HETATM   10  C           1     -21.083  -7.872  -2.111  0.00  0.00     0.042 C 
BRANCH   9  11
HETATM   11  O           1     -22.586  -6.245  -1.216  0.00  0.00    -0.393 OA
HETATM   12  H           1     -22.969  -5.922  -0.418  0.00  0.00     0.210 HD
ENDBRANCH   9  11
ENDBRANCH   8   9
BRANCH   8  13
HETATM   13  N           1     -23.632  -7.848   0.698  0.00  0.00    -0.064 N 
HETATM   14  H           1     -23.359  -6.859   0.893  0.00  0.00     0.275 HD
HETATM   15  H           1     -23.606  -8.399   1.586  0.00  0.00     0.275 HD
HETATM   16  H           1     -24.600  -7.870   0.304  0.00  0.00     0.275 HD
ENDBRANCH   8  13
ENDBRANCH   1   8
BRANCH   2  17
HETATM   17  C           1     -20.311 -12.497  -0.221  0.00  0.00     0.196 C 
HETATM   18  O           1     -20.300 -13.723  -0.462  0.00  0.00    -0.646 OA
HETATM   19  O           1     -19.503 -11.738  -0.799  0.00  0.00    -0.646 OA
ENDBRANCH   2  17
TORSDOF 5
ENDMDL
