MODEL 1
REMARK VINA RESULT:      -8.4      0.000      0.000
REMARK  11 active torsions:
REMARK  status: ('A' for Active; 'I' for Inactive)
REMARK    1  A    between atoms: N_2  and  C_12 
REMARK       I    between atoms: N_2  and  C_3 
REMARK    2  A    between atoms: C_3  and  C_4 
REMARK    3  A    between atoms: C_4  and  C_9 
REMARK    4  A    between atoms: C_4  and  N_21 
REMARK    5  A    between atoms: O_7  and  P_23 
REMARK    6  A    between atoms: C_9  and  C_19 
REMARK    7  A    between atoms: C_12  and  C_26 
REMARK    8  A    between atoms: C_12  and  C_13 
REMARK    9  A    between atoms: C_13  and  C_14 
REMARK   10  A    between atoms: P_23  and  O_24 
REMARK   11  A    between atoms: O_24  and  C_25 
ROOT
HETATM    1  C           1     -32.456  -4.348 -16.232  0.00  0.00     0.189 C 
ENDROOT
BRANCH   1   2
HETATM    2  N           1     -33.748  -4.577 -15.613  0.00  0.00    -0.344 N 
HETATM    3  C           1     -34.084  -3.913 -14.463  0.00  0.00     0.249 C 
HETATM    4  O           1     -34.641  -2.843 -14.525  0.00  0.00    -0.271 OA
HETATM    5  H           1     -34.402  -5.227 -16.031  0.00  0.00     0.163 HD
BRANCH   3   6
HETATM    6  C           1     -33.756  -4.518 -13.120  0.00  0.00     0.278 C 
BRANCH   6   7
HETATM    7  C           1     -34.363  -3.662 -12.016  0.00  0.00     0.021 C 
HETATM    8  C           1     -35.150  -4.549 -11.060  0.00  0.00     0.012 C 
BRANCH   7   9
HETATM    9  C           1     -33.250  -2.957 -11.253  0.00  0.00     0.002 C 
HETATM   10  C           1     -33.859  -1.995 -10.240  0.00  0.00     0.005 C 
ENDBRANCH   7   9
ENDBRANCH   6   7
BRANCH   6  11
HETATM   11  N           1     -32.268  -4.575 -12.948  0.00  0.00    -0.066 N 
HETATM   12  H           1     -31.846  -3.671 -13.260  0.00  0.00     0.275 HD
HETATM   13  H           1     -32.039  -4.737 -11.941  0.00  0.00     0.275 HD
HETATM   14  H           1     -31.880  -5.357 -13.522  0.00  0.00     0.275 HD
ENDBRANCH   6  11
ENDBRANCH   3   6
ENDBRANCH   1   2
BRANCH   1  15
HETATM   15  C           1     -32.601  -3.320 -17.326  0.00  0.00     0.197 C 
HETATM   16  O           1     -31.608  -2.994 -18.014  0.00  0.00    -0.646 OA
HETATM   17  O           1     -33.712  -2.793 -17.547  0.00  0.00    -0.646 OA
ENDBRANCH   1  15
BRANCH   1  18
HETATM   18  C           1     -31.940  -5.653 -16.826  0.00  0.00     0.074 C 
BRANCH  18  19
HETATM   19  C           1     -30.443  -5.642 -16.825  0.00  0.00    -0.056 A 
HETATM   20  C           1     -29.748  -5.183 -15.705  0.00  0.00     0.010 A 
HETATM   21  C           1     -28.354  -5.173 -15.706  0.00  0.00     0.038 A 
HETATM   22  C           1     -27.653  -5.624 -16.825  0.00  0.00     0.081 A 
HETATM   23  C           1     -28.347  -6.083 -17.943  0.00  0.00     0.038 A 
HETATM   24  C           1     -29.742  -6.093 -17.943  0.00  0.00     0.010 A 
BRANCH  22  25
HETATM   25  O           1     -26.298  -5.615 -16.824  0.00  0.00    -0.247 OA
BRANCH  25  26
HETATM   26  P           1     -25.533  -6.707 -15.913  0.00  0.00     0.411 P 
HETATM   27  O           1     -24.526  -7.416 -16.734  0.00  0.00    -0.624 OA
HETATM   28  O           1     -26.514  -7.682 -15.385  0.00  0.00    -0.624 OA
BRANCH  26  29
HETATM   29  O           1     -24.798  -5.962 -14.683  0.00  0.00    -0.300 OA
HETATM   30  H           1     -25.418  -5.321 -14.380  0.00  0.00     0.223 HD
ENDBRANCH  26  29
ENDBRANCH  25  26
ENDBRANCH  22  25
ENDBRANCH  18  19
ENDBRANCH   1  18
TORSDOF 11
ENDMDL
MODEL 2
REMARK VINA RESULT:      -7.5     12.102     14.421
REMARK  11 active torsions:
REMARK  status: ('A' for Active; 'I' for Inactive)
REMARK    1  A    between atoms: N_2  and  C_12 
REMARK       I    between atoms: N_2  and  C_3 
REMARK    2  A    between atoms: C_3  and  C_4 
REMARK    3  A    between atoms: C_4  and  C_9 
REMARK    4  A    between atoms: C_4  and  N_21 
REMARK    5  A    between atoms: O_7  and  P_23 
REMARK    6  A    between atoms: C_9  and  C_19 
REMARK    7  A    between atoms: C_12  and  C_26 
REMARK    8  A    between atoms: C_12  and  C_13 
REMARK    9  A    between atoms: C_13  and  C_14 
REMARK   10  A    between atoms: P_23  and  O_24 
REMARK   11  A    between atoms: O_24  and  C_25 
ROOT
HETATM    1  C           1     -20.688  -7.739  -5.509  0.00  0.00     0.189 C 
ENDROOT
BRANCH   1   2
HETATM    2  N           1     -21.749  -7.986  -4.552  0.00  0.00    -0.344 N 
HETATM    3  C           1     -22.187  -6.974  -3.739  0.00  0.00     0.249 C 
HETATM    4  O           1     -23.091  -6.258  -4.100  0.00  0.00    -0.271 OA
HETATM    5  H           1     -22.167  -8.906  -4.484  0.00  0.00     0.163 HD
BRANCH   3   6
HETATM    6  C           1     -21.540  -6.753  -2.394  0.00  0.00     0.278 C 
BRANCH   6   7
HETATM    7  C           1     -21.854  -7.929  -1.479  0.00  0.00     0.021 C 
HETATM    8  C           1     -20.589  -8.748  -1.253  0.00  0.00     0.012 C 
BRANCH   7   9
HETATM    9  C           1     -22.367  -7.409  -0.144  0.00  0.00     0.002 C 
HETATM   10  C           1     -23.291  -8.445   0.483  0.00  0.00     0.005 C 
ENDBRANCH   7   9
ENDBRANCH   6   7
BRANCH   6  11
HETATM   11  N           1     -22.073  -5.490  -1.786  0.00  0.00    -0.066 N 
HETATM   12  H           1     -21.801  -5.448  -0.777  0.00  0.00     0.275 HD
HETATM   13  H           1     -21.675  -4.665  -2.289  0.00  0.00     0.275 HD
HETATM   14  H           1     -23.115  -5.477  -1.866  0.00  0.00     0.275 HD
ENDBRANCH   6  11
ENDBRANCH   3   6
ENDBRANCH   1   2
BRANCH   1  15
HETATM   15  C           1     -19.520  -8.644  -5.206  0.00  0.00     0.197 C 
HETATM   16  O           1     -19.145  -9.486  -6.051  0.00  0.00    -0.646 OA
HETATM   17  O           1     -18.925  -8.551  -4.110  0.00  0.00    -0.646 OA
ENDBRANCH   1  15
BRANCH   1  18
HETATM   18  C           1     -20.244  -6.285  -5.411  0.00  0.00     0.074 C 
BRANCH  18  19
HETATM   19  C           1     -20.669  -5.549  -6.643  0.00  0.00    -0.056 A 
HETATM   20  C           1     -21.798  -4.730  -6.613  0.00  0.00     0.010 A 
HETATM   21  C           1     -22.194  -4.046  -7.762  0.00  0.00     0.038 A 
HETATM   22  C           1     -21.460  -4.179  -8.941  0.00  0.00     0.081 A 
HETATM   23  C           1     -20.332  -4.998  -8.971  0.00  0.00     0.038 A 
HETATM   24  C           1     -19.935  -5.682  -7.822  0.00  0.00     0.010 A 
BRANCH  22  25
HETATM   25  O           1     -21.844  -3.513 -10.057  0.00  0.00    -0.247 OA
BRANCH  25  26
HETATM   26  P           1     -23.128  -4.066 -10.865  0.00  0.00     0.411 P 
HETATM   27  O           1     -24.208  -3.054 -10.829  0.00  0.00    -0.624 OA
HETATM   28  O           1     -23.605  -5.318 -10.235  0.00  0.00    -0.624 OA
BRANCH  26  29
HETATM   29  O           1     -22.714  -4.358 -12.398  0.00  0.00    -0.300 OA
HETATM   30  H           1     -21.822  -4.066 -12.470  0.00  0.00     0.223 HD
ENDBRANCH  26  29
ENDBRANCH  25  26
ENDBRANCH  22  25
ENDBRANCH  18  19
ENDBRANCH   1  18
TORSDOF 11
ENDMDL
MODEL 3
REMARK VINA RESULT:      -7.4     12.113     14.459
REMARK  11 active torsions:
REMARK  status: ('A' for Active; 'I' for Inactive)
REMARK    1  A    between atoms: N_2  and  C_12 
REMARK       I    between atoms: N_2  and  C_3 
REMARK    2  A    between atoms: C_3  and  C_4 
REMARK    3  A    between atoms: C_4  and  C_9 
REMARK    4  A    between atoms: C_4  and  N_21 
REMARK    5  A    between atoms: O_7  and  P_23 
REMARK    6  A    between atoms: C_9  and  C_19 
REMARK    7  A    between atoms: C_12  and  C_26 
REMARK    8  A    between atoms: C_12  and  C_13 
REMARK    9  A    between atoms: C_13  and  C_14 
REMARK   10  A    between atoms: P_23  and  O_24 
REMARK   11  A    between atoms: O_24  and  C_25 
ROOT
HETATM    1  C           1     -21.106  -6.497  -4.994  0.00  0.00     0.189 C 
ENDROOT
BRANCH   1   2
HETATM    2  N           1     -20.943  -6.620  -3.558  0.00  0.00    -0.344 N 
HETATM    3  C           1     -20.782  -7.857  -2.991  0.00  0.00     0.249 C 
HETATM    4  O           1     -19.673  -8.317  -2.852  0.00  0.00    -0.271 OA
HETATM    5  H           1     -20.949  -5.793  -2.974  0.00  0.00     0.163 HD
BRANCH   3   6
HETATM    6  C           1     -21.988  -8.645  -2.542  0.00  0.00     0.278 C 
BRANCH   6   7
HETATM    7  C           1     -21.953  -8.809  -1.029  0.00  0.00     0.021 C 
HETATM    8  C           1     -22.389  -7.508  -0.367  0.00  0.00     0.012 C 
BRANCH   7   9
HETATM    9  C           1     -22.900  -9.929  -0.619  0.00  0.00     0.002 C 
HETATM   10  C           1     -22.143 -10.954   0.215  0.00  0.00     0.005 C 
ENDBRANCH   7   9
ENDBRANCH   6   7
BRANCH   6  11
HETATM   11  N           1     -21.972  -9.996  -3.192  0.00  0.00    -0.066 N 
HETATM   12  H           1     -20.989 -10.254  -3.435  0.00  0.00     0.275 HD
HETATM   13  H           1     -22.365 -10.705  -2.532  0.00  0.00     0.275 HD
HETATM   14  H           1     -22.551  -9.971  -4.062  0.00  0.00     0.275 HD
ENDBRANCH   6  11
ENDBRANCH   3   6
ENDBRANCH   1   2
BRANCH   1  15
HETATM   15  C           1     -20.598  -7.749  -5.665  0.00  0.00     0.197 C 
HETATM   16  O           1     -21.389  -8.682  -5.927  0.00  0.00    -0.646 OA
HETATM   17  O           1     -19.388  -7.855  -5.959  0.00  0.00    -0.646 OA
ENDBRANCH   1  15
BRANCH   1  18
HETATM   18  C           1     -20.312  -5.296  -5.492  0.00  0.00     0.074 C 
BRANCH  18  19
HETATM   19  C           1     -20.850  -4.859  -6.820  0.00  0.00    -0.056 A 
HETATM   20  C           1     -20.040  -4.917  -7.954  0.00  0.00     0.010 A 
HETATM   21  C           1     -20.541  -4.509  -9.190  0.00  0.00     0.038 A 
HETATM   22  C           1     -21.853  -4.046  -9.292  0.00  0.00     0.081 A 
HETATM   23  C           1     -22.662  -3.988  -8.158  0.00  0.00     0.038 A 
HETATM   24  C           1     -22.161  -4.396  -6.922  0.00  0.00     0.010 A 
BRANCH  22  25
HETATM   25  O           1     -22.340  -3.650 -10.494  0.00  0.00    -0.247 OA
BRANCH  25  26
HETATM   26  P           1     -23.706  -4.333 -11.019  0.00  0.00     0.411 P 
HETATM   27  O           1     -24.829  -3.385 -10.847  0.00  0.00    -0.624 OA
HETATM   28  O           1     -23.974  -5.563 -10.241  0.00  0.00    -0.624 OA
BRANCH  26  29
HETATM   29  O           1     -23.553  -4.708 -12.583  0.00  0.00    -0.300 OA
HETATM   30  H           1     -22.640  -4.906 -12.698  0.00  0.00     0.223 HD
ENDBRANCH  26  29
ENDBRANCH  25  26
ENDBRANCH  22  25
ENDBRANCH  18  19
ENDBRANCH   1  18
TORSDOF 11
ENDMDL
MODEL 4
REMARK VINA RESULT:      -6.8     12.947     15.442
REMARK  11 active torsions:
REMARK  status: ('A' for Active; 'I' for Inactive)
REMARK    1  A    between atoms: N_2  and  C_12 
REMARK       I    between atoms: N_2  and  C_3 
REMARK    2  A    between atoms: C_3  and  C_4 
REMARK    3  A    between atoms: C_4  and  C_9 
REMARK    4  A    between atoms: C_4  and  N_21 
REMARK    5  A    between atoms: O_7  and  P_23 
REMARK    6  A    between atoms: C_9  and  C_19 
REMARK    7  A    between atoms: C_12  and  C_26 
REMARK    8  A    between atoms: C_12  and  C_13 
REMARK    9  A    between atoms: C_13  and  C_14 
REMARK   10  A    between atoms: P_23  and  O_24 
REMARK   11  A    between atoms: O_24  and  C_25 
ROOT
HETATM    1  C           1     -21.069  -7.035  -5.994  0.00  0.00     0.189 C 
ENDROOT
BRANCH   1   2
HETATM    2  N           1     -20.607  -6.179  -7.070  0.00  0.00    -0.344 N 
HETATM    3  C           1     -21.189  -4.955  -7.269  0.00  0.00     0.249 C 
HETATM    4  O           1     -20.749  -3.979  -6.709  0.00  0.00    -0.271 OA
HETATM    5  H           1     -19.854  -6.485  -7.674  0.00  0.00     0.163 HD
BRANCH   3   6
HETATM    6  C           1     -22.380  -4.827  -8.186  0.00  0.00     0.278 C 
BRANCH   6   7
HETATM    7  C           1     -22.062  -3.835  -9.297  0.00  0.00     0.021 C 
HETATM    8  C           1     -20.951  -4.396 -10.175  0.00  0.00     0.012 C 
BRANCH   7   9
HETATM    9  C           1     -23.308  -3.604 -10.142  0.00  0.00     0.002 C 
HETATM   10  C           1     -23.515  -4.790 -11.076  0.00  0.00     0.005 C 
ENDBRANCH   7   9
ENDBRANCH   6   7
BRANCH   6  11
HETATM   11  N           1     -23.563  -4.338  -7.404  0.00  0.00    -0.066 N 
HETATM   12  H           1     -23.246  -4.006  -6.464  0.00  0.00     0.275 HD
HETATM   13  H           1     -24.018  -3.549  -7.916  0.00  0.00     0.275 HD
HETATM   14  H           1     -24.249  -5.118  -7.285  0.00  0.00     0.275 HD
ENDBRANCH   6  11
ENDBRANCH   3   6
ENDBRANCH   1   2
BRANCH   1  15
HETATM   15  C           1     -21.732  -6.192  -4.933  0.00  0.00     0.197 C 
HETATM   16  O           1     -21.036  -5.602  -4.078  0.00  0.00    -0.646 OA
HETATM   17  O           1     -22.977  -6.083  -4.909  0.00  0.00    -0.646 OA
ENDBRANCH   1  15
BRANCH   1  18
HETATM   18  C           1     -19.882  -7.774  -5.388  0.00  0.00     0.074 C 
BRANCH  18  19
HETATM   19  C           1     -20.374  -8.766  -4.381  0.00  0.00    -0.056 A 
HETATM   20  C           1     -21.482  -9.563  -4.670  0.00  0.00     0.010 A 
HETATM   21  C           1     -21.940 -10.487  -3.730  0.00  0.00     0.038 A 
HETATM   22  C           1     -21.289 -10.615  -2.503  0.00  0.00     0.081 A 
HETATM   23  C           1     -20.182  -9.818  -2.215  0.00  0.00     0.038 A 
HETATM   24  C           1     -19.723  -8.894  -3.154  0.00  0.00     0.010 A 
BRANCH  22  25
HETATM   25  O           1     -21.734 -11.513  -1.591  0.00  0.00    -0.247 OA
BRANCH  25  26
HETATM   26  P           1     -22.396 -10.947  -0.231  0.00  0.00     0.411 P 
HETATM   27  O           1     -23.350 -11.944   0.305  0.00  0.00    -0.624 OA
HETATM   28  O           1     -23.113  -9.684  -0.520  0.00  0.00    -0.624 OA
BRANCH  26  29
HETATM   29  O           1     -21.237 -10.671   0.858  0.00  0.00    -0.300 OA
HETATM   30  H           1     -20.461 -10.505   0.352  0.00  0.00     0.223 HD
ENDBRANCH  26  29
ENDBRANCH  25  26
ENDBRANCH  22  25
ENDBRANCH  18  19
ENDBRANCH   1  18
TORSDOF 11
ENDMDL
MODEL 5
REMARK VINA RESULT:      -6.6     15.120     17.404
REMARK  11 active torsions:
REMARK  status: ('A' for Active; 'I' for Inactive)
REMARK    1  A    between atoms: N_2  and  C_12 
REMARK       I    between atoms: N_2  and  C_3 
REMARK    2  A    between atoms: C_3  and  C_4 
REMARK    3  A    between atoms: C_4  and  C_9 
REMARK    4  A    between atoms: C_4  and  N_21 
REMARK    5  A    between atoms: O_7  and  P_23 
REMARK    6  A    between atoms: C_9  and  C_19 
REMARK    7  A    between atoms: C_12  and  C_26 
REMARK    8  A    between atoms: C_12  and  C_13 
REMARK    9  A    between atoms: C_13  and  C_14 
REMARK   10  A    between atoms: P_23  and  O_24 
REMARK   11  A    between atoms: O_24  and  C_25 
ROOT
HETATM    1  C           1     -19.787 -10.558  -2.142  0.00  0.00     0.189 C 
ENDROOT
BRANCH   1   2
HETATM    2  N           1     -20.254 -11.720  -1.410  0.00  0.00    -0.344 N 
HETATM    3  C           1     -21.245 -12.506  -1.935  0.00  0.00     0.249 C 
HETATM    4  O           1     -20.962 -13.443  -2.644  0.00  0.00    -0.271 OA
HETATM    5  H           1     -19.847 -11.950  -0.513  0.00  0.00     0.163 HD
BRANCH   3   6
HETATM    6  C           1     -22.691 -12.203  -1.628  0.00  0.00     0.278 C 
BRANCH   6   7
HETATM    7  C           1     -22.810 -11.687  -0.200  0.00  0.00     0.021 C 
HETATM    8  C           1     -23.743 -10.483  -0.171  0.00  0.00     0.012 C 
BRANCH   7   9
HETATM    9  C           1     -23.373 -12.786   0.691  0.00  0.00     0.002 C 
HETATM   10  C           1     -22.262 -13.347   1.568  0.00  0.00     0.005 C 
ENDBRANCH   7   9
ENDBRANCH   6   7
BRANCH   6  11
HETATM   11  N           1     -23.507 -13.452  -1.777  0.00  0.00    -0.066 N 
HETATM   12  H           1     -23.974 -13.454  -2.712  0.00  0.00     0.275 HD
HETATM   13  H           1     -22.883 -14.287  -1.697  0.00  0.00     0.275 HD
HETATM   14  H           1     -24.232 -13.487  -1.025  0.00  0.00     0.275 HD
ENDBRANCH   6  11
ENDBRANCH   3   6
ENDBRANCH   1   2
BRANCH   1  15
HETATM   15  C           1     -18.279 -10.536  -2.138  0.00  0.00     0.197 C 
HETATM   16  O           1     -17.644 -11.319  -1.397  0.00  0.00    -0.646 OA
HETATM   17  O           1     -17.663  -9.736  -2.874  0.00  0.00    -0.646 OA
ENDBRANCH   1  15
BRANCH   1  18
HETATM   18  C           1     -20.316  -9.294  -1.477  0.00  0.00     0.074 C 
BRANCH  18  19
HETATM   19  C           1     -20.893  -8.386  -2.518  0.00  0.00    -0.056 A 
HETATM   20  C           1     -21.273  -7.087  -2.180  0.00  0.00     0.010 A 
HETATM   21  C           1     -21.812  -6.243  -3.151  0.00  0.00     0.038 A 
HETATM   22  C           1     -21.969  -6.697  -4.460  0.00  0.00     0.081 A 
HETATM   23  C           1     -21.590  -7.995  -4.798  0.00  0.00     0.038 A 
HETATM   24  C           1     -21.051  -8.840  -3.828  0.00  0.00     0.010 A 
BRANCH  22  25
HETATM   25  O           1     -22.491  -5.876  -5.403  0.00  0.00    -0.247 OA
BRANCH  25  26
HETATM   26  P           1     -21.475  -5.172  -6.442  0.00  0.00     0.411 P 
HETATM   27  O           1     -21.041  -6.160  -7.454  0.00  0.00    -0.624 OA
HETATM   28  O           1     -20.294  -4.664  -5.710  0.00  0.00    -0.624 OA
BRANCH  26  29
HETATM   29  O           1     -22.222  -3.942  -7.176  0.00  0.00    -0.300 OA
HETATM   30  H           1     -21.995  -3.181  -6.671  0.00  0.00     0.223 HD
ENDBRANCH  26  29
ENDBRANCH  25  26
ENDBRANCH  22  25
ENDBRANCH  18  19
ENDBRANCH   1  18
TORSDOF 11
ENDMDL
MODEL 6
REMARK VINA RESULT:      -6.5     15.218     17.117
REMARK  11 active torsions:
REMARK  status: ('A' for Active; 'I' for Inactive)
REMARK    1  A    between atoms: N_2  and  C_12 
REMARK       I    between atoms: N_2  and  C_3 
REMARK    2  A    between atoms: C_3  and  C_4 
REMARK    3  A    between atoms: C_4  and  C_9 
REMARK    4  A    between atoms: C_4  and  N_21 
REMARK    5  A    between atoms: O_7  and  P_23 
REMARK    6  A    between atoms: C_9  and  C_19 
REMARK    7  A    between atoms: C_12  and  C_26 
REMARK    8  A    between atoms: C_12  and  C_13 
REMARK    9  A    between atoms: C_13  and  C_14 
REMARK   10  A    between atoms: P_23  and  O_24 
REMARK   11  A    between atoms: O_24  and  C_25 
ROOT
HETATM    1  C           1     -20.532  -7.598  -4.348  0.00  0.00     0.189 C 
ENDROOT
BRANCH   1   2
HETATM    2  N           1     -21.768  -7.593  -3.589  0.00  0.00    -0.344 N 
HETATM    3  C           1     -21.794  -7.059  -2.328  0.00  0.00     0.249 C 
HETATM    4  O           1     -22.048  -5.887  -2.174  0.00  0.00    -0.271 OA
HETATM    5  H           1     -22.611  -7.983  -3.991  0.00  0.00     0.163 HD
BRANCH   3   6
HETATM    6  C           1     -21.506  -7.932  -1.133  0.00  0.00     0.278 C 
BRANCH   6   7
HETATM    7  C           1     -21.998  -9.347  -1.406  0.00  0.00     0.021 C 
HETATM    8  C           1     -20.840 -10.326  -1.256  0.00  0.00     0.012 C 
BRANCH   7   9
HETATM    9  C           1     -23.095  -9.703  -0.412  0.00  0.00     0.002 C 
HETATM   10  C           1     -22.993 -11.180  -0.050  0.00  0.00     0.005 C 
ENDBRANCH   7   9
ENDBRANCH   6   7
BRANCH   6  11
HETATM   11  N           1     -22.212  -7.382   0.070  0.00  0.00    -0.066 N 
HETATM   12  H           1     -23.240  -7.347  -0.115  0.00  0.00     0.275 HD
HETATM   13  H           1     -22.027  -7.996   0.895  0.00  0.00     0.275 HD
HETATM   14  H           1     -21.861  -6.417   0.269  0.00  0.00     0.275 HD
ENDBRANCH   6  11
ENDBRANCH   3   6
ENDBRANCH   1   2
BRANCH   1  15
HETATM   15  C           1     -20.591  -6.528  -5.410  0.00  0.00     0.197 C 
HETATM   16  O           1     -20.748  -6.845  -6.610  0.00  0.00    -0.646 OA
HETATM   17  O           1     -20.485  -5.324  -5.091  0.00  0.00    -0.646 OA
ENDBRANCH   1  15
BRANCH   1  18
HETATM   18  C           1     -20.348  -8.959  -5.008  0.00  0.00     0.074 C 
BRANCH  18  19
HETATM   19  C           1     -18.916  -9.380  -4.891  0.00  0.00    -0.056 A 
HETATM   20  C           1     -18.314  -9.467  -3.636  0.00  0.00     0.010 A 
HETATM   21  C           1     -16.979  -9.859  -3.528  0.00  0.00     0.038 A 
HETATM   22  C           1     -16.248 -10.165  -4.675  0.00  0.00     0.081 A 
HETATM   23  C           1     -16.849 -10.077  -5.930  0.00  0.00     0.038 A 
HETATM   24  C           1     -18.184  -9.686  -6.039  0.00  0.00     0.010 A 
BRANCH  22  25
HETATM   25  O           1     -14.951 -10.546  -4.570  0.00  0.00    -0.247 OA
BRANCH  25  26
HETATM   26  P           1     -14.590 -12.093  -4.862  0.00  0.00     0.411 P 
HETATM   27  O           1     -15.762 -12.941  -4.548  0.00  0.00    -0.624 OA
HETATM   28  O           1     -13.446 -12.500  -4.017  0.00  0.00    -0.624 OA
BRANCH  26  29
HETATM   29  O           1     -14.200 -12.269  -6.419  0.00  0.00    -0.300 OA
HETATM   30  H           1     -14.221 -11.398  -6.776  0.00  0.00     0.223 HD
ENDBRANCH  26  29
ENDBRANCH  25  26
ENDBRANCH  22  25
ENDBRANCH  18  19
ENDBRANCH   1  18
TORSDOF 11
ENDMDL
MODEL 7
REMARK VINA RESULT:      -6.5     16.124     17.859
REMARK  11 active torsions:
REMARK  status: ('A' for Active; 'I' for Inactive)
REMARK    1  A    between atoms: N_2  and  C_12 
REMARK       I    between atoms: N_2  and  C_3 
REMARK    2  A    between atoms: C_3  and  C_4 
REMARK    3  A    between atoms: C_4  and  C_9 
REMARK    4  A    between atoms: C_4  and  N_21 
REMARK    5  A    between atoms: O_7  and  P_23 
REMARK    6  A    between atoms: C_9  and  C_19 
REMARK    7  A    between atoms: C_12  and  C_26 
REMARK    8  A    between atoms: C_12  and  C_13 
REMARK    9  A    between atoms: C_13  and  C_14 
REMARK   10  A    between atoms: P_23  and  O_24 
REMARK   11  A    between atoms: O_24  and  C_25 
ROOT
HETATM    1  C           1     -21.152  -7.818  -2.256  0.00  0.00     0.189 C 
ENDROOT
BRANCH   1   2
HETATM    2  N           1     -22.060  -8.375  -1.271  0.00  0.00    -0.344 N 
HETATM    3  C           1     -21.578  -9.185  -0.277  0.00  0.00     0.249 C 
HETATM    4  O           1     -21.218  -8.704   0.772  0.00  0.00    -0.271 OA
HETATM    5  H           1     -23.049  -8.166  -1.318  0.00  0.00     0.163 HD
BRANCH   3   6
HETATM    6  C           1     -21.497 -10.676  -0.491  0.00  0.00     0.278 C 
BRANCH   6   7
HETATM    7  C           1     -22.638 -11.359   0.251  0.00  0.00     0.021 C 
HETATM    8  C           1     -23.864 -11.424  -0.651  0.00  0.00     0.012 C 
BRANCH   7   9
HETATM    9  C           1     -22.218 -12.771   0.638  0.00  0.00     0.002 C 
HETATM   10  C           1     -23.284 -13.391   1.532  0.00  0.00     0.005 C 
ENDBRANCH   7   9
ENDBRANCH   6   7
BRANCH   6  11
HETATM   11  N           1     -20.186 -11.185   0.031  0.00  0.00    -0.066 N 
HETATM   12  H           1     -20.360 -11.862   0.808  0.00  0.00     0.275 HD
HETATM   13  H           1     -19.666 -11.663  -0.738  0.00  0.00     0.275 HD
HETATM   14  H           1     -19.619 -10.383   0.388  0.00  0.00     0.275 HD
ENDBRANCH   6  11
ENDBRANCH   3   6
ENDBRANCH   1   2
BRANCH   1  15
HETATM   15  C           1     -21.641  -6.453  -2.671  0.00  0.00     0.197 C 
HETATM   16  O           1     -22.526  -5.875  -2.002  0.00  0.00    -0.646 OA
HETATM   17  O           1     -21.161  -5.898  -3.683  0.00  0.00    -0.646 OA
ENDBRANCH   1  15
BRANCH   1  18
HETATM   18  C           1     -21.102  -8.732  -3.474  0.00  0.00     0.074 C 
BRANCH  18  19
HETATM   19  C           1     -19.680  -9.096  -3.765  0.00  0.00    -0.056 A 
HETATM   20  C           1     -19.262  -9.276  -5.084  0.00  0.00     0.010 A 
HETATM   21  C           1     -17.936  -9.617  -5.355  0.00  0.00     0.038 A 
HETATM   22  C           1     -17.029  -9.775  -4.307  0.00  0.00     0.081 A 
HETATM   23  C           1     -17.447  -9.596  -2.990  0.00  0.00     0.038 A 
HETATM   24  C           1     -18.772  -9.255  -2.718  0.00  0.00     0.010 A 
BRANCH  22  25
HETATM   25  O           1     -15.741 -10.105  -4.571  0.00  0.00    -0.247 OA
BRANCH  25  26
HETATM   26  P           1     -15.421 -11.630  -4.996  0.00  0.00     0.411 P 
HETATM   27  O           1     -15.228 -11.703  -6.462  0.00  0.00    -0.624 OA
HETATM   28  O           1     -16.553 -12.499  -4.604  0.00  0.00    -0.624 OA
BRANCH  26  29
HETATM   29  O           1     -14.078 -12.126  -4.251  0.00  0.00    -0.300 OA
HETATM   30  H           1     -13.974 -11.541  -3.520  0.00  0.00     0.223 HD
ENDBRANCH  26  29
ENDBRANCH  25  26
ENDBRANCH  22  25
ENDBRANCH  18  19
ENDBRANCH   1  18
TORSDOF 11
ENDMDL
MODEL 8
REMARK VINA RESULT:      -6.5     13.478     15.943
REMARK  11 active torsions:
REMARK  status: ('A' for Active; 'I' for Inactive)
REMARK    1  A    between atoms: N_2  and  C_12 
REMARK       I    between atoms: N_2  and  C_3 
REMARK    2  A    between atoms: C_3  and  C_4 
REMARK    3  A    between atoms: C_4  and  C_9 
REMARK    4  A    between atoms: C_4  and  N_21 
REMARK    5  A    between atoms: O_7  and  P_23 
REMARK    6  A    between atoms: C_9  and  C_19 
REMARK    7  A    between atoms: C_12  and  C_26 
REMARK    8  A    between atoms: C_12  and  C_13 
REMARK    9  A    between atoms: C_13  and  C_14 
REMARK   10  A    between atoms: P_23  and  O_24 
REMARK   11  A    between atoms: O_24  and  C_25 
ROOT
HETATM    1  C           1     -21.325  -7.325  -5.752  0.00  0.00     0.189 C 
ENDROOT
BRANCH   1   2
HETATM    2  N           1     -20.795  -6.730  -6.965  0.00  0.00    -0.344 N 
HETATM    3  C           1     -20.635  -5.372  -7.047  0.00  0.00     0.249 C 
HETATM    4  O           1     -19.593  -4.865  -6.704  0.00  0.00    -0.271 OA
HETATM    5  H           1     -20.544  -7.318  -7.749  0.00  0.00     0.163 HD
BRANCH   3   6
HETATM    6  C           1     -21.758  -4.510  -7.567  0.00  0.00     0.278 C 
BRANCH   6   7
HETATM    7  C           1     -21.878  -4.684  -9.075  0.00  0.00     0.021 C 
HETATM    8  C           1     -23.105  -3.933  -9.577  0.00  0.00     0.012 C 
BRANCH   7   9
HETATM    9  C           1     -20.631  -4.127  -9.749  0.00  0.00     0.002 C 
HETATM   10  C           1     -20.967  -3.717 -11.177  0.00  0.00     0.005 C 
ENDBRANCH   7   9
ENDBRANCH   6   7
BRANCH   6  11
HETATM   11  N           1     -21.472  -3.072  -7.251  0.00  0.00    -0.066 N 
HETATM   12  H           1     -20.814  -2.683  -7.963  0.00  0.00     0.275 HD
HETATM   13  H           1     -22.364  -2.527  -7.265  0.00  0.00     0.275 HD
HETATM   14  H           1     -21.038  -3.004  -6.302  0.00  0.00     0.275 HD
ENDBRANCH   6  11
ENDBRANCH   3   6
ENDBRANCH   1   2
BRANCH   1  15
HETATM   15  C           1     -22.086  -6.280  -4.974  0.00  0.00     0.197 C 
HETATM   16  O           1     -23.316  -6.139  -5.154  0.00  0.00    -0.646 OA
HETATM   17  O           1     -21.489  -5.556  -4.149  0.00  0.00    -0.646 OA
ENDBRANCH   1  15
BRANCH   1  18
HETATM   18  C           1     -20.177  -7.854  -4.903  0.00  0.00     0.074 C 
BRANCH  18  19
HETATM   19  C           1     -20.729  -8.613  -3.736  0.00  0.00    -0.056 A 
HETATM   20  C           1     -20.379  -8.246  -2.436  0.00  0.00     0.010 A 
HETATM   21  C           1     -20.893  -8.954  -1.350  0.00  0.00     0.038 A 
HETATM   22  C           1     -21.757 -10.028  -1.563  0.00  0.00     0.081 A 
HETATM   23  C           1     -22.106 -10.395  -2.862  0.00  0.00     0.038 A 
HETATM   24  C           1     -21.593  -9.687  -3.950  0.00  0.00     0.010 A 
BRANCH  22  25
HETATM   25  O           1     -22.257 -10.715  -0.507  0.00  0.00    -0.247 OA
BRANCH  25  26
HETATM   26  P           1     -21.237 -11.620   0.358  0.00  0.00     0.411 P 
HETATM   27  O           1     -20.509 -10.761   1.318  0.00  0.00    -0.624 OA
HETATM   28  O           1     -20.270 -12.277  -0.548  0.00  0.00    -0.624 OA
BRANCH  26  29
HETATM   29  O           1     -22.069 -12.745   1.166  0.00  0.00    -0.300 OA
HETATM   30  H           1     -22.214 -13.435   0.542  0.00  0.00     0.223 HD
ENDBRANCH  26  29
ENDBRANCH  25  26
ENDBRANCH  22  25
ENDBRANCH  18  19
ENDBRANCH   1  18
TORSDOF 11
ENDMDL
MODEL 9
REMARK VINA RESULT:      -6.4     14.740     16.934
REMARK  11 active torsions:
REMARK  status: ('A' for Active; 'I' for Inactive)
REMARK    1  A    between atoms: N_2  and  C_12 
REMARK       I    between atoms: N_2  and  C_3 
REMARK    2  A    between atoms: C_3  and  C_4 
REMARK    3  A    between atoms: C_4  and  C_9 
REMARK    4  A    between atoms: C_4  and  N_21 
REMARK    5  A    between atoms: O_7  and  P_23 
REMARK    6  A    between atoms: C_9  and  C_19 
REMARK    7  A    between atoms: C_12  and  C_26 
REMARK    8  A    between atoms: C_12  and  C_13 
REMARK    9  A    between atoms: C_13  and  C_14 
REMARK   10  A    between atoms: P_23  and  O_24 
REMARK   11  A    between atoms: O_24  and  C_25 
ROOT
HETATM    1  C           1     -20.250 -10.774  -2.780  0.00  0.00     0.189 C 
ENDROOT
BRANCH   1   2
HETATM    2  N           1     -19.980 -11.570  -1.598  0.00  0.00    -0.344 N 
HETATM    3  C           1     -21.018 -12.040  -0.838  0.00  0.00     0.249 C 
HETATM    4  O           1     -21.507 -13.117  -1.082  0.00  0.00    -0.271 OA
HETATM    5  H           1     -19.026 -11.779  -1.336  0.00  0.00     0.163 HD
BRANCH   3   6
HETATM    6  C           1     -21.552 -11.211   0.305  0.00  0.00     0.278 C 
BRANCH   6   7
HETATM    7  C           1     -22.404 -10.075  -0.246  0.00  0.00     0.021 C 
HETATM    8  C           1     -23.877 -10.387  -0.015  0.00  0.00     0.012 C 
BRANCH   7   9
HETATM    9  C           1     -22.042  -8.779   0.468  0.00  0.00     0.002 C 
HETATM   10  C           1     -23.141  -7.749   0.237  0.00  0.00     0.005 C 
ENDBRANCH   7   9
ENDBRANCH   6   7
BRANCH   6  11
HETATM   11  N           1     -20.406 -10.642   1.087  0.00  0.00    -0.066 N 
HETATM   12  H           1     -19.622 -10.407   0.436  0.00  0.00     0.275 HD
HETATM   13  H           1     -20.717  -9.777   1.583  0.00  0.00     0.275 HD
HETATM   14  H           1     -20.078 -11.346   1.787  0.00  0.00     0.275 HD
ENDBRANCH   6  11
ENDBRANCH   3   6
ENDBRANCH   1   2
BRANCH   1  15
HETATM   15  C           1     -19.874 -11.562  -4.011  0.00  0.00     0.197 C 
HETATM   16  O           1     -18.685 -11.901  -4.197  0.00  0.00    -0.646 OA
HETATM   17  O           1     -20.751 -11.876  -4.844  0.00  0.00    -0.646 OA
ENDBRANCH   1  15
BRANCH   1  18
HETATM   18  C           1     -19.428  -9.492  -2.727  0.00  0.00     0.074 C 
BRANCH  18  19
HETATM   19  C           1     -20.119  -8.424  -3.516  0.00  0.00    -0.056 A 
HETATM   20  C           1     -21.017  -7.561  -2.886  0.00  0.00     0.010 A 
HETATM   21  C           1     -21.660  -6.567  -3.622  0.00  0.00     0.038 A 
HETATM   22  C           1     -21.405  -6.434  -4.987  0.00  0.00     0.081 A 
HETATM   23  C           1     -20.508  -7.296  -5.616  0.00  0.00     0.038 A 
HETATM   24  C           1     -19.864  -8.291  -4.881  0.00  0.00     0.010 A 
BRANCH  22  25
HETATM   25  O           1     -22.031  -5.466  -5.702  0.00  0.00    -0.247 OA
BRANCH  25  26
HETATM   26  P           1     -21.175  -4.679  -6.823  0.00  0.00     0.411 P 
HETATM   27  O           1     -21.153  -5.471  -8.072  0.00  0.00    -0.624 OA
HETATM   28  O           1     -19.790  -4.483  -6.338  0.00  0.00    -0.624 OA
BRANCH  26  29
HETATM   29  O           1     -21.854  -3.242  -7.107  0.00  0.00    -0.300 OA
HETATM   30  H           1     -21.293  -2.618  -6.681  0.00  0.00     0.223 HD
ENDBRANCH  26  29
ENDBRANCH  25  26
ENDBRANCH  22  25
ENDBRANCH  18  19
ENDBRANCH   1  18
TORSDOF 11
ENDMDL
