MODEL 1
REMARK VINA RESULT:      -9.2      0.000      0.000
REMARK  9 active torsions:
REMARK  status: ('A' for Active; 'I' for Inactive)
REMARK    1  A    between atoms: O_3  and  C_27 
REMARK    2  A    between atoms: C_4  and  C_5 
REMARK    3  A    between atoms: C_5  and  C_23 
REMARK    4  A    between atoms: N_7  and  C_8 
REMARK    5  A    between atoms: C_8  and  C_32 
REMARK    6  A    between atoms: C_8  and  C_25 
REMARK    7  A    between atoms: C_10  and  C_25 
REMARK    8  A    between atoms: C_21  and  C_23 
REMARK    9  A    between atoms: C_23  and  N_26 
REMARK       I    between atoms: N_26  and  C_32 
ROOT
HETATM    1  H           1     -19.340  -7.501  -7.201  0.00  0.00     0.163 HD
HETATM    2  N           1     -19.755  -7.132  -6.354  0.00  0.00    -0.344 N 
HETATM    3  O           1     -19.462  -4.950  -5.982  0.00  0.00    -0.271 OA
HETATM    4  C           1     -20.206  -5.840  -6.319  0.00  0.00     0.249 C 
ENDROOT
BRANCH   2   5
HETATM    5  C           1     -19.871  -7.972  -5.178  0.00  0.00     0.190 C 
BRANCH   5   6
HETATM    6  C           1     -21.201  -8.713  -5.214  0.00  0.00     0.077 C 
BRANCH   6   7
HETATM    7  C           1     -21.513  -9.249  -3.851  0.00  0.00    -0.028 A 
HETATM    8  C           1     -21.575 -10.578  -3.497  0.00  0.00     0.096 A 
HETATM    9  N           1     -21.886 -10.641  -2.165  0.00  0.00    -0.365 N 
HETATM   10  H           1     -22.001 -11.530  -1.616  0.00  0.00     0.165 HD
HETATM   11  C           1     -22.027  -9.373  -1.647  0.00  0.00     0.042 A 
HETATM   12  C           1     -22.338  -8.957  -0.347  0.00  0.00     0.030 A 
HETATM   13  C           1     -21.796  -8.477  -2.691  0.00  0.00    -0.002 A 
HETATM   14  C           1     -22.414  -7.580  -0.112  0.00  0.00     0.002 A 
HETATM   15  C           1     -22.188  -6.662  -1.135  0.00  0.00     0.001 A 
HETATM   16  C           1     -21.879  -7.096  -2.428  0.00  0.00     0.014 A 
ENDBRANCH   6   7
ENDBRANCH   5   6
BRANCH   5  17
HETATM   17  C           1     -18.739  -8.970  -5.160  0.00  0.00     0.197 C 
HETATM   18  O           1     -18.339  -9.480  -6.228  0.00  0.00    -0.646 OA
HETATM   19  O           1     -18.201  -9.285  -4.077  0.00  0.00    -0.646 OA
ENDBRANCH   5  17
ENDBRANCH   2   5
BRANCH   4  20
HETATM   20  C           1     -21.632  -5.529  -6.703  0.00  0.00     0.278 C 
BRANCH  20  21
HETATM   21  N           1     -22.523  -5.721  -5.511  0.00  0.00    -0.066 N 
HETATM   22  H           1     -23.381  -5.134  -5.619  0.00  0.00     0.275 HD
HETATM   23  H           1     -22.796  -6.727  -5.441  0.00  0.00     0.275 HD
HETATM   24  H           1     -22.013  -5.436  -4.645  0.00  0.00     0.275 HD
ENDBRANCH  20  21
BRANCH  20  25
HETATM   25  C           1     -21.726  -4.084  -7.178  0.00  0.00     0.081 C 
BRANCH  25  26
HETATM   26  C           1     -21.742  -4.051  -8.675  0.00  0.00    -0.056 A 
HETATM   27  C           1     -22.957  -4.055  -9.360  0.00  0.00     0.010 A 
HETATM   28  C           1     -22.971  -4.025 -10.754  0.00  0.00     0.037 A 
HETATM   29  C           1     -21.771  -3.989 -11.463  0.00  0.00     0.065 A 
HETATM   30  C           1     -20.555  -3.985 -10.778  0.00  0.00     0.037 A 
HETATM   31  C           1     -20.541  -4.016  -9.384  0.00  0.00     0.010 A 
BRANCH  29  32
HETATM   32  O           1     -21.784  -3.959 -12.818  0.00  0.00    -0.361 OA
HETATM   33  H           1     -21.423  -3.104 -13.103  0.00  0.00     0.217 HD
ENDBRANCH  29  32
ENDBRANCH  25  26
ENDBRANCH  20  25
ENDBRANCH   4  20
TORSDOF 9
ENDMDL
MODEL 2
REMARK VINA RESULT:      -9.2      1.448      1.983
REMARK  9 active torsions:
REMARK  status: ('A' for Active; 'I' for Inactive)
REMARK    1  A    between atoms: O_3  and  C_27 
REMARK    2  A    between atoms: C_4  and  C_5 
REMARK    3  A    between atoms: C_5  and  C_23 
REMARK    4  A    between atoms: N_7  and  C_8 
REMARK    5  A    between atoms: C_8  and  C_32 
REMARK    6  A    between atoms: C_8  and  C_25 
REMARK    7  A    between atoms: C_10  and  C_25 
REMARK    8  A    between atoms: C_21  and  C_23 
REMARK    9  A    between atoms: C_23  and  N_26 
REMARK       I    between atoms: N_26  and  C_32 
ROOT
HETATM    1  H           1     -21.494  -7.929  -6.714  0.00  0.00     0.163 HD
HETATM    2  N           1     -20.780  -7.429  -6.200  0.00  0.00    -0.344 N 
HETATM    3  O           1     -19.152  -6.504  -7.417  0.00  0.00    -0.271 OA
HETATM    4  C           1     -20.158  -6.349  -6.766  0.00  0.00     0.249 C 
ENDROOT
BRANCH   2   5
HETATM    5  C           1     -20.417  -7.855  -4.862  0.00  0.00     0.190 C 
BRANCH   5   6
HETATM    6  C           1     -21.635  -8.457  -4.174  0.00  0.00     0.077 C 
BRANCH   6   7
HETATM    7  C           1     -21.782  -7.863  -2.807  0.00  0.00    -0.028 A 
HETATM    8  C           1     -22.185  -6.578  -2.521  0.00  0.00     0.096 A 
HETATM    9  N           1     -22.188  -6.435  -1.159  0.00  0.00    -0.365 N 
HETATM   10  H           1     -22.453  -5.556  -0.648  0.00  0.00     0.165 HD
HETATM   11  C           1     -21.794  -7.608  -0.555  0.00  0.00     0.042 A 
HETATM   12  C           1     -21.652  -7.924   0.801  0.00  0.00     0.030 A 
HETATM   13  C           1     -21.532  -8.525  -1.574  0.00  0.00    -0.002 A 
HETATM   14  C           1     -21.228  -9.218   1.122  0.00  0.00     0.002 A 
HETATM   15  C           1     -20.960 -10.154   0.126  0.00  0.00     0.001 A 
HETATM   16  C           1     -21.107  -9.821  -1.225  0.00  0.00     0.014 A 
ENDBRANCH   6   7
ENDBRANCH   5   6
BRANCH   5  17
HETATM   17  C           1     -19.322  -8.889  -4.945  0.00  0.00     0.197 C 
HETATM   18  O           1     -19.220  -9.611  -5.961  0.00  0.00    -0.646 OA
HETATM   19  O           1     -18.517  -9.024  -3.999  0.00  0.00    -0.646 OA
ENDBRANCH   5  17
ENDBRANCH   2   5
BRANCH   4  20
HETATM   20  C           1     -20.730  -4.965  -6.580  0.00  0.00     0.278 C 
BRANCH  20  21
HETATM   21  N           1     -20.306  -4.426  -5.245  0.00  0.00    -0.066 N 
HETATM   22  H           1     -21.099  -3.896  -4.816  0.00  0.00     0.275 HD
HETATM   23  H           1     -20.037  -5.219  -4.620  0.00  0.00     0.275 HD
HETATM   24  H           1     -19.489  -3.787  -5.371  0.00  0.00     0.275 HD
ENDBRANCH  20  21
BRANCH  20  25
HETATM   25  C           1     -20.215  -4.049  -7.683  0.00  0.00     0.081 C 
BRANCH  25  26
HETATM   26  C           1     -21.057  -4.222  -8.909  0.00  0.00    -0.056 A 
HETATM   27  C           1     -22.440  -4.363  -8.791  0.00  0.00     0.010 A 
HETATM   28  C           1     -23.224  -4.524  -9.933  0.00  0.00     0.037 A 
HETATM   29  C           1     -22.626  -4.544 -11.192  0.00  0.00     0.065 A 
HETATM   30  C           1     -21.243  -4.403 -11.310  0.00  0.00     0.037 A 
HETATM   31  C           1     -20.459  -4.242 -10.168  0.00  0.00     0.010 A 
BRANCH  29  32
HETATM   32  O           1     -23.387  -4.701 -12.303  0.00  0.00    -0.361 OA
HETATM   33  H           1     -22.918  -5.298 -12.907  0.00  0.00     0.217 HD
ENDBRANCH  29  32
ENDBRANCH  25  26
ENDBRANCH  20  25
ENDBRANCH   4  20
TORSDOF 9
ENDMDL
MODEL 3
REMARK VINA RESULT:      -8.9      1.730      2.524
REMARK  9 active torsions:
REMARK  status: ('A' for Active; 'I' for Inactive)
REMARK    1  A    between atoms: O_3  and  C_27 
REMARK    2  A    between atoms: C_4  and  C_5 
REMARK    3  A    between atoms: C_5  and  C_23 
REMARK    4  A    between atoms: N_7  and  C_8 
REMARK    5  A    between atoms: C_8  and  C_32 
REMARK    6  A    between atoms: C_8  and  C_25 
REMARK    7  A    between atoms: C_10  and  C_25 
REMARK    8  A    between atoms: C_21  and  C_23 
REMARK    9  A    between atoms: C_23  and  N_26 
REMARK       I    between atoms: N_26  and  C_32 
ROOT
HETATM    1  H           1     -19.696  -7.440  -5.626  0.00  0.00     0.163 HD
HETATM    2  N           1     -20.457  -6.946  -5.177  0.00  0.00    -0.344 N 
HETATM    3  O           1     -20.165  -4.754  -4.869  0.00  0.00    -0.271 OA
HETATM    4  C           1     -20.704  -5.637  -5.492  0.00  0.00     0.249 C 
ENDROOT
BRANCH   2   5
HETATM    5  C           1     -21.286  -7.625  -4.200  0.00  0.00     0.190 C 
BRANCH   5   6
HETATM    6  C           1     -20.536  -8.829  -3.647  0.00  0.00     0.077 C 
BRANCH   6   7
HETATM    7  C           1     -21.502  -9.940  -3.374  0.00  0.00    -0.028 A 
HETATM    8  C           1     -21.825 -10.963  -4.237  0.00  0.00     0.096 A 
HETATM    9  N           1     -22.741 -11.765  -3.609  0.00  0.00    -0.365 N 
HETATM   10  H           1     -23.172 -12.627  -4.028  0.00  0.00     0.165 HD
HETATM   11  C           1     -23.018 -11.279  -2.351  0.00  0.00     0.042 A 
HETATM   12  C           1     -23.882 -11.765  -1.363  0.00  0.00     0.030 A 
HETATM   13  C           1     -22.248 -10.127  -2.179  0.00  0.00    -0.002 A 
HETATM   14  C           1     -23.958 -11.051  -0.164  0.00  0.00     0.002 A 
HETATM   15  C           1     -23.201  -9.899   0.037  0.00  0.00     0.001 A 
HETATM   16  C           1     -22.343  -9.426  -0.962  0.00  0.00     0.014 A 
ENDBRANCH   6   7
ENDBRANCH   5   6
BRANCH   5  17
HETATM   17  C           1     -21.615  -6.676  -3.075  0.00  0.00     0.197 C 
HETATM   18  O           1     -22.690  -6.037  -3.090  0.00  0.00    -0.646 OA
HETATM   19  O           1     -20.815  -6.529  -2.126  0.00  0.00    -0.646 OA
ENDBRANCH   5  17
ENDBRANCH   2   5
BRANCH   4  20
HETATM   20  C           1     -21.649  -5.298  -6.619  0.00  0.00     0.278 C 
BRANCH  20  21
HETATM   21  N           1     -23.058  -5.295  -6.105  0.00  0.00    -0.066 N 
HETATM   22  H           1     -23.048  -5.211  -5.063  0.00  0.00     0.275 HD
HETATM   23  H           1     -23.576  -4.486  -6.515  0.00  0.00     0.275 HD
HETATM   24  H           1     -23.531  -6.186  -6.378  0.00  0.00     0.275 HD
ENDBRANCH  20  21
BRANCH  20  25
HETATM   25  C           1     -21.308  -3.919  -7.170  0.00  0.00     0.081 C 
BRANCH  25  26
HETATM   26  C           1     -21.443  -3.930  -8.661  0.00  0.00    -0.056 A 
HETATM   27  C           1     -20.325  -4.170  -9.461  0.00  0.00     0.010 A 
HETATM   28  C           1     -20.451  -4.180 -10.850  0.00  0.00     0.037 A 
HETATM   29  C           1     -21.694  -3.950 -11.439  0.00  0.00     0.065 A 
HETATM   30  C           1     -22.812  -3.710 -10.640  0.00  0.00     0.037 A 
HETATM   31  C           1     -22.686  -3.701  -9.251  0.00  0.00     0.010 A 
BRANCH  29  32
HETATM   32  O           1     -21.816  -3.960 -12.789  0.00  0.00    -0.361 OA
HETATM   33  H           1     -21.076  -4.471 -13.154  0.00  0.00     0.217 HD
ENDBRANCH  29  32
ENDBRANCH  25  26
ENDBRANCH  20  25
ENDBRANCH   4  20
TORSDOF 9
ENDMDL
MODEL 4
REMARK VINA RESULT:      -8.6      1.982      2.711
REMARK  9 active torsions:
REMARK  status: ('A' for Active; 'I' for Inactive)
REMARK    1  A    between atoms: O_3  and  C_27 
REMARK    2  A    between atoms: C_4  and  C_5 
REMARK    3  A    between atoms: C_5  and  C_23 
REMARK    4  A    between atoms: N_7  and  C_8 
REMARK    5  A    between atoms: C_8  and  C_32 
REMARK    6  A    between atoms: C_8  and  C_25 
REMARK    7  A    between atoms: C_10  and  C_25 
REMARK    8  A    between atoms: C_21  and  C_23 
REMARK    9  A    between atoms: C_23  and  N_26 
REMARK       I    between atoms: N_26  and  C_32 
ROOT
HETATM    1  H           1     -21.863  -8.051  -6.904  0.00  0.00     0.163 HD
HETATM    2  N           1     -21.305  -7.579  -6.204  0.00  0.00    -0.344 N 
HETATM    3  O           1     -19.158  -7.241  -6.720  0.00  0.00    -0.271 OA
HETATM    4  C           1     -20.265  -6.775  -6.587  0.00  0.00     0.249 C 
ENDROOT
BRANCH   2   5
HETATM    5  C           1     -21.606  -7.753  -4.797  0.00  0.00     0.190 C 
BRANCH   5   6
HETATM    6  C           1     -20.306  -7.848  -4.008  0.00  0.00     0.077 C 
BRANCH   6   7
HETATM    7  C           1     -20.332  -9.072  -3.146  0.00  0.00    -0.028 A 
HETATM    8  C           1     -20.059 -10.357  -3.556  0.00  0.00     0.096 A 
HETATM    9  N           1     -20.192 -11.179  -2.468  0.00  0.00    -0.365 N 
HETATM   10  H           1     -20.044 -12.220  -2.480  0.00  0.00     0.165 HD
HETATM   11  C           1     -20.548 -10.447  -1.357  0.00  0.00     0.042 A 
HETATM   12  C           1     -20.790 -10.860  -0.042  0.00  0.00     0.030 A 
HETATM   13  C           1     -20.643  -9.114  -1.760  0.00  0.00    -0.002 A 
HETATM   14  C           1     -21.140  -9.876   0.888  0.00  0.00     0.002 A 
HETATM   15  C           1     -21.241  -8.537   0.516  0.00  0.00     0.001 A 
HETATM   16  C           1     -20.996  -8.143  -0.804  0.00  0.00     0.014 A 
ENDBRANCH   6   7
ENDBRANCH   5   6
BRANCH   5  17
HETATM   17  C           1     -22.407  -6.573  -4.306  0.00  0.00     0.197 C 
HETATM   18  O           1     -23.388  -6.166  -4.966  0.00  0.00    -0.646 OA
HETATM   19  O           1     -22.093  -6.003  -3.239  0.00  0.00    -0.646 OA
ENDBRANCH   5  17
ENDBRANCH   2   5
BRANCH   4  20
HETATM   20  C           1     -20.501  -5.307  -6.846  0.00  0.00     0.278 C 
BRANCH  20  21
HETATM   21  N           1     -19.605  -4.494  -5.958  0.00  0.00    -0.066 N 
HETATM   22  H           1     -19.059  -3.818  -6.540  0.00  0.00     0.275 HD
HETATM   23  H           1     -20.186  -3.969  -5.266  0.00  0.00     0.275 HD
HETATM   24  H           1     -18.947  -5.128  -5.452  0.00  0.00     0.275 HD
ENDBRANCH  20  21
BRANCH  20  25
HETATM   25  C           1     -20.191  -4.992  -8.303  0.00  0.00     0.081 C 
BRANCH  25  26
HETATM   26  C           1     -21.438  -4.524  -8.989  0.00  0.00    -0.056 A 
HETATM   27  C           1     -21.434  -4.299 -10.366  0.00  0.00     0.010 A 
HETATM   28  C           1     -22.595  -3.864 -11.004  0.00  0.00     0.037 A 
HETATM   29  C           1     -23.760  -3.654 -10.266  0.00  0.00     0.065 A 
HETATM   30  C           1     -23.764  -3.879  -8.889  0.00  0.00     0.037 A 
HETATM   31  C           1     -22.602  -4.314  -8.251  0.00  0.00     0.010 A 
BRANCH  29  32
HETATM   32  O           1     -24.888  -3.231 -10.886  0.00  0.00    -0.361 OA
HETATM   33  H           1     -25.642  -3.696 -10.487  0.00  0.00     0.217 HD
ENDBRANCH  29  32
ENDBRANCH  25  26
ENDBRANCH  20  25
ENDBRANCH   4  20
TORSDOF 9
ENDMDL
MODEL 5
REMARK VINA RESULT:      -8.4      2.386      8.748
REMARK  9 active torsions:
REMARK  status: ('A' for Active; 'I' for Inactive)
REMARK    1  A    between atoms: O_3  and  C_27 
REMARK    2  A    between atoms: C_4  and  C_5 
REMARK    3  A    between atoms: C_5  and  C_23 
REMARK    4  A    between atoms: N_7  and  C_8 
REMARK    5  A    between atoms: C_8  and  C_32 
REMARK    6  A    between atoms: C_8  and  C_25 
REMARK    7  A    between atoms: C_10  and  C_25 
REMARK    8  A    between atoms: C_21  and  C_23 
REMARK    9  A    between atoms: C_23  and  N_26 
REMARK       I    between atoms: N_26  and  C_32 
ROOT
HETATM    1  H           1     -23.455  -6.447  -4.152  0.00  0.00     0.163 HD
HETATM    2  N           1     -22.466  -6.618  -4.282  0.00  0.00    -0.344 N 
HETATM    3  O           1     -21.101  -5.716  -2.762  0.00  0.00    -0.271 OA
HETATM    4  C           1     -21.637  -6.707  -3.196  0.00  0.00     0.249 C 
ENDROOT
BRANCH   2   5
HETATM    5  C           1     -21.925  -6.767  -5.619  0.00  0.00     0.190 C 
BRANCH   5   6
HETATM    6  C           1     -21.259  -5.465  -6.046  0.00  0.00     0.077 C 
BRANCH   6   7
HETATM    7  C           1     -22.034  -4.852  -7.170  0.00  0.00    -0.028 A 
HETATM    8  C           1     -23.350  -4.450  -7.123  0.00  0.00     0.096 A 
HETATM    9  N           1     -23.676  -3.943  -8.353  0.00  0.00    -0.365 N 
HETATM   10  H           1     -24.619  -3.559  -8.614  0.00  0.00     0.165 HD
HETATM   11  C           1     -22.592  -4.009  -9.200  0.00  0.00     0.042 A 
HETATM   12  C           1     -22.462  -3.613 -10.535  0.00  0.00     0.030 A 
HETATM   13  C           1     -21.543  -4.579  -8.476  0.00  0.00    -0.002 A 
HETATM   14  C           1     -21.219  -3.806 -11.148  0.00  0.00     0.002 A 
HETATM   15  C           1     -20.154  -4.371 -10.450  0.00  0.00     0.001 A 
HETATM   16  C           1     -20.302  -4.762  -9.115  0.00  0.00     0.014 A 
ENDBRANCH   6   7
ENDBRANCH   5   6
BRANCH   5  17
HETATM   17  C           1     -20.906  -7.880  -5.627  0.00  0.00     0.197 C 
HETATM   18  O           1     -21.282  -9.072  -5.594  0.00  0.00    -0.646 OA
HETATM   19  O           1     -19.686  -7.611  -5.669  0.00  0.00    -0.646 OA
ENDBRANCH   5  17
ENDBRANCH   2   5
BRANCH   4  20
HETATM   20  C           1     -21.397  -8.045  -2.539  0.00  0.00     0.278 C 
BRANCH  20  21
HETATM   21  N           1     -19.958  -8.433  -2.713  0.00  0.00    -0.066 N 
HETATM   22  H           1     -19.411  -7.606  -3.043  0.00  0.00     0.275 HD
HETATM   23  H           1     -19.574  -8.763  -1.798  0.00  0.00     0.275 HD
HETATM   24  H           1     -19.887  -9.201  -3.418  0.00  0.00     0.275 HD
ENDBRANCH  20  21
BRANCH  20  25
HETATM   25  C           1     -21.719  -7.947  -1.054  0.00  0.00     0.081 C 
BRANCH  25  26
HETATM   26  C           1     -21.925  -9.321  -0.496  0.00  0.00    -0.056 A 
HETATM   27  C           1     -23.129  -9.989  -0.716  0.00  0.00     0.010 A 
HETATM   28  C           1     -23.321 -11.269  -0.195  0.00  0.00     0.037 A 
HETATM   29  C           1     -22.309 -11.880   0.544  0.00  0.00     0.065 A 
HETATM   30  C           1     -21.105 -11.212   0.764  0.00  0.00     0.037 A 
HETATM   31  C           1     -20.913  -9.932   0.244  0.00  0.00     0.010 A 
BRANCH  29  32
HETATM   32  O           1     -22.495 -13.124   1.050  0.00  0.00    -0.361 OA
HETATM   33  H           1     -23.442 -13.333   0.993  0.00  0.00     0.217 HD
ENDBRANCH  29  32
ENDBRANCH  25  26
ENDBRANCH  20  25
ENDBRANCH   4  20
TORSDOF 9
ENDMDL
MODEL 6
REMARK VINA RESULT:      -8.3      2.426      4.303
REMARK  9 active torsions:
REMARK  status: ('A' for Active; 'I' for Inactive)
REMARK    1  A    between atoms: O_3  and  C_27 
REMARK    2  A    between atoms: C_4  and  C_5 
REMARK    3  A    between atoms: C_5  and  C_23 
REMARK    4  A    between atoms: N_7  and  C_8 
REMARK    5  A    between atoms: C_8  and  C_32 
REMARK    6  A    between atoms: C_8  and  C_25 
REMARK    7  A    between atoms: C_10  and  C_25 
REMARK    8  A    between atoms: C_21  and  C_23 
REMARK    9  A    between atoms: C_23  and  N_26 
REMARK       I    between atoms: N_26  and  C_32 
ROOT
HETATM    1  H           1     -20.813  -5.920  -2.552  0.00  0.00     0.163 HD
HETATM    2  N           1     -21.120  -6.619  -3.216  0.00  0.00    -0.344 N 
HETATM    3  O           1     -22.638  -5.956  -4.714  0.00  0.00    -0.271 OA
HETATM    4  C           1     -21.489  -6.246  -4.481  0.00  0.00     0.249 C 
ENDROOT
BRANCH   2   5
HETATM    5  C           1     -21.169  -8.016  -2.830  0.00  0.00     0.190 C 
BRANCH   5   6
HETATM    6  C           1     -19.750  -8.546  -2.666  0.00  0.00     0.077 C 
BRANCH   6   7
HETATM    7  C           1     -19.361  -9.320  -3.887  0.00  0.00    -0.028 A 
HETATM    8  C           1     -20.214  -9.762  -4.872  0.00  0.00     0.096 A 
HETATM    9  N           1     -19.464 -10.425  -5.807  0.00  0.00    -0.365 N 
HETATM   10  H           1     -19.847 -10.874  -6.677  0.00  0.00     0.165 HD
HETATM   11  C           1     -18.136 -10.421  -5.444  0.00  0.00     0.042 A 
HETATM   12  C           1     -17.021 -10.970  -6.087  0.00  0.00     0.030 A 
HETATM   13  C           1     -18.045  -9.729  -4.235  0.00  0.00    -0.002 A 
HETATM   14  C           1     -15.775 -10.805  -5.472  0.00  0.00     0.002 A 
HETATM   15  C           1     -15.654 -10.119  -4.266  0.00  0.00     0.001 A 
HETATM   16  C           1     -16.780  -9.577  -3.637  0.00  0.00     0.014 A 
ENDBRANCH   6   7
ENDBRANCH   5   6
BRANCH   5  17
HETATM   17  C           1     -21.911  -8.149  -1.523  0.00  0.00     0.197 C 
HETATM   18  O           1     -22.095  -9.280  -1.022  0.00  0.00    -0.646 OA
HETATM   19  O           1     -22.340  -7.130  -0.941  0.00  0.00    -0.646 OA
ENDBRANCH   5  17
ENDBRANCH   2   5
BRANCH   4  20
HETATM   20  C           1     -20.459  -6.195  -5.583  0.00  0.00     0.278 C 
BRANCH  20  21
HETATM   21  N           1     -20.989  -6.906  -6.794  0.00  0.00    -0.066 N 
HETATM   22  H           1     -21.678  -7.633  -6.496  0.00  0.00     0.275 HD
HETATM   23  H           1     -21.458  -6.217  -7.423  0.00  0.00     0.275 HD
HETATM   24  H           1     -20.199  -7.363  -7.303  0.00  0.00     0.275 HD
ENDBRANCH  20  21
BRANCH  20  25
HETATM   25  C           1     -20.166  -4.743  -5.937  0.00  0.00     0.081 C 
BRANCH  25  26
HETATM   26  C           1     -20.714  -4.440  -7.297  0.00  0.00    -0.056 A 
HETATM   27  C           1     -22.043  -4.041  -7.439  0.00  0.00     0.010 A 
HETATM   28  C           1     -22.555  -3.759  -8.706  0.00  0.00     0.037 A 
HETATM   29  C           1     -21.737  -3.876  -9.830  0.00  0.00     0.065 A 
HETATM   30  C           1     -20.408  -4.275  -9.688  0.00  0.00     0.037 A 
HETATM   31  C           1     -19.897  -4.557  -8.421  0.00  0.00     0.010 A 
BRANCH  29  32
HETATM   32  O           1     -22.233  -3.602 -11.061  0.00  0.00    -0.361 OA
HETATM   33  H           1     -21.903  -4.278 -11.675  0.00  0.00     0.217 HD
ENDBRANCH  29  32
ENDBRANCH  25  26
ENDBRANCH  20  25
ENDBRANCH   4  20
TORSDOF 9
ENDMDL
MODEL 7
REMARK VINA RESULT:      -8.3      1.596      2.178
REMARK  9 active torsions:
REMARK  status: ('A' for Active; 'I' for Inactive)
REMARK    1  A    between atoms: O_3  and  C_27 
REMARK    2  A    between atoms: C_4  and  C_5 
REMARK    3  A    between atoms: C_5  and  C_23 
REMARK    4  A    between atoms: N_7  and  C_8 
REMARK    5  A    between atoms: C_8  and  C_32 
REMARK    6  A    between atoms: C_8  and  C_25 
REMARK    7  A    between atoms: C_10  and  C_25 
REMARK    8  A    between atoms: C_21  and  C_23 
REMARK    9  A    between atoms: C_23  and  N_26 
REMARK       I    between atoms: N_26  and  C_32 
ROOT
HETATM    1  H           1     -21.458  -8.947  -3.882  0.00  0.00     0.163 HD
HETATM    2  N           1     -20.803  -8.411  -4.437  0.00  0.00    -0.344 N 
HETATM    3  O           1     -21.468  -7.871  -6.499  0.00  0.00    -0.271 OA
HETATM    4  C           1     -21.263  -7.514  -5.363  0.00  0.00     0.249 C 
ENDROOT
BRANCH   2   5
HETATM    5  C           1     -19.376  -8.592  -4.251  0.00  0.00     0.190 C 
BRANCH   5   6
HETATM    6  C           1     -19.109  -9.095  -2.839  0.00  0.00     0.077 C 
BRANCH   6   7
HETATM    7  C           1     -20.344  -9.745  -2.296  0.00  0.00    -0.028 A 
HETATM    8  C           1     -20.813 -10.996  -2.626  0.00  0.00     0.096 A 
HETATM    9  N           1     -21.962 -11.213  -1.914  0.00  0.00    -0.365 N 
HETATM   10  H           1     -22.543 -12.087  -1.962  0.00  0.00     0.165 HD
HETATM   11  C           1     -22.248 -10.121  -1.125  0.00  0.00     0.042 A 
HETATM   12  C           1     -23.309  -9.897  -0.241  0.00  0.00     0.030 A 
HETATM   13  C           1     -21.241  -9.181  -1.349  0.00  0.00    -0.002 A 
HETATM   14  C           1     -23.339  -8.672   0.435  0.00  0.00     0.002 A 
HETATM   15  C           1     -22.347  -7.715   0.232  0.00  0.00     0.001 A 
HETATM   16  C           1     -21.293  -7.956  -0.656  0.00  0.00     0.014 A 
ENDBRANCH   6   7
ENDBRANCH   5   6
BRANCH   5  17
HETATM   17  C           1     -18.863  -9.599  -5.250  0.00  0.00     0.197 C 
HETATM   18  O           1     -19.652 -10.412  -5.779  0.00  0.00    -0.646 OA
HETATM   19  O           1     -17.650  -9.619  -5.551  0.00  0.00    -0.646 OA
ENDBRANCH   5  17
ENDBRANCH   2   5
BRANCH   4  20
HETATM   20  C           1     -21.518  -6.081  -4.964  0.00  0.00     0.278 C 
BRANCH  20  21
HETATM   21  N           1     -21.511  -5.971  -3.468  0.00  0.00    -0.066 N 
HETATM   22  H           1     -22.298  -5.356  -3.160  0.00  0.00     0.275 HD
HETATM   23  H           1     -21.627  -6.922  -3.050  0.00  0.00     0.275 HD
HETATM   24  H           1     -20.604  -5.560  -3.152  0.00  0.00     0.275 HD
ENDBRANCH  20  21
BRANCH  20  25
HETATM   25  C           1     -20.425  -5.191  -5.542  0.00  0.00     0.081 C 
BRANCH  25  26
HETATM   26  C           1     -20.816  -4.751  -6.919  0.00  0.00    -0.056 A 
HETATM   27  C           1     -19.862  -4.712  -7.936  0.00  0.00     0.010 A 
HETATM   28  C           1     -20.226  -4.302  -9.218  0.00  0.00     0.037 A 
HETATM   29  C           1     -21.544  -3.931  -9.484  0.00  0.00     0.065 A 
HETATM   30  C           1     -22.498  -3.970  -8.467  0.00  0.00     0.037 A 
HETATM   31  C           1     -22.134  -4.380  -7.185  0.00  0.00     0.010 A 
BRANCH  29  32
HETATM   32  O           1     -21.898  -3.532 -10.730  0.00  0.00    -0.361 OA
HETATM   33  H           1     -21.929  -4.318 -11.299  0.00  0.00     0.217 HD
ENDBRANCH  29  32
ENDBRANCH  25  26
ENDBRANCH  20  25
ENDBRANCH   4  20
TORSDOF 9
ENDMDL
MODEL 8
REMARK VINA RESULT:      -7.9      4.187      7.913
REMARK  9 active torsions:
REMARK  status: ('A' for Active; 'I' for Inactive)
REMARK    1  A    between atoms: O_3  and  C_27 
REMARK    2  A    between atoms: C_4  and  C_5 
REMARK    3  A    between atoms: C_5  and  C_23 
REMARK    4  A    between atoms: N_7  and  C_8 
REMARK    5  A    between atoms: C_8  and  C_32 
REMARK    6  A    between atoms: C_8  and  C_25 
REMARK    7  A    between atoms: C_10  and  C_25 
REMARK    8  A    between atoms: C_21  and  C_23 
REMARK    9  A    between atoms: C_23  and  N_26 
REMARK       I    between atoms: N_26  and  C_32 
ROOT
HETATM    1  H           1     -19.112  -7.462  -4.342  0.00  0.00     0.163 HD
HETATM    2  N           1     -19.844  -8.145  -4.191  0.00  0.00    -0.344 N 
HETATM    3  O           1     -20.268  -9.527  -5.894  0.00  0.00    -0.271 OA
HETATM    4  C           1     -19.775  -9.369  -4.802  0.00  0.00     0.249 C 
ENDROOT
BRANCH   2   5
HETATM    5  C           1     -20.966  -7.828  -3.329  0.00  0.00     0.190 C 
BRANCH   5   6
HETATM    6  C           1     -20.520  -7.890  -1.874  0.00  0.00     0.077 C 
BRANCH   6   7
HETATM    7  C           1     -21.640  -8.413  -1.029  0.00  0.00    -0.028 A 
HETATM    8  C           1     -22.231  -7.758   0.027  0.00  0.00     0.096 A 
HETATM    9  N           1     -23.210  -8.574   0.529  0.00  0.00    -0.365 N 
HETATM   10  H           1     -23.831  -8.337   1.344  0.00  0.00     0.165 HD
HETATM   11  C           1     -23.264  -9.750  -0.185  0.00  0.00     0.042 A 
HETATM   12  C           1     -24.097 -10.863  -0.032  0.00  0.00     0.030 A 
HETATM   13  C           1     -22.282  -9.673  -1.174  0.00  0.00    -0.002 A 
HETATM   14  C           1     -23.920 -11.930  -0.920  0.00  0.00     0.002 A 
HETATM   15  C           1     -22.949 -11.880  -1.918  0.00  0.00     0.001 A 
HETATM   16  C           1     -22.124 -10.758  -2.056  0.00  0.00     0.014 A 
ENDBRANCH   6   7
ENDBRANCH   5   6
BRANCH   5  17
HETATM   17  C           1     -21.464  -6.439  -3.644  0.00  0.00     0.197 C 
HETATM   18  O           1     -20.947  -5.787  -4.576  0.00  0.00    -0.646 OA
HETATM   19  O           1     -22.395  -5.942  -2.974  0.00  0.00    -0.646 OA
ENDBRANCH   5  17
ENDBRANCH   2   5
BRANCH   4  20
HETATM   20  C           1     -19.081 -10.518  -4.113  0.00  0.00     0.278 C 
BRANCH  20  21
HETATM   21  N           1     -18.799 -11.601  -5.112  0.00  0.00    -0.066 N 
HETATM   22  H           1     -17.766 -11.714  -5.221  0.00  0.00     0.275 HD
HETATM   23  H           1     -19.215 -12.499  -4.777  0.00  0.00     0.275 HD
HETATM   24  H           1     -19.220 -11.344  -6.033  0.00  0.00     0.275 HD
ENDBRANCH  20  21
BRANCH  20  25
HETATM   25  C           1     -17.770 -10.032  -3.509  0.00  0.00     0.081 C 
BRANCH  25  26
HETATM   26  C           1     -17.503 -10.771  -2.235  0.00  0.00    -0.056 A 
HETATM   27  C           1     -16.190 -10.983  -1.814  0.00  0.00     0.010 A 
HETATM   28  C           1     -15.941 -11.672  -0.627  0.00  0.00     0.037 A 
HETATM   29  C           1     -17.004 -12.148   0.138  0.00  0.00     0.065 A 
HETATM   30  C           1     -18.317 -11.937  -0.282  0.00  0.00     0.037 A 
HETATM   31  C           1     -18.566 -11.248  -1.469  0.00  0.00     0.010 A 
BRANCH  29  32
HETATM   32  O           1     -16.763 -12.818   1.292  0.00  0.00    -0.361 OA
HETATM   33  H           1     -17.148 -13.706   1.210  0.00  0.00     0.217 HD
ENDBRANCH  29  32
ENDBRANCH  25  26
ENDBRANCH  20  25
ENDBRANCH   4  20
TORSDOF 9
ENDMDL
MODEL 9
REMARK VINA RESULT:      -7.9      4.886      7.033
REMARK  9 active torsions:
REMARK  status: ('A' for Active; 'I' for Inactive)
REMARK    1  A    between atoms: O_3  and  C_27 
REMARK    2  A    between atoms: C_4  and  C_5 
REMARK    3  A    between atoms: C_5  and  C_23 
REMARK    4  A    between atoms: N_7  and  C_8 
REMARK    5  A    between atoms: C_8  and  C_32 
REMARK    6  A    between atoms: C_8  and  C_25 
REMARK    7  A    between atoms: C_10  and  C_25 
REMARK    8  A    between atoms: C_21  and  C_23 
REMARK    9  A    between atoms: C_23  and  N_26 
REMARK       I    between atoms: N_26  and  C_32 
ROOT
HETATM    1  H           1     -17.924 -11.928  -4.351  0.00  0.00     0.163 HD
HETATM    2  N           1     -18.352 -11.055  -4.632  0.00  0.00    -0.344 N 
HETATM    3  O           1     -18.807 -10.834  -6.808  0.00  0.00    -0.271 OA
HETATM    4  C           1     -19.222 -11.028  -5.690  0.00  0.00     0.249 C 
ENDROOT
BRANCH   2   5
HETATM    5  C           1     -18.046  -9.833  -3.914  0.00  0.00     0.190 C 
BRANCH   5   6
HETATM    6  C           1     -18.680  -9.885  -2.531  0.00  0.00     0.077 C 
BRANCH   6   7
HETATM    7  C           1     -19.825  -8.922  -2.467  0.00  0.00    -0.028 A 
HETATM    8  C           1     -20.290  -8.146  -3.504  0.00  0.00     0.096 A 
HETATM    9  N           1     -21.344  -7.409  -3.035  0.00  0.00    -0.365 N 
HETATM   10  H           1     -21.899  -6.723  -3.605  0.00  0.00     0.165 HD
HETATM   11  C           1     -21.571  -7.693  -1.706  0.00  0.00     0.042 A 
HETATM   12  C           1     -22.532  -7.186  -0.825  0.00  0.00     0.030 A 
HETATM   13  C           1     -20.625  -8.646  -1.325  0.00  0.00    -0.002 A 
HETATM   14  C           1     -22.522  -7.669   0.488  0.00  0.00     0.002 A 
HETATM   15  C           1     -21.591  -8.621   0.897  0.00  0.00     0.001 A 
HETATM   16  C           1     -20.637  -9.117   0.002  0.00  0.00     0.014 A 
ENDBRANCH   6   7
ENDBRANCH   5   6
BRANCH   5  17
HETATM   17  C           1     -16.551  -9.691  -3.778  0.00  0.00     0.197 C 
HETATM   18  O           1     -16.055  -9.307  -2.697  0.00  0.00    -0.646 OA
HETATM   19  O           1     -15.806  -9.959  -4.746  0.00  0.00    -0.646 OA
ENDBRANCH   5  17
ENDBRANCH   2   5
BRANCH   4  20
HETATM   20  C           1     -20.698 -11.242  -5.459  0.00  0.00     0.278 C 
BRANCH  20  21
HETATM   21  N           1     -21.388 -11.421  -6.779  0.00  0.00    -0.066 N 
HETATM   22  H           1     -21.008 -10.731  -7.466  0.00  0.00     0.275 HD
HETATM   23  H           1     -21.221 -12.390  -7.130  0.00  0.00     0.275 HD
HETATM   24  H           1     -22.414 -11.264  -6.660  0.00  0.00     0.275 HD
ENDBRANCH  20  21
BRANCH  20  25
HETATM   25  C           1     -20.903 -12.489  -4.607  0.00  0.00     0.081 C 
BRANCH  25  26
HETATM   26  C           1     -21.675 -12.130  -3.375  0.00  0.00    -0.056 A 
HETATM   27  C           1     -21.371 -12.744  -2.160  0.00  0.00     0.010 A 
HETATM   28  C           1     -22.091 -12.410  -1.012  0.00  0.00     0.037 A 
HETATM   29  C           1     -23.113 -11.464  -1.081  0.00  0.00     0.065 A 
HETATM   30  C           1     -23.416 -10.850  -2.296  0.00  0.00     0.037 A 
HETATM   31  C           1     -22.696 -11.184  -3.444  0.00  0.00     0.010 A 
BRANCH  29  32
HETATM   32  O           1     -23.812 -11.139   0.034  0.00  0.00    -0.361 OA
HETATM   33  H           1     -24.686 -11.558  -0.027  0.00  0.00     0.217 HD
ENDBRANCH  29  32
ENDBRANCH  25  26
ENDBRANCH  20  25
ENDBRANCH   4  20
TORSDOF 9
ENDMDL
