MODEL 1
REMARK VINA RESULT:      -6.5      0.000      0.000
REMARK  10 active torsions:
REMARK  status: ('A' for Active; 'I' for Inactive)
REMARK       I    between atoms: C_1  and  N_6 
REMARK    1  A    between atoms: C_1  and  C_2 
REMARK    2  A    between atoms: C_2  and  C_26 
REMARK    3  A    between atoms: C_2  and  N_17 
REMARK    4  A    between atoms: N_6  and  C_10 
REMARK    5  A    between atoms: C_7  and  C_16 
REMARK    6  A    between atoms: C_7  and  N_8 
REMARK    7  A    between atoms: C_9  and  C_24 
REMARK    8  A    between atoms: C_9  and  C_10 
REMARK    9  A    between atoms: C_10  and  C_25 
REMARK       I    between atoms: N_13  and  C_24 
REMARK   10  A    between atoms: C_16  and  C_26 
ROOT
HETATM    1  C           1     -34.231  -2.616 -12.024  0.00  0.00     0.249 C 
HETATM    2  H           1     -35.698  -2.012 -13.353  0.00  0.00     0.163 HD
HETATM    3  N           1     -35.083  -1.716 -12.606  0.00  0.00    -0.344 N 
HETATM    4  O           1     -33.497  -2.263 -11.132  0.00  0.00    -0.271 OA
ENDROOT
BRANCH   1   5
HETATM    5  C           1     -34.209  -4.049 -12.496  0.00  0.00     0.274 C 
BRANCH   5   6
HETATM    6  C           1     -33.396  -4.892 -11.523  0.00  0.00     0.044 C 
BRANCH   6   7
HETATM    7  C           1     -34.321  -5.487 -10.469  0.00  0.00     0.030 C 
BRANCH   7   8
HETATM    8  C           1     -34.374  -7.000 -10.635  0.00  0.00     0.230 C 
BRANCH   8   9
HETATM    9  N           1     -35.087  -7.608  -9.465  0.00  0.00    -0.079 N 
HETATM   10  H           1     -35.630  -6.869  -8.964  0.00  0.00     0.274 HD
HETATM   11  H           1     -35.739  -8.353  -9.801  0.00  0.00     0.274 HD
HETATM   12  H           1     -34.387  -8.029  -8.811  0.00  0.00     0.274 HD
ENDBRANCH   8   9
ENDBRANCH   7   8
ENDBRANCH   6   7
ENDBRANCH   5   6
BRANCH   5  13
HETATM   13  N           1     -33.584  -4.116 -13.858  0.00  0.00    -0.067 N 
HETATM   14  H           1     -34.168  -3.578 -14.537  0.00  0.00     0.275 HD
HETATM   15  H           1     -33.523  -5.113 -14.164  0.00  0.00     0.275 HD
HETATM   16  H           1     -32.624  -3.705 -13.822  0.00  0.00     0.275 HD
ENDBRANCH   5  13
ENDBRANCH   1   5
BRANCH   3  17
HETATM   17  C           1     -35.104  -0.339 -12.152  0.00  0.00     0.194 C 
BRANCH  17  18
HETATM   18  C           1     -34.968   0.591 -13.350  0.00  0.00     0.138 C 
BRANCH  18  19
HETATM   19  C           1     -35.713   0.011 -14.526  0.00  0.00     0.217 C 
HETATM   20  N           1     -37.003   0.394 -14.777  0.00  0.00    -0.370 N 
HETATM   21  H           1     -37.503   0.005 -15.566  0.00  0.00     0.159 HD
HETATM   22  H           1     -37.458   1.067 -14.173  0.00  0.00     0.159 HD
HETATM   23  O           1     -35.171  -0.792 -15.247  0.00  0.00    -0.274 OA
ENDBRANCH  18  19
ENDBRANCH  17  18
BRANCH  17  24
HETATM   24  C           1     -36.409  -0.064 -11.446  0.00  0.00     0.197 C 
HETATM   25  O           1     -36.431   0.685 -10.444  0.00  0.00    -0.646 OA
HETATM   26  O           1     -37.467  -0.584 -11.861  0.00  0.00    -0.646 OA
ENDBRANCH  17  24
ENDBRANCH   3  17
TORSDOF 10
ENDMDL
MODEL 2
REMARK VINA RESULT:      -6.2     12.605     14.271
REMARK  10 active torsions:
REMARK  status: ('A' for Active; 'I' for Inactive)
REMARK       I    between atoms: C_1  and  N_6 
REMARK    1  A    between atoms: C_1  and  C_2 
REMARK    2  A    between atoms: C_2  and  C_26 
REMARK    3  A    between atoms: C_2  and  N_17 
REMARK    4  A    between atoms: N_6  and  C_10 
REMARK    5  A    between atoms: C_7  and  C_16 
REMARK    6  A    between atoms: C_7  and  N_8 
REMARK    7  A    between atoms: C_9  and  C_24 
REMARK    8  A    between atoms: C_9  and  C_10 
REMARK    9  A    between atoms: C_10  and  C_25 
REMARK       I    between atoms: N_13  and  C_24 
REMARK   10  A    between atoms: C_16  and  C_26 
ROOT
HETATM    1  C           1     -21.735  -4.752  -7.617  0.00  0.00     0.249 C 
HETATM    2  H           1     -22.379  -5.926  -9.195  0.00  0.00     0.163 HD
HETATM    3  N           1     -22.298  -4.980  -8.843  0.00  0.00    -0.344 N 
HETATM    4  O           1     -21.639  -3.623  -7.197  0.00  0.00    -0.271 OA
ENDROOT
BRANCH   1   5
HETATM    5  C           1     -21.236  -5.910  -6.788  0.00  0.00     0.274 C 
BRANCH   5   6
HETATM    6  C           1     -21.180  -5.499  -5.323  0.00  0.00     0.044 C 
BRANCH   6   7
HETATM    7  C           1     -22.000  -6.475  -4.489  0.00  0.00     0.030 C 
BRANCH   7   8
HETATM    8  C           1     -21.426  -6.547  -3.081  0.00  0.00     0.230 C 
BRANCH   8   9
HETATM    9  N           1     -22.368  -5.884  -2.120  0.00  0.00    -0.079 N 
HETATM   10  H           1     -22.294  -4.847  -2.219  0.00  0.00     0.274 HD
HETATM   11  H           1     -23.347  -6.186  -2.327  0.00  0.00     0.274 HD
HETATM   12  H           1     -22.119  -6.160  -1.143  0.00  0.00     0.274 HD
ENDBRANCH   8   9
ENDBRANCH   7   8
ENDBRANCH   6   7
ENDBRANCH   5   6
BRANCH   5  13
HETATM   13  N           1     -19.863  -6.299  -7.251  0.00  0.00    -0.067 N 
HETATM   14  H           1     -19.217  -6.337  -6.431  0.00  0.00     0.275 HD
HETATM   15  H           1     -19.515  -5.594  -7.938  0.00  0.00     0.275 HD
HETATM   16  H           1     -19.902  -7.239  -7.706  0.00  0.00     0.275 HD
ENDBRANCH   5  13
ENDBRANCH   1   5
BRANCH   3  17
HETATM   17  C           1     -22.778  -3.868  -9.640  0.00  0.00     0.194 C 
BRANCH  17  18
HETATM   18  C           1     -22.255  -4.001 -11.064  0.00  0.00     0.138 C 
BRANCH  18  19
HETATM   19  C           1     -20.754  -3.846 -11.066  0.00  0.00     0.217 C 
HETATM   20  N           1     -20.187  -2.670 -11.476  0.00  0.00    -0.370 N 
HETATM   21  H           1     -19.181  -2.567 -11.477  0.00  0.00     0.159 HD
HETATM   22  H           1     -20.775  -1.903 -11.778  0.00  0.00     0.159 HD
HETATM   23  O           1     -20.053  -4.761 -10.706  0.00  0.00    -0.274 OA
ENDBRANCH  18  19
ENDBRANCH  17  18
BRANCH  17  24
HETATM   24  C           1     -24.287  -3.875  -9.655  0.00  0.00     0.197 C 
HETATM   25  O           1     -24.906  -4.951  -9.809  0.00  0.00    -0.646 OA
HETATM   26  O           1     -24.919  -2.806  -9.513  0.00  0.00    -0.646 OA
ENDBRANCH  17  24
ENDBRANCH   3  17
TORSDOF 10
ENDMDL
MODEL 3
REMARK VINA RESULT:      -5.6     14.299     16.853
REMARK  10 active torsions:
REMARK  status: ('A' for Active; 'I' for Inactive)
REMARK       I    between atoms: C_1  and  N_6 
REMARK    1  A    between atoms: C_1  and  C_2 
REMARK    2  A    between atoms: C_2  and  C_26 
REMARK    3  A    between atoms: C_2  and  N_17 
REMARK    4  A    between atoms: N_6  and  C_10 
REMARK    5  A    between atoms: C_7  and  C_16 
REMARK    6  A    between atoms: C_7  and  N_8 
REMARK    7  A    between atoms: C_9  and  C_24 
REMARK    8  A    between atoms: C_9  and  C_10 
REMARK    9  A    between atoms: C_10  and  C_25 
REMARK       I    between atoms: N_13  and  C_24 
REMARK   10  A    between atoms: C_16  and  C_26 
ROOT
HETATM    1  C           1     -21.453  -5.738  -5.704  0.00  0.00     0.249 C 
HETATM    2  H           1     -19.901  -6.789  -4.828  0.00  0.00     0.163 HD
HETATM    3  N           1     -20.903  -6.649  -4.844  0.00  0.00    -0.344 N 
HETATM    4  O           1     -22.649  -5.571  -5.724  0.00  0.00    -0.271 OA
ENDROOT
BRANCH   1   5
HETATM    5  C           1     -20.565  -4.942  -6.629  0.00  0.00     0.274 C 
BRANCH   5   6
HETATM    6  C           1     -21.385  -3.853  -7.308  0.00  0.00     0.044 C 
BRANCH   6   7
HETATM    7  C           1     -21.464  -4.132  -8.803  0.00  0.00     0.030 C 
BRANCH   7   8
HETATM    8  C           1     -22.918  -4.336  -9.206  0.00  0.00     0.230 C 
BRANCH   8   9
HETATM    9  N           1     -23.809  -4.030  -8.038  0.00  0.00    -0.079 N 
HETATM   10  H           1     -24.801  -4.237  -8.292  0.00  0.00     0.274 HD
HETATM   11  H           1     -23.528  -4.619  -7.221  0.00  0.00     0.274 HD
HETATM   12  H           1     -23.717  -3.020  -7.785  0.00  0.00     0.274 HD
ENDBRANCH   8   9
ENDBRANCH   7   8
ENDBRANCH   6   7
ENDBRANCH   5   6
BRANCH   5  13
HETATM   13  N           1     -19.985  -5.853  -7.671  0.00  0.00    -0.067 N 
HETATM   14  H           1     -19.735  -6.768  -7.233  0.00  0.00     0.275 HD
HETATM   15  H           1     -19.129  -5.414  -8.078  0.00  0.00     0.275 HD
HETATM   16  H           1     -20.689  -6.009  -8.427  0.00  0.00     0.275 HD
ENDBRANCH   5  13
ENDBRANCH   1   5
BRANCH   3  17
HETATM   17  C           1     -21.756  -7.414  -3.955  0.00  0.00     0.194 C 
BRANCH  17  18
HETATM   18  C           1     -21.340  -8.879  -3.989  0.00  0.00     0.138 C 
BRANCH  18  19
HETATM   19  C           1     -19.931  -8.990  -4.518  0.00  0.00     0.217 C 
HETATM   20  N           1     -18.874  -9.032  -3.649  0.00  0.00    -0.370 N 
HETATM   21  H           1     -17.930  -9.107  -4.004  0.00  0.00     0.159 HD
HETATM   22  H           1     -19.038  -8.988  -2.651  0.00  0.00     0.159 HD
HETATM   23  O           1     -19.736  -9.043  -5.709  0.00  0.00    -0.274 OA
ENDBRANCH  18  19
ENDBRANCH  17  18
BRANCH  17  24
HETATM   24  C           1     -21.620  -6.884  -2.549  0.00  0.00     0.197 C 
HETATM   25  O           1     -22.286  -5.890  -2.188  0.00  0.00    -0.646 OA
HETATM   26  O           1     -20.841  -7.440  -1.744  0.00  0.00    -0.646 OA
ENDBRANCH  17  24
ENDBRANCH   3  17
TORSDOF 10
ENDMDL
MODEL 4
REMARK VINA RESULT:      -5.6      3.642      6.042
REMARK  10 active torsions:
REMARK  status: ('A' for Active; 'I' for Inactive)
REMARK       I    between atoms: C_1  and  N_6 
REMARK    1  A    between atoms: C_1  and  C_2 
REMARK    2  A    between atoms: C_2  and  C_26 
REMARK    3  A    between atoms: C_2  and  N_17 
REMARK    4  A    between atoms: N_6  and  C_10 
REMARK    5  A    between atoms: C_7  and  C_16 
REMARK    6  A    between atoms: C_7  and  N_8 
REMARK    7  A    between atoms: C_9  and  C_24 
REMARK    8  A    between atoms: C_9  and  C_10 
REMARK    9  A    between atoms: C_10  and  C_25 
REMARK       I    between atoms: N_13  and  C_24 
REMARK   10  A    between atoms: C_16  and  C_26 
ROOT
HETATM    1  C           1     -33.825  -4.488 -15.449  0.00  0.00     0.249 C 
HETATM    2  H           1     -32.314  -3.739 -14.250  0.00  0.00     0.163 HD
HETATM    3  N           1     -33.279  -4.043 -14.275  0.00  0.00    -0.344 N 
HETATM    4  O           1     -34.977  -4.852 -15.480  0.00  0.00    -0.271 OA
ENDROOT
BRANCH   1   5
HETATM    5  C           1     -32.989  -4.523 -16.704  0.00  0.00     0.274 C 
BRANCH   5   6
HETATM    6  C           1     -31.526  -4.734 -16.335  0.00  0.00     0.044 C 
BRANCH   6   7
HETATM    7  C           1     -30.937  -5.840 -17.201  0.00  0.00     0.030 C 
BRANCH   7   8
HETATM    8  C           1     -29.602  -5.381 -17.772  0.00  0.00     0.230 C 
BRANCH   8   9
HETATM    9  N           1     -29.746  -3.998 -18.334  0.00  0.00    -0.079 N 
HETATM   10  H           1     -30.751  -3.713 -18.306  0.00  0.00     0.274 HD
HETATM   11  H           1     -29.178  -3.329 -17.765  0.00  0.00     0.274 HD
HETATM   12  H           1     -29.408  -3.987 -19.323  0.00  0.00     0.274 HD
ENDBRANCH   8   9
ENDBRANCH   7   8
ENDBRANCH   6   7
ENDBRANCH   5   6
BRANCH   5  13
HETATM   13  N           1     -33.136  -3.224 -17.439  0.00  0.00    -0.067 N 
HETATM   14  H           1     -33.780  -3.354 -18.251  0.00  0.00     0.275 HD
HETATM   15  H           1     -32.200  -2.911 -17.783  0.00  0.00     0.275 HD
HETATM   16  H           1     -33.530  -2.501 -16.795  0.00  0.00     0.275 HD
ENDBRANCH   5  13
ENDBRANCH   1   5
BRANCH   3  17
HETATM   17  C           1     -34.082  -4.009 -13.069  0.00  0.00     0.194 C 
BRANCH  17  18
HETATM   18  C           1     -33.258  -4.525 -11.896  0.00  0.00     0.138 C 
BRANCH  18  19
HETATM   19  C           1     -34.087  -5.488 -11.083  0.00  0.00     0.217 C 
HETATM   20  N           1     -33.669  -6.781 -10.916  0.00  0.00    -0.370 N 
HETATM   21  H           1     -34.225  -7.427 -10.370  0.00  0.00     0.159 HD
HETATM   22  H           1     -32.803  -7.091 -11.338  0.00  0.00     0.159 HD
HETATM   23  O           1     -35.121  -5.119 -10.578  0.00  0.00    -0.274 OA
ENDBRANCH  18  19
ENDBRANCH  17  18
BRANCH  17  24
HETATM   24  C           1     -34.516  -2.590 -12.794  0.00  0.00     0.197 C 
HETATM   25  O           1     -35.095  -1.930 -13.684  0.00  0.00    -0.646 OA
HETATM   26  O           1     -34.296  -2.075 -11.676  0.00  0.00    -0.646 OA
ENDBRANCH  17  24
ENDBRANCH   3  17
TORSDOF 10
ENDMDL
MODEL 5
REMARK VINA RESULT:      -5.6     12.406     14.166
REMARK  10 active torsions:
REMARK  status: ('A' for Active; 'I' for Inactive)
REMARK       I    between atoms: C_1  and  N_6 
REMARK    1  A    between atoms: C_1  and  C_2 
REMARK    2  A    between atoms: C_2  and  C_26 
REMARK    3  A    between atoms: C_2  and  N_17 
REMARK    4  A    between atoms: N_6  and  C_10 
REMARK    5  A    between atoms: C_7  and  C_16 
REMARK    6  A    between atoms: C_7  and  N_8 
REMARK    7  A    between atoms: C_9  and  C_24 
REMARK    8  A    between atoms: C_9  and  C_10 
REMARK    9  A    between atoms: C_10  and  C_25 
REMARK       I    between atoms: N_13  and  C_24 
REMARK   10  A    between atoms: C_16  and  C_26 
ROOT
HETATM    1  C           1     -21.310  -4.685  -8.270  0.00  0.00     0.249 C 
HETATM    2  H           1     -22.948  -3.615  -8.945  0.00  0.00     0.163 HD
HETATM    3  N           1     -22.180  -4.216  -9.217  0.00  0.00    -0.344 N 
HETATM    4  O           1     -20.394  -5.402  -8.593  0.00  0.00    -0.271 OA
ENDROOT
BRANCH   1   5
HETATM    5  C           1     -21.495  -4.304  -6.821  0.00  0.00     0.274 C 
BRANCH   5   6
HETATM    6  C           1     -20.510  -5.085  -5.961  0.00  0.00     0.044 C 
BRANCH   6   7
HETATM    7  C           1     -21.274  -6.038  -5.050  0.00  0.00     0.030 C 
BRANCH   7   8
HETATM    8  C           1     -21.173  -7.455  -5.598  0.00  0.00     0.230 C 
BRANCH   8   9
HETATM    9  N           1     -19.729  -7.843  -5.718  0.00  0.00    -0.079 N 
HETATM   10  H           1     -19.635  -8.877  -5.599  0.00  0.00     0.274 HD
HETATM   11  H           1     -19.370  -7.567  -6.661  0.00  0.00     0.274 HD
HETATM   12  H           1     -19.174  -7.355  -4.979  0.00  0.00     0.274 HD
ENDBRANCH   8   9
ENDBRANCH   7   8
ENDBRANCH   6   7
ENDBRANCH   5   6
BRANCH   5  13
HETATM   13  N           1     -22.896  -4.629  -6.395  0.00  0.00    -0.067 N 
HETATM   14  H           1     -22.907  -5.552  -5.905  0.00  0.00     0.275 HD
HETATM   15  H           1     -23.514  -4.672  -7.236  0.00  0.00     0.275 HD
HETATM   16  H           1     -23.244  -3.887  -5.746  0.00  0.00     0.275 HD
ENDBRANCH   5  13
ENDBRANCH   1   5
BRANCH   3  17
HETATM   17  C           1     -22.002  -4.582 -10.608  0.00  0.00     0.194 C 
BRANCH  17  18
HETATM   18  C           1     -23.364  -4.680 -11.284  0.00  0.00     0.138 C 
BRANCH  18  19
HETATM   19  C           1     -24.408  -4.028 -10.413  0.00  0.00     0.217 C 
HETATM   20  N           1     -25.145  -4.785  -9.542  0.00  0.00    -0.370 N 
HETATM   21  H           1     -25.845  -4.346  -8.958  0.00  0.00     0.159 HD
HETATM   22  H           1     -24.989  -5.783  -9.483  0.00  0.00     0.159 HD
HETATM   23  O           1     -24.594  -2.836 -10.483  0.00  0.00    -0.274 OA
ENDBRANCH  18  19
ENDBRANCH  17  18
BRANCH  17  24
HETATM   24  C           1     -21.171  -3.530 -11.302  0.00  0.00     0.197 C 
HETATM   25  O           1     -21.719  -2.508 -11.769  0.00  0.00    -0.646 OA
HETATM   26  O           1     -19.935  -3.681 -11.408  0.00  0.00    -0.646 OA
ENDBRANCH  17  24
ENDBRANCH   3  17
TORSDOF 10
ENDMDL
MODEL 6
REMARK VINA RESULT:      -5.4      5.828      8.644
REMARK  10 active torsions:
REMARK  status: ('A' for Active; 'I' for Inactive)
REMARK       I    between atoms: C_1  and  N_6 
REMARK    1  A    between atoms: C_1  and  C_2 
REMARK    2  A    between atoms: C_2  and  C_26 
REMARK    3  A    between atoms: C_2  and  N_17 
REMARK    4  A    between atoms: N_6  and  C_10 
REMARK    5  A    between atoms: C_7  and  C_16 
REMARK    6  A    between atoms: C_7  and  N_8 
REMARK    7  A    between atoms: C_9  and  C_24 
REMARK    8  A    between atoms: C_9  and  C_10 
REMARK    9  A    between atoms: C_10  and  C_25 
REMARK       I    between atoms: N_13  and  C_24 
REMARK   10  A    between atoms: C_16  and  C_26 
ROOT
HETATM    1  C           1     -32.187  -4.399 -16.887  0.00  0.00     0.249 C 
HETATM    2  H           1     -32.299  -6.430 -16.509  0.00  0.00     0.163 HD
HETATM    3  N           1     -31.704  -5.678 -16.834  0.00  0.00    -0.344 N 
HETATM    4  O           1     -31.478  -3.501 -17.274  0.00  0.00    -0.271 OA
ENDROOT
BRANCH   1   5
HETATM    5  C           1     -33.606  -4.109 -16.463  0.00  0.00     0.274 C 
BRANCH   5   6
HETATM    6  C           1     -34.026  -2.744 -16.991  0.00  0.00     0.044 C 
BRANCH   6   7
HETATM    7  C           1     -35.266  -2.269 -16.244  0.00  0.00     0.030 C 
BRANCH   7   8
HETATM    8  C           1     -35.691  -0.908 -16.779  0.00  0.00     0.230 C 
BRANCH   8   9
HETATM    9  N           1     -37.181  -0.773 -16.679  0.00  0.00    -0.079 N 
HETATM   10  H           1     -37.482  -0.951 -15.694  0.00  0.00     0.274 HD
HETATM   11  H           1     -37.464   0.193 -16.961  0.00  0.00     0.274 HD
HETATM   12  H           1     -37.637  -1.468 -17.314  0.00  0.00     0.274 HD
ENDBRANCH   8   9
ENDBRANCH   7   8
ENDBRANCH   6   7
ENDBRANCH   5   6
BRANCH   5  13
HETATM   13  N           1     -33.690  -4.112 -14.965  0.00  0.00    -0.067 N 
HETATM   14  H           1     -32.784  -4.445 -14.566  0.00  0.00     0.275 HD
HETATM   15  H           1     -34.460  -4.750 -14.661  0.00  0.00     0.275 HD
HETATM   16  H           1     -33.886  -3.144 -14.625  0.00  0.00     0.275 HD
ENDBRANCH   5  13
ENDBRANCH   1   5
BRANCH   3  17
HETATM   17  C           1     -30.341  -5.957 -17.241  0.00  0.00     0.194 C 
BRANCH  17  18
HETATM   18  C           1     -29.412  -5.801 -16.044  0.00  0.00     0.138 C 
BRANCH  18  19
HETATM   19  C           1     -28.248  -4.918 -16.421  0.00  0.00     0.217 C 
HETATM   20  N           1     -28.471  -3.704 -17.013  0.00  0.00    -0.370 N 
HETATM   21  H           1     -27.690  -3.113 -17.266  0.00  0.00     0.159 HD
HETATM   22  H           1     -29.418  -3.398 -17.198  0.00  0.00     0.159 HD
HETATM   23  O           1     -27.118  -5.283 -16.201  0.00  0.00    -0.274 OA
ENDBRANCH  18  19
ENDBRANCH  17  18
BRANCH  17  24
HETATM   24  C           1     -30.252  -7.368 -17.767  0.00  0.00     0.197 C 
HETATM   25  O           1     -30.866  -7.686 -18.809  0.00  0.00    -0.646 OA
HETATM   26  O           1     -29.566  -8.219 -17.161  0.00  0.00    -0.646 OA
ENDBRANCH  17  24
ENDBRANCH   3  17
TORSDOF 10
ENDMDL
MODEL 7
REMARK VINA RESULT:      -5.3     13.080     14.917
REMARK  10 active torsions:
REMARK  status: ('A' for Active; 'I' for Inactive)
REMARK       I    between atoms: C_1  and  N_6 
REMARK    1  A    between atoms: C_1  and  C_2 
REMARK    2  A    between atoms: C_2  and  C_26 
REMARK    3  A    between atoms: C_2  and  N_17 
REMARK    4  A    between atoms: N_6  and  C_10 
REMARK    5  A    between atoms: C_7  and  C_16 
REMARK    6  A    between atoms: C_7  and  N_8 
REMARK    7  A    between atoms: C_9  and  C_24 
REMARK    8  A    between atoms: C_9  and  C_10 
REMARK    9  A    between atoms: C_10  and  C_25 
REMARK       I    between atoms: N_13  and  C_24 
REMARK   10  A    between atoms: C_16  and  C_26 
ROOT
HETATM    1  C           1     -21.348  -5.952  -6.449  0.00  0.00     0.249 C 
HETATM    2  H           1     -22.103  -4.026  -6.500  0.00  0.00     0.163 HD
HETATM    3  N           1     -21.793  -4.811  -7.059  0.00  0.00    -0.344 N 
HETATM    4  O           1     -20.978  -6.889  -7.115  0.00  0.00    -0.271 OA
ENDROOT
BRANCH   1   5
HETATM    5  C           1     -21.317  -6.040  -4.942  0.00  0.00     0.274 C 
BRANCH   5   6
HETATM    6  C           1     -20.514  -7.263  -4.521  0.00  0.00     0.044 C 
BRANCH   6   7
HETATM    7  C           1     -21.395  -8.189  -3.691  0.00  0.00     0.030 C 
BRANCH   7   8
HETATM    8  C           1     -21.456  -9.559  -4.353  0.00  0.00     0.230 C 
BRANCH   8   9
HETATM    9  N           1     -20.701  -9.524  -5.648  0.00  0.00    -0.079 N 
HETATM   10  H           1     -21.360  -9.693  -6.441  0.00  0.00     0.274 HD
HETATM   11  H           1     -20.249  -8.589  -5.764  0.00  0.00     0.274 HD
HETATM   12  H           1     -19.965 -10.267  -5.641  0.00  0.00     0.274 HD
ENDBRANCH   8   9
ENDBRANCH   7   8
ENDBRANCH   6   7
ENDBRANCH   5   6
BRANCH   5  13
HETATM   13  N           1     -22.719  -6.159  -4.421  0.00  0.00    -0.067 N 
HETATM   14  H           1     -23.216  -6.925  -4.929  0.00  0.00     0.275 HD
HETATM   15  H           1     -23.223  -5.256  -4.570  0.00  0.00     0.275 HD
HETATM   16  H           1     -22.693  -6.378  -3.399  0.00  0.00     0.275 HD
ENDBRANCH   5  13
ENDBRANCH   1   5
BRANCH   3  17
HETATM   17  C           1     -21.823  -4.726  -8.506  0.00  0.00     0.194 C 
BRANCH  17  18
HETATM   18  C           1     -22.838  -3.675  -8.932  0.00  0.00     0.138 C 
BRANCH  18  19
HETATM   19  C           1     -23.940  -4.331  -9.728  0.00  0.00     0.217 C 
HETATM   20  N           1     -25.231  -3.895  -9.599  0.00  0.00    -0.370 N 
HETATM   21  H           1     -25.969  -4.335 -10.133  0.00  0.00     0.159 HD
HETATM   22  H           1     -25.447  -3.133  -8.970  0.00  0.00     0.159 HD
HETATM   23  O           1     -23.681  -5.241 -10.479  0.00  0.00    -0.274 OA
ENDBRANCH  18  19
ENDBRANCH  17  18
BRANCH  17  24
HETATM   24  C           1     -20.455  -4.341  -9.014  0.00  0.00     0.197 C 
HETATM   25  O           1     -20.103  -4.665 -10.169  0.00  0.00    -0.646 OA
HETATM   26  O           1     -19.674  -3.696  -8.280  0.00  0.00    -0.646 OA
ENDBRANCH  17  24
ENDBRANCH   3  17
TORSDOF 10
ENDMDL
MODEL 8
REMARK VINA RESULT:      -5.2     14.376     16.315
REMARK  10 active torsions:
REMARK  status: ('A' for Active; 'I' for Inactive)
REMARK       I    between atoms: C_1  and  N_6 
REMARK    1  A    between atoms: C_1  and  C_2 
REMARK    2  A    between atoms: C_2  and  C_26 
REMARK    3  A    between atoms: C_2  and  N_17 
REMARK    4  A    between atoms: N_6  and  C_10 
REMARK    5  A    between atoms: C_7  and  C_16 
REMARK    6  A    between atoms: C_7  and  N_8 
REMARK    7  A    between atoms: C_9  and  C_24 
REMARK    8  A    between atoms: C_9  and  C_10 
REMARK    9  A    between atoms: C_10  and  C_25 
REMARK       I    between atoms: N_13  and  C_24 
REMARK   10  A    between atoms: C_16  and  C_26 
ROOT
HETATM    1  C           1     -21.373  -6.357  -4.303  0.00  0.00     0.249 C 
HETATM    2  H           1     -20.536  -4.491  -4.621  0.00  0.00     0.163 HD
HETATM    3  N           1     -20.952  -5.300  -5.064  0.00  0.00    -0.344 N 
HETATM    4  O           1     -21.870  -7.323  -4.832  0.00  0.00    -0.271 OA
ENDROOT
BRANCH   1   5
HETATM    5  C           1     -21.216  -6.316  -2.803  0.00  0.00     0.274 C 
BRANCH   5   6
HETATM    6  C           1     -20.811  -7.694  -2.297  0.00  0.00     0.044 C 
BRANCH   6   7
HETATM    7  C           1     -21.717  -8.099  -1.141  0.00  0.00     0.030 C 
BRANCH   7   8
HETATM    8  C           1     -21.689  -9.613  -0.979  0.00  0.00     0.230 C 
BRANCH   8   9
HETATM    9  N           1     -21.609  -9.959   0.478  0.00  0.00    -0.079 N 
HETATM   10  H           1     -21.337  -9.111   1.024  0.00  0.00     0.274 HD
HETATM   11  H           1     -22.540 -10.303   0.807  0.00  0.00     0.274 HD
HETATM   12  H           1     -20.893 -10.709   0.618  0.00  0.00     0.274 HD
ENDBRANCH   8   9
ENDBRANCH   7   8
ENDBRANCH   6   7
ENDBRANCH   5   6
BRANCH   5  13
HETATM   13  N           1     -22.518  -5.917  -2.175  0.00  0.00    -0.067 N 
HETATM   14  H           1     -22.688  -4.900  -2.342  0.00  0.00     0.275 HD
HETATM   15  H           1     -22.479  -6.100  -1.147  0.00  0.00     0.275 HD
HETATM   16  H           1     -23.295  -6.474  -2.598  0.00  0.00     0.275 HD
ENDBRANCH   5  13
ENDBRANCH   1   5
BRANCH   3  17
HETATM   17  C           1     -21.103  -5.339  -6.506  0.00  0.00     0.194 C 
BRANCH  17  18
HETATM   18  C           1     -21.596  -3.985  -7.001  0.00  0.00     0.138 C 
BRANCH  18  19
HETATM   19  C           1     -22.573  -4.187  -8.132  0.00  0.00     0.217 C 
HETATM   20  N           1     -23.919  -4.089  -7.901  0.00  0.00    -0.370 N 
HETATM   21  H           1     -24.574  -4.225  -8.660  0.00  0.00     0.159 HD
HETATM   22  H           1     -24.259  -3.881  -6.971  0.00  0.00     0.159 HD
HETATM   23  O           1     -22.168  -4.435  -9.243  0.00  0.00    -0.274 OA
ENDBRANCH  18  19
ENDBRANCH  17  18
BRANCH  17  24
HETATM   24  C           1     -19.772  -5.653  -7.142  0.00  0.00     0.197 C 
HETATM   25  O           1     -19.094  -4.738  -7.658  0.00  0.00    -0.646 OA
HETATM   26  O           1     -19.347  -6.829  -7.154  0.00  0.00    -0.646 OA
ENDBRANCH  17  24
ENDBRANCH   3  17
TORSDOF 10
ENDMDL
MODEL 9
REMARK VINA RESULT:      -4.9     14.686     17.327
REMARK  10 active torsions:
REMARK  status: ('A' for Active; 'I' for Inactive)
REMARK       I    between atoms: C_1  and  N_6 
REMARK    1  A    between atoms: C_1  and  C_2 
REMARK    2  A    between atoms: C_2  and  C_26 
REMARK    3  A    between atoms: C_2  and  N_17 
REMARK    4  A    between atoms: N_6  and  C_10 
REMARK    5  A    between atoms: C_7  and  C_16 
REMARK    6  A    between atoms: C_7  and  N_8 
REMARK    7  A    between atoms: C_9  and  C_24 
REMARK    8  A    between atoms: C_9  and  C_10 
REMARK    9  A    between atoms: C_10  and  C_25 
REMARK       I    between atoms: N_13  and  C_24 
REMARK   10  A    between atoms: C_16  and  C_26 
ROOT
HETATM    1  C           1     -21.067  -6.757  -5.152  0.00  0.00     0.249 C 
HETATM    2  H           1     -20.552  -5.667  -3.470  0.00  0.00     0.163 HD
HETATM    3  N           1     -20.955  -6.533  -3.807  0.00  0.00    -0.344 N 
HETATM    4  O           1     -21.547  -7.790  -5.555  0.00  0.00    -0.271 OA
ENDROOT
BRANCH   1   5
HETATM    5  C           1     -20.591  -5.715  -6.134  0.00  0.00     0.274 C 
BRANCH   5   6
HETATM    6  C           1     -21.793  -5.004  -6.743  0.00  0.00     0.044 C 
BRANCH   6   7
HETATM    7  C           1     -21.626  -4.928  -8.255  0.00  0.00     0.030 C 
BRANCH   7   8
HETATM    8  C           1     -22.732  -4.064  -8.845  0.00  0.00     0.230 C 
BRANCH   8   9
HETATM    9  N           1     -23.919  -4.074  -7.928  0.00  0.00    -0.079 N 
HETATM   10  H           1     -23.674  -3.591  -7.035  0.00  0.00     0.274 HD
HETATM   11  H           1     -24.718  -3.578  -8.385  0.00  0.00     0.274 HD
HETATM   12  H           1     -24.194  -5.063  -7.726  0.00  0.00     0.274 HD
ENDBRANCH   8   9
ENDBRANCH   7   8
ENDBRANCH   6   7
ENDBRANCH   5   6
BRANCH   5  13
HETATM   13  N           1     -19.799  -6.377  -7.222  0.00  0.00    -0.067 N 
HETATM   14  H           1     -20.428  -6.993  -7.785  0.00  0.00     0.275 HD
HETATM   15  H           1     -19.037  -6.952  -6.796  0.00  0.00     0.275 HD
HETATM   16  H           1     -19.379  -5.648  -7.841  0.00  0.00     0.275 HD
ENDBRANCH   5  13
ENDBRANCH   1   5
BRANCH   3  17
HETATM   17  C           1     -21.412  -7.534  -2.864  0.00  0.00     0.194 C 
BRANCH  17  18
HETATM   18  C           1     -20.219  -8.328  -2.348  0.00  0.00     0.138 C 
BRANCH  18  19
HETATM   19  C           1     -20.529  -9.803  -2.412  0.00  0.00     0.217 C 
HETATM   20  N           1     -21.125 -10.425  -1.348  0.00  0.00    -0.370 N 
HETATM   21  H           1     -21.333 -11.414  -1.391  0.00  0.00     0.159 HD
HETATM   22  H           1     -21.359  -9.894  -0.519  0.00  0.00     0.159 HD
HETATM   23  O           1     -20.250 -10.436  -3.402  0.00  0.00    -0.274 OA
ENDBRANCH  18  19
ENDBRANCH  17  18
BRANCH  17  24
HETATM   24  C           1     -22.103  -6.856  -1.706  0.00  0.00     0.197 C 
HETATM   25  O           1     -22.382  -7.508  -0.676  0.00  0.00    -0.646 OA
HETATM   26  O           1     -22.397  -5.643  -1.778  0.00  0.00    -0.646 OA
ENDBRANCH  17  24
ENDBRANCH   3  17
TORSDOF 10
ENDMDL
