MODEL 1
REMARK VINA RESULT:      -5.0      0.000      0.000
REMARK  8 active torsions:
REMARK  status: ('A' for Active; 'I' for Inactive)
REMARK    1  A    between atoms: S_1  and  C_5 
REMARK    2  A    between atoms: N_2  and  C_6 
REMARK    3  A    between atoms: C_3  and  S_4 
REMARK    4  A    between atoms: C_3  and  C_12 
REMARK    5  A    between atoms: C_5  and  C_6 
REMARK    6  A    between atoms: C_6  and  C_7 
REMARK       I    between atoms: C_7  and  N_8 
REMARK    7  A    between atoms: N_8  and  C_12 
REMARK    8  A    between atoms: C_11  and  C_12 
ROOT
HETATM    1  C           1     -26.355  -6.445 -18.553  0.00  0.00     0.249 C 
HETATM    2  N           1     -27.650  -6.572 -18.981  0.00  0.00    -0.344 N 
HETATM    3  O           1     -26.124  -6.083 -17.424  0.00  0.00    -0.271 OA
HETATM    4  H           1     -27.843  -6.874 -19.927  0.00  0.00     0.163 HD
ENDROOT
BRANCH   1   5
HETATM    5  C           1     -25.217  -6.757 -19.494  0.00  0.00     0.283 C 
BRANCH   5   6
HETATM    6  N           1     -24.180  -7.567 -18.772  0.00  0.00    -0.066 N 
HETATM    7  H           1     -24.262  -8.570 -19.052  0.00  0.00     0.275 HD
HETATM    8  H           1     -23.229  -7.212 -19.020  0.00  0.00     0.275 HD
HETATM    9  H           1     -24.327  -7.480 -17.741  0.00  0.00     0.275 HD
ENDBRANCH   5   6
BRANCH   5  10
HETATM   10  C           1     -25.743  -7.552 -20.681  0.00  0.00     0.113 C 
BRANCH  10  11
HETATM   11  S           1     -24.385  -7.878 -21.842  0.00  0.00    -0.180 SA
HETATM   12  H           1     -23.976  -9.020 -21.261  0.00  0.00     0.101 HD
ENDBRANCH  10  11
ENDBRANCH   5  10
ENDBRANCH   1   5
BRANCH   2  13
HETATM   13  C           1     -28.744  -6.271 -18.078  0.00  0.00     0.194 C 
BRANCH  13  14
HETATM   14  C           1     -29.343  -4.919 -18.438  0.00  0.00     0.106 C 
BRANCH  14  15
HETATM   15  S           1     -28.842  -3.686 -17.204  0.00  0.00    -0.180 SA
HETATM   16  H           1     -27.616  -4.194 -16.987  0.00  0.00     0.101 HD
ENDBRANCH  14  15
ENDBRANCH  13  14
BRANCH  13  17
HETATM   17  C           1     -29.803  -7.340 -18.199  0.00  0.00     0.197 C 
HETATM   18  O           1     -30.865  -7.244 -17.547  0.00  0.00    -0.646 OA
HETATM   19  O           1     -29.619  -8.320 -18.952  0.00  0.00    -0.646 OA
ENDBRANCH  13  17
ENDBRANCH   2  13
TORSDOF 8
ENDMDL
MODEL 2
REMARK VINA RESULT:      -5.0      2.405      2.828
REMARK  8 active torsions:
REMARK  status: ('A' for Active; 'I' for Inactive)
REMARK    1  A    between atoms: S_1  and  C_5 
REMARK    2  A    between atoms: N_2  and  C_6 
REMARK    3  A    between atoms: C_3  and  S_4 
REMARK    4  A    between atoms: C_3  and  C_12 
REMARK    5  A    between atoms: C_5  and  C_6 
REMARK    6  A    between atoms: C_6  and  C_7 
REMARK       I    between atoms: C_7  and  N_8 
REMARK    7  A    between atoms: N_8  and  C_12 
REMARK    8  A    between atoms: C_11  and  C_12 
ROOT
HETATM    1  C           1     -25.340  -6.858 -18.975  0.00  0.00     0.249 C 
HETATM    2  N           1     -26.490  -6.641 -18.264  0.00  0.00    -0.344 N 
HETATM    3  O           1     -24.280  -6.475 -18.541  0.00  0.00    -0.271 OA
HETATM    4  H           1     -27.378  -6.962 -18.627  0.00  0.00     0.163 HD
ENDROOT
BRANCH   1   5
HETATM    5  C           1     -25.399  -7.576 -20.300  0.00  0.00     0.283 C 
BRANCH   5   6
HETATM    6  N           1     -26.827  -7.879 -20.643  0.00  0.00    -0.066 N 
HETATM    7  H           1     -27.211  -7.117 -21.247  0.00  0.00     0.275 HD
HETATM    8  H           1     -26.877  -8.788 -21.156  0.00  0.00     0.275 HD
HETATM    9  H           1     -27.390  -7.943 -19.764  0.00  0.00     0.275 HD
ENDBRANCH   5   6
BRANCH   5  10
HETATM   10  C           1     -24.794  -6.693 -21.384  0.00  0.00     0.113 C 
BRANCH  10  11
HETATM   11  S           1     -23.863  -7.721 -22.555  0.00  0.00    -0.180 SA
HETATM   12  H           1     -23.420  -8.605 -21.643  0.00  0.00     0.101 HD
ENDBRANCH  10  11
ENDBRANCH   5  10
ENDBRANCH   1   5
BRANCH   2  13
HETATM   13  C           1     -26.435  -5.951 -16.990  0.00  0.00     0.194 C 
BRANCH  13  14
HETATM   14  C           1     -27.664  -5.067 -16.838  0.00  0.00     0.106 C 
BRANCH  14  15
HETATM   15  S           1     -28.770  -5.316 -18.255  0.00  0.00    -0.180 SA
HETATM   16  H           1     -29.697  -6.025 -17.586  0.00  0.00     0.101 HD
ENDBRANCH  14  15
ENDBRANCH  13  14
BRANCH  13  17
HETATM   17  C           1     -26.401  -6.964 -15.870  0.00  0.00     0.197 C 
HETATM   18  O           1     -27.470  -7.393 -15.384  0.00  0.00    -0.646 OA
HETATM   19  O           1     -25.306  -7.374 -15.431  0.00  0.00    -0.646 OA
ENDBRANCH  13  17
ENDBRANCH   2  13
TORSDOF 8
ENDMDL
MODEL 3
REMARK VINA RESULT:      -4.8     11.073     12.228
REMARK  8 active torsions:
REMARK  status: ('A' for Active; 'I' for Inactive)
REMARK    1  A    between atoms: S_1  and  C_5 
REMARK    2  A    between atoms: N_2  and  C_6 
REMARK    3  A    between atoms: C_3  and  S_4 
REMARK    4  A    between atoms: C_3  and  C_12 
REMARK    5  A    between atoms: C_5  and  C_6 
REMARK    6  A    between atoms: C_6  and  C_7 
REMARK       I    between atoms: C_7  and  N_8 
REMARK    7  A    between atoms: N_8  and  C_12 
REMARK    8  A    between atoms: C_11  and  C_12 
ROOT
HETATM    1  C           1     -21.791  -4.574  -7.749  0.00  0.00     0.249 C 
HETATM    2  N           1     -22.339  -4.749  -8.991  0.00  0.00    -0.344 N 
HETATM    3  O           1     -21.745  -3.471  -7.259  0.00  0.00    -0.271 OA
HETATM    4  H           1     -22.377  -5.672  -9.403  0.00  0.00     0.163 HD
ENDROOT
BRANCH   1   5
HETATM    5  C           1     -21.244  -5.760  -6.993  0.00  0.00     0.283 C 
BRANCH   5   6
HETATM    6  N           1     -19.893  -6.120  -7.537  0.00  0.00    -0.066 N 
HETATM    7  H           1     -19.343  -6.621  -6.804  0.00  0.00     0.275 HD
HETATM    8  H           1     -20.009  -6.740  -8.371  0.00  0.00     0.275 HD
HETATM    9  H           1     -19.388  -5.249  -7.818  0.00  0.00     0.275 HD
ENDBRANCH   5   6
BRANCH   5  10
HETATM   10  C           1     -21.118  -5.407  -5.517  0.00  0.00     0.113 C 
BRANCH  10  11
HETATM   11  S           1     -21.779  -6.766  -4.511  0.00  0.00    -0.180 SA
HETATM   12  H           1     -22.339  -7.438  -5.533  0.00  0.00     0.101 HD
ENDBRANCH  10  11
ENDBRANCH   5  10
ENDBRANCH   1   5
BRANCH   2  13
HETATM   13  C           1     -22.865  -3.610  -9.719  0.00  0.00     0.194 C 
BRANCH  13  14
HETATM   14  C           1     -21.994  -3.339 -10.937  0.00  0.00     0.106 C 
BRANCH  14  15
HETATM   15  S           1     -20.490  -4.351 -10.845  0.00  0.00    -0.180 SA
HETATM   16  H           1     -20.452  -4.665 -12.153  0.00  0.00     0.101 HD
ENDBRANCH  14  15
ENDBRANCH  13  14
BRANCH  13  17
HETATM   17  C           1     -24.277  -3.906 -10.164  0.00  0.00     0.197 C 
HETATM   18  O           1     -24.829  -4.974  -9.821  0.00  0.00    -0.646 OA
HETATM   19  O           1     -24.893  -3.084 -10.875  0.00  0.00    -0.646 OA
ENDBRANCH  13  17
ENDBRANCH   2  13
TORSDOF 8
ENDMDL
MODEL 4
REMARK VINA RESULT:      -4.3      2.411      4.780
REMARK  8 active torsions:
REMARK  status: ('A' for Active; 'I' for Inactive)
REMARK    1  A    between atoms: S_1  and  C_5 
REMARK    2  A    between atoms: N_2  and  C_6 
REMARK    3  A    between atoms: C_3  and  S_4 
REMARK    4  A    between atoms: C_3  and  C_12 
REMARK    5  A    between atoms: C_5  and  C_6 
REMARK    6  A    between atoms: C_6  and  C_7 
REMARK       I    between atoms: C_7  and  N_8 
REMARK    7  A    between atoms: N_8  and  C_12 
REMARK    8  A    between atoms: C_11  and  C_12 
ROOT
HETATM    1  C           1     -28.064  -6.206 -18.630  0.00  0.00     0.249 C 
HETATM    2  N           1     -27.147  -7.076 -19.154  0.00  0.00    -0.344 N 
HETATM    3  O           1     -28.420  -5.245 -19.271  0.00  0.00    -0.271 OA
HETATM    4  H           1     -26.848  -7.880 -18.618  0.00  0.00     0.163 HD
ENDROOT
BRANCH   1   5
HETATM    5  C           1     -28.631  -6.447 -17.253  0.00  0.00     0.283 C 
BRANCH   5   6
HETATM    6  N           1     -27.574  -7.053 -16.377  0.00  0.00    -0.066 N 
HETATM    7  H           1     -27.309  -6.374 -15.628  0.00  0.00     0.275 HD
HETATM    8  H           1     -27.945  -7.927 -15.939  0.00  0.00     0.275 HD
HETATM    9  H           1     -26.733  -7.281 -16.954  0.00  0.00     0.275 HD
ENDBRANCH   5   6
BRANCH   5  10
HETATM   10  C           1     -29.088  -5.124 -16.653  0.00  0.00     0.113 C 
BRANCH  10  11
HETATM   11  S           1     -30.896  -4.999 -16.769  0.00  0.00    -0.180 SA
HETATM   12  H           1     -31.078  -4.461 -15.549  0.00  0.00     0.101 HD
ENDBRANCH  10  11
ENDBRANCH   5  10
ENDBRANCH   1   5
BRANCH   2  13
HETATM   13  C           1     -26.602  -6.845 -20.478  0.00  0.00     0.194 C 
BRANCH  13  14
HETATM   14  C           1     -25.181  -6.312 -20.356  0.00  0.00     0.106 C 
BRANCH  14  15
HETATM   15  S           1     -24.381  -7.042 -18.899  0.00  0.00    -0.180 SA
HETATM   16  H           1     -25.510  -7.201 -18.185  0.00  0.00     0.101 HD
ENDBRANCH  14  15
ENDBRANCH  13  14
BRANCH  13  17
HETATM   17  C           1     -26.589  -8.143 -21.249  0.00  0.00     0.197 C 
HETATM   18  O           1     -27.634  -8.820 -21.349  0.00  0.00    -0.646 OA
HETATM   19  O           1     -25.533  -8.538 -21.788  0.00  0.00    -0.646 OA
ENDBRANCH  13  17
ENDBRANCH   2  13
TORSDOF 8
ENDMDL
MODEL 5
REMARK VINA RESULT:      -4.1     14.481     15.828
REMARK  8 active torsions:
REMARK  status: ('A' for Active; 'I' for Inactive)
REMARK    1  A    between atoms: S_1  and  C_5 
REMARK    2  A    between atoms: N_2  and  C_6 
REMARK    3  A    between atoms: C_3  and  S_4 
REMARK    4  A    between atoms: C_3  and  C_12 
REMARK    5  A    between atoms: C_5  and  C_6 
REMARK    6  A    between atoms: C_6  and  C_7 
REMARK       I    between atoms: C_7  and  N_8 
REMARK    7  A    between atoms: N_8  and  C_12 
REMARK    8  A    between atoms: C_11  and  C_12 
ROOT
HETATM    1  C           1     -21.421  -6.326  -4.308  0.00  0.00     0.249 C 
HETATM    2  N           1     -20.915  -5.280  -5.032  0.00  0.00    -0.344 N 
HETATM    3  O           1     -21.997  -7.227  -4.870  0.00  0.00    -0.271 OA
HETATM    4  H           1     -20.434  -4.524  -4.561  0.00  0.00     0.163 HD
ENDROOT
BRANCH   1   5
HETATM    5  C           1     -21.260  -6.351  -2.808  0.00  0.00     0.283 C 
BRANCH   5   6
HETATM    6  N           1     -22.517  -5.850  -2.161  0.00  0.00    -0.066 N 
HETATM    7  H           1     -22.675  -4.852  -2.429  0.00  0.00     0.275 HD
HETATM    8  H           1     -23.327  -6.428  -2.481  0.00  0.00     0.275 HD
HETATM    9  H           1     -22.426  -5.921  -1.122  0.00  0.00     0.275 HD
ENDBRANCH   5   6
BRANCH   5  10
HETATM   10  C           1     -20.990  -7.779  -2.351  0.00  0.00     0.113 C 
BRANCH  10  11
HETATM   11  S           1     -21.886  -8.099  -0.804  0.00  0.00    -0.180 SA
HETATM   12  H           1     -21.476  -9.373  -0.666  0.00  0.00     0.101 HD
ENDBRANCH  10  11
ENDBRANCH   5  10
ENDBRANCH   1   5
BRANCH   2  13
HETATM   13  C           1     -21.070  -5.254  -6.473  0.00  0.00     0.194 C 
BRANCH  13  14
HETATM   14  C           1     -21.556  -3.878  -6.908  0.00  0.00     0.106 C 
BRANCH  14  15
HETATM   15  S           1     -22.399  -4.011  -8.510  0.00  0.00    -0.180 SA
HETATM   16  H           1     -23.192  -5.042  -8.166  0.00  0.00     0.101 HD
ENDBRANCH  14  15
ENDBRANCH  13  14
BRANCH  13  17
HETATM   17  C           1     -19.741  -5.547  -7.127  0.00  0.00     0.197 C 
HETATM   18  O           1     -19.376  -6.731  -7.296  0.00  0.00    -0.646 OA
HETATM   19  O           1     -19.006  -4.607  -7.498  0.00  0.00    -0.646 OA
ENDBRANCH  13  17
ENDBRANCH   2  13
TORSDOF 8
ENDMDL
MODEL 6
REMARK VINA RESULT:      -4.0     14.432     15.553
REMARK  8 active torsions:
REMARK  status: ('A' for Active; 'I' for Inactive)
REMARK    1  A    between atoms: S_1  and  C_5 
REMARK    2  A    between atoms: N_2  and  C_6 
REMARK    3  A    between atoms: C_3  and  S_4 
REMARK    4  A    between atoms: C_3  and  C_12 
REMARK    5  A    between atoms: C_5  and  C_6 
REMARK    6  A    between atoms: C_6  and  C_7 
REMARK       I    between atoms: C_7  and  N_8 
REMARK    7  A    between atoms: N_8  and  C_12 
REMARK    8  A    between atoms: C_11  and  C_12 
ROOT
HETATM    1  C           1     -21.420  -5.783  -5.660  0.00  0.00     0.249 C 
HETATM    2  N           1     -20.844  -6.694  -4.816  0.00  0.00    -0.344 N 
HETATM    3  O           1     -22.619  -5.633  -5.660  0.00  0.00    -0.271 OA
HETATM    4  H           1     -19.840  -6.820  -4.816  0.00  0.00     0.163 HD
ENDROOT
BRANCH   1   5
HETATM    5  C           1     -20.557  -4.967  -6.590  0.00  0.00     0.283 C 
BRANCH   5   6
HETATM    6  N           1     -20.016  -5.850  -7.674  0.00  0.00    -0.066 N 
HETATM    7  H           1     -20.807  -6.309  -8.180  0.00  0.00     0.275 HD
HETATM    8  H           1     -19.461  -5.274  -8.347  0.00  0.00     0.275 HD
HETATM    9  H           1     -19.401  -6.583  -7.252  0.00  0.00     0.275 HD
ENDBRANCH   5   6
BRANCH   5  10
HETATM   10  C           1     -21.391  -3.855  -7.212  0.00  0.00     0.113 C 
BRANCH  10  11
HETATM   11  S           1     -21.776  -4.277  -8.935  0.00  0.00    -0.180 SA
HETATM   12  H           1     -21.687  -3.022  -9.410  0.00  0.00     0.101 HD
ENDBRANCH  10  11
ENDBRANCH   5  10
ENDBRANCH   1   5
BRANCH   2  13
HETATM   13  C           1     -21.673  -7.479  -3.922  0.00  0.00     0.194 C 
BRANCH  13  14
HETATM   14  C           1     -21.166  -8.915  -3.888  0.00  0.00     0.106 C 
BRANCH  14  15
HETATM   15  S           1     -19.548  -9.006  -4.705  0.00  0.00    -0.180 SA
HETATM   16  H           1     -18.845  -9.288  -3.592  0.00  0.00     0.101 HD
ENDBRANCH  14  15
ENDBRANCH  13  14
BRANCH  13  17
HETATM   17  C           1     -21.611  -6.891  -2.533  0.00  0.00     0.197 C 
HETATM   18  O           1     -20.847  -7.387  -1.677  0.00  0.00    -0.646 OA
HETATM   19  O           1     -22.324  -5.907  -2.239  0.00  0.00    -0.646 OA
ENDBRANCH  13  17
ENDBRANCH   2  13
TORSDOF 8
ENDMDL
MODEL 7
REMARK VINA RESULT:      -4.0      2.074      2.270
REMARK  8 active torsions:
REMARK  status: ('A' for Active; 'I' for Inactive)
REMARK    1  A    between atoms: S_1  and  C_5 
REMARK    2  A    between atoms: N_2  and  C_6 
REMARK    3  A    between atoms: C_3  and  S_4 
REMARK    4  A    between atoms: C_3  and  C_12 
REMARK    5  A    between atoms: C_5  and  C_6 
REMARK    6  A    between atoms: C_6  and  C_7 
REMARK       I    between atoms: C_7  and  N_8 
REMARK    7  A    between atoms: N_8  and  C_12 
REMARK    8  A    between atoms: C_11  and  C_12 
ROOT
HETATM    1  C           1     -26.214  -6.469 -19.034  0.00  0.00     0.249 C 
HETATM    2  N           1     -27.369  -6.264 -18.328  0.00  0.00    -0.344 N 
HETATM    3  O           1     -25.154  -6.520 -18.456  0.00  0.00    -0.271 OA
HETATM    4  H           1     -28.257  -6.221 -18.812  0.00  0.00     0.163 HD
ENDROOT
BRANCH   1   5
HETATM    5  C           1     -26.265  -6.630 -20.533  0.00  0.00     0.283 C 
BRANCH   5   6
HETATM    6  N           1     -25.140  -5.859 -21.158  0.00  0.00    -0.066 N 
HETATM    7  H           1     -25.410  -5.566 -22.124  0.00  0.00     0.275 HD
HETATM    8  H           1     -24.937  -5.011 -20.581  0.00  0.00     0.275 HD
HETATM    9  H           1     -24.288  -6.463 -21.202  0.00  0.00     0.275 HD
ENDBRANCH   5   6
BRANCH   5  10
HETATM   10  C           1     -26.129  -8.104 -20.891  0.00  0.00     0.113 C 
BRANCH  10  11
HETATM   11  S           1     -27.779  -8.827 -21.116  0.00  0.00    -0.180 SA
HETATM   12  H           1     -28.107  -8.836 -19.812  0.00  0.00     0.101 HD
ENDBRANCH  10  11
ENDBRANCH   5  10
ENDBRANCH   1   5
BRANCH   2  13
HETATM   13  C           1     -27.321  -6.110 -16.887  0.00  0.00     0.194 C 
BRANCH  13  14
HETATM   14  C           1     -27.853  -4.735 -16.506  0.00  0.00     0.106 C 
BRANCH  14  15
HETATM   15  S           1     -29.088  -4.203 -17.725  0.00  0.00    -0.180 SA
HETATM   16  H           1     -28.591  -4.919 -18.749  0.00  0.00     0.101 HD
ENDBRANCH  14  15
ENDBRANCH  13  14
BRANCH  13  17
HETATM   17  C           1     -28.169  -7.176 -16.238  0.00  0.00     0.197 C 
HETATM   18  O           1     -29.133  -7.673 -16.862  0.00  0.00    -0.646 OA
HETATM   19  O           1     -27.908  -7.563 -15.079  0.00  0.00    -0.646 OA
ENDBRANCH  13  17
ENDBRANCH   2  13
TORSDOF 8
ENDMDL
MODEL 8
REMARK VINA RESULT:      -4.0     13.246     14.343
REMARK  8 active torsions:
REMARK  status: ('A' for Active; 'I' for Inactive)
REMARK    1  A    between atoms: S_1  and  C_5 
REMARK    2  A    between atoms: N_2  and  C_6 
REMARK    3  A    between atoms: C_3  and  S_4 
REMARK    4  A    between atoms: C_3  and  C_12 
REMARK    5  A    between atoms: C_5  and  C_6 
REMARK    6  A    between atoms: C_6  and  C_7 
REMARK       I    between atoms: C_7  and  N_8 
REMARK    7  A    between atoms: N_8  and  C_12 
REMARK    8  A    between atoms: C_11  and  C_12 
ROOT
HETATM    1  C           1     -21.101  -5.180  -6.970  0.00  0.00     0.249 C 
HETATM    2  N           1     -21.190  -6.491  -6.587  0.00  0.00    -0.344 N 
HETATM    3  O           1     -20.722  -4.345  -6.183  0.00  0.00    -0.271 OA
HETATM    4  H           1     -21.508  -7.190  -7.245  0.00  0.00     0.163 HD
ENDROOT
BRANCH   1   5
HETATM    5  C           1     -21.477  -4.778  -8.375  0.00  0.00     0.283 C 
BRANCH   5   6
HETATM    6  N           1     -22.407  -3.603  -8.327  0.00  0.00    -0.066 N 
HETATM    7  H           1     -23.386  -3.923  -8.505  0.00  0.00     0.275 HD
HETATM    8  H           1     -22.354  -3.155  -7.384  0.00  0.00     0.275 HD
HETATM    9  H           1     -22.129  -2.909  -9.058  0.00  0.00     0.275 HD
ENDBRANCH   5   6
BRANCH   5  10
HETATM   10  C           1     -20.221  -4.399  -9.148  0.00  0.00     0.113 C 
BRANCH  10  11
HETATM   11  S           1     -20.649  -4.091 -10.886  0.00  0.00    -0.180 SA
HETATM   12  H           1     -20.661  -5.384 -11.258  0.00  0.00     0.101 HD
ENDBRANCH  10  11
ENDBRANCH   5  10
ENDBRANCH   1   5
BRANCH   2  13
HETATM   13  C           1     -20.829  -6.878  -5.237  0.00  0.00     0.194 C 
BRANCH  13  14
HETATM   14  C           1     -22.059  -6.809  -4.342  0.00  0.00     0.106 C 
BRANCH  14  15
HETATM   15  S           1     -21.567  -6.301  -2.671  0.00  0.00    -0.180 SA
HETATM   16  H           1     -22.575  -5.429  -2.487  0.00  0.00     0.101 HD
ENDBRANCH  14  15
ENDBRANCH  13  14
BRANCH  13  17
HETATM   17  C           1     -20.290  -8.288  -5.245  0.00  0.00     0.197 C 
HETATM   18  O           1     -20.930  -9.198  -5.815  0.00  0.00    -0.646 OA
HETATM   19  O           1     -19.204  -8.545  -4.683  0.00  0.00    -0.646 OA
ENDBRANCH  13  17
ENDBRANCH   2  13
TORSDOF 8
ENDMDL
MODEL 9
REMARK VINA RESULT:      -4.0     12.830     14.185
REMARK  8 active torsions:
REMARK  status: ('A' for Active; 'I' for Inactive)
REMARK    1  A    between atoms: S_1  and  C_5 
REMARK    2  A    between atoms: N_2  and  C_6 
REMARK    3  A    between atoms: C_3  and  S_4 
REMARK    4  A    between atoms: C_3  and  C_12 
REMARK    5  A    between atoms: C_5  and  C_6 
REMARK    6  A    between atoms: C_6  and  C_7 
REMARK       I    between atoms: C_7  and  N_8 
REMARK    7  A    between atoms: N_8  and  C_12 
REMARK    8  A    between atoms: C_11  and  C_12 
ROOT
HETATM    1  C           1     -21.241  -6.143  -6.184  0.00  0.00     0.249 C 
HETATM    2  N           1     -21.611  -4.974  -6.794  0.00  0.00    -0.344 N 
HETATM    3  O           1     -20.987  -7.119  -6.850  0.00  0.00    -0.271 OA
HETATM    4  H           1     -21.824  -4.158  -6.236  0.00  0.00     0.163 HD
ENDROOT
BRANCH   1   5
HETATM    5  C           1     -21.152  -6.212  -4.679  0.00  0.00     0.283 C 
BRANCH   5   6
HETATM    6  N           1     -22.528  -6.117  -4.091  0.00  0.00    -0.066 N 
HETATM    7  H           1     -22.641  -6.840  -3.346  0.00  0.00     0.275 HD
HETATM    8  H           1     -22.665  -5.167  -3.678  0.00  0.00     0.275 HD
HETATM    9  H           1     -23.239  -6.277  -4.842  0.00  0.00     0.275 HD
ENDBRANCH   5   6
BRANCH   5  10
HETATM   10  C           1     -20.516  -7.534  -4.269  0.00  0.00     0.113 C 
BRANCH  10  11
HETATM   11  S           1     -20.915  -7.884  -2.533  0.00  0.00    -0.180 SA
HETATM   12  H           1     -21.078  -9.210  -2.691  0.00  0.00     0.101 HD
ENDBRANCH  10  11
ENDBRANCH   5  10
ENDBRANCH   1   5
BRANCH   2  13
HETATM   13  C           1     -21.697  -4.907  -8.240  0.00  0.00     0.194 C 
BRANCH  13  14
HETATM   14  C           1     -22.809  -3.946  -8.638  0.00  0.00     0.106 C 
BRANCH  14  15
HETATM   15  S           1     -23.673  -4.590 -10.098  0.00  0.00    -0.180 SA
HETATM   16  H           1     -24.062  -3.392 -10.570  0.00  0.00     0.101 HD
ENDBRANCH  14  15
ENDBRANCH  13  14
BRANCH  13  17
HETATM   17  C           1     -20.383  -4.417  -8.799  0.00  0.00     0.197 C 
HETATM   18  O           1     -20.049  -4.721  -9.965  0.00  0.00    -0.646 OA
HETATM   19  O           1     -19.631  -3.708  -8.098  0.00  0.00    -0.646 OA
ENDBRANCH  13  17
ENDBRANCH   2  13
TORSDOF 8
ENDMDL
