MODEL 1
REMARK VINA RESULT:      -7.6      0.000      0.000
REMARK  11 active torsions:
REMARK  status: ('A' for Active; 'I' for Inactive)
REMARK    1  A    between atoms: C_5  and  O_6 
REMARK    2  A    between atoms: C_5  and  C_7 
REMARK    3  A    between atoms: C_7  and  C_8 
REMARK    4  A    between atoms: C_7  and  N_11 
REMARK       I    between atoms: N_11  and  C_12 
REMARK    5  A    between atoms: C_12  and  C_13 
REMARK    6  A    between atoms: C_13  and  C_14 
REMARK    7  A    between atoms: C_13  and  N_26 
REMARK    8  A    between atoms: C_14  and  C_15 
REMARK    9  A    between atoms: C_18  and  O_19 
REMARK   10  A    between atoms: O_19  and  P_20 
REMARK   11  A    between atoms: P_20  and  O_21 
ROOT
HETATM    1  C           1     -21.148  -5.660  -7.042  0.00  0.00     0.278 C 
ENDROOT
BRANCH   1   2
HETATM    2  C           1     -21.722  -4.542  -7.877  0.00  0.00     0.249 C 
HETATM    3  N           1     -22.134  -4.787  -9.159  0.00  0.00    -0.343 N 
HETATM    4  H           1     -22.053  -5.718  -9.547  0.00  0.00     0.163 HD
HETATM    5  O           1     -21.819  -3.430  -7.414  0.00  0.00    -0.271 OA
BRANCH   3   6
HETATM    6  C           1     -22.686  -3.712  -9.962  0.00  0.00     0.214 C 
BRANCH   6   7
HETATM    7  C           1     -21.932  -3.626 -11.282  0.00  0.00     0.147 C 
HETATM    8  C           1     -20.497  -4.095 -11.080  0.00  0.00     0.042 C 
BRANCH   7   9
HETATM    9  O           1     -22.559  -4.443 -12.234  0.00  0.00    -0.393 OA
HETATM   10  H           1     -23.441  -4.125 -12.328  0.00  0.00     0.210 HD
ENDBRANCH   7   9
ENDBRANCH   6   7
BRANCH   6  11
HETATM   11  C           1     -24.144  -3.986 -10.234  0.00  0.00     0.199 C 
HETATM   12  O           1     -24.859  -3.103 -10.755  0.00  0.00    -0.646 OA
HETATM   13  O           1     -24.638  -5.096  -9.939  0.00  0.00    -0.646 OA
ENDBRANCH   6  11
ENDBRANCH   3   6
ENDBRANCH   1   2
BRANCH   1  14
HETATM   14  C           1     -20.961  -5.179  -5.609  0.00  0.00     0.081 C 
BRANCH  14  15
HETATM   15  C           1     -21.181  -6.322  -4.667  0.00  0.00    -0.056 A 
HETATM   16  C           1     -21.390  -7.607  -5.165  0.00  0.00     0.010 A 
HETATM   17  C           1     -21.595  -8.672  -4.287  0.00  0.00     0.038 A 
HETATM   18  C           1     -21.591  -8.449  -2.910  0.00  0.00     0.081 A 
HETATM   19  C           1     -21.381  -7.164  -2.411  0.00  0.00     0.038 A 
HETATM   20  C           1     -21.176  -6.100  -3.290  0.00  0.00     0.010 A 
BRANCH  18  21
HETATM   21  O           1     -21.790  -9.484  -2.057  0.00  0.00    -0.247 OA
BRANCH  21  22
HETATM   22  P           1     -20.523 -10.413  -1.685  0.00  0.00     0.411 P 
HETATM   23  O           1     -20.466 -10.605  -0.219  0.00  0.00    -0.624 OA
HETATM   24  O           1     -20.664 -11.729  -2.350  0.00  0.00    -0.624 OA
BRANCH  22  25
HETATM   25  O           1     -19.163  -9.700  -2.188  0.00  0.00    -0.300 OA
HETATM   26  H           1     -19.449  -9.006  -2.756  0.00  0.00     0.223 HD
ENDBRANCH  22  25
ENDBRANCH  21  22
ENDBRANCH  18  21
ENDBRANCH  14  15
ENDBRANCH   1  14
BRANCH   1  27
HETATM   27  N           1     -19.823  -6.075  -7.607  0.00  0.00    -0.066 N 
HETATM   28  H           1     -19.721  -7.112  -7.532  0.00  0.00     0.275 HD
HETATM   29  H           1     -19.055  -5.610  -7.072  0.00  0.00     0.275 HD
HETATM   30  H           1     -19.767  -5.792  -8.612  0.00  0.00     0.275 HD
ENDBRANCH   1  27
TORSDOF 11
ENDMDL
MODEL 2
REMARK VINA RESULT:      -7.2     13.335     15.162
REMARK  11 active torsions:
REMARK  status: ('A' for Active; 'I' for Inactive)
REMARK    1  A    between atoms: C_5  and  O_6 
REMARK    2  A    between atoms: C_5  and  C_7 
REMARK    3  A    between atoms: C_7  and  C_8 
REMARK    4  A    between atoms: C_7  and  N_11 
REMARK       I    between atoms: N_11  and  C_12 
REMARK    5  A    between atoms: C_12  and  C_13 
REMARK    6  A    between atoms: C_13  and  C_14 
REMARK    7  A    between atoms: C_13  and  N_26 
REMARK    8  A    between atoms: C_14  and  C_15 
REMARK    9  A    between atoms: C_18  and  O_19 
REMARK   10  A    between atoms: O_19  and  P_20 
REMARK   11  A    between atoms: P_20  and  O_21 
ROOT
HETATM    1  C           1     -33.576  -4.872 -15.622  0.00  0.00     0.278 C 
ENDROOT
BRANCH   1   2
HETATM    2  C           1     -34.130  -3.939 -14.574  0.00  0.00     0.249 C 
HETATM    3  N           1     -34.016  -4.254 -13.247  0.00  0.00    -0.343 N 
HETATM    4  H           1     -33.560  -5.113 -12.969  0.00  0.00     0.163 HD
HETATM    5  O           1     -34.676  -2.913 -14.906  0.00  0.00    -0.271 OA
BRANCH   3   6
HETATM    6  C           1     -34.549  -3.357 -12.240  0.00  0.00     0.214 C 
BRANCH   6   7
HETATM    7  C           1     -35.528  -4.114 -11.352  0.00  0.00     0.147 C 
HETATM    8  C           1     -34.765  -5.106 -10.485  0.00  0.00     0.042 C 
BRANCH   7   9
HETATM    9  O           1     -36.213  -3.207 -10.531  0.00  0.00    -0.393 OA
HETATM   10  H           1     -37.070  -3.093 -10.905  0.00  0.00     0.210 HD
ENDBRANCH   7   9
ENDBRANCH   6   7
BRANCH   6  11
HETATM   11  C           1     -33.419  -2.820 -11.396  0.00  0.00     0.199 C 
HETATM   12  O           1     -32.295  -3.367 -11.436  0.00  0.00    -0.646 OA
HETATM   13  O           1     -33.605  -1.829 -10.657  0.00  0.00    -0.646 OA
ENDBRANCH   6  11
ENDBRANCH   3   6
ENDBRANCH   1   2
BRANCH   1  14
HETATM   14  C           1     -33.027  -4.060 -16.787  0.00  0.00     0.081 C 
BRANCH  14  15
HETATM   15  C           1     -31.685  -4.595 -17.180  0.00  0.00    -0.056 A 
HETATM   16  C           1     -31.431  -5.964 -17.109  0.00  0.00     0.010 A 
HETATM   17  C           1     -30.181  -6.463 -17.476  0.00  0.00     0.038 A 
HETATM   18  C           1     -29.185  -5.591 -17.914  0.00  0.00     0.081 A 
HETATM   19  C           1     -29.438  -4.221 -17.986  0.00  0.00     0.038 A 
HETATM   20  C           1     -30.689  -3.723 -17.619  0.00  0.00     0.010 A 
BRANCH  18  21
HETATM   21  O           1     -27.970  -6.075 -18.270  0.00  0.00    -0.247 OA
BRANCH  21  22
HETATM   22  P           1     -26.827  -6.166 -17.133  0.00  0.00     0.411 P 
HETATM   23  O           1     -25.519  -6.435 -17.770  0.00  0.00    -0.624 OA
HETATM   24  O           1     -26.763  -4.884 -16.394  0.00  0.00    -0.624 OA
BRANCH  22  25
HETATM   25  O           1     -27.181  -7.361 -16.106  0.00  0.00    -0.300 OA
HETATM   26  H           1     -26.603  -7.233 -15.374  0.00  0.00     0.223 HD
ENDBRANCH  22  25
ENDBRANCH  21  22
ENDBRANCH  18  21
ENDBRANCH  14  15
ENDBRANCH   1  14
BRANCH   1  27
HETATM   27  N           1     -34.667  -5.776 -16.113  0.00  0.00    -0.066 N 
HETATM   28  H           1     -34.426  -6.127 -17.067  0.00  0.00     0.275 HD
HETATM   29  H           1     -35.567  -5.246 -16.154  0.00  0.00     0.275 HD
HETATM   30  H           1     -34.770  -6.586 -15.461  0.00  0.00     0.275 HD
ENDBRANCH   1  27
TORSDOF 11
ENDMDL
MODEL 3
REMARK VINA RESULT:      -7.1     11.987     14.251
REMARK  11 active torsions:
REMARK  status: ('A' for Active; 'I' for Inactive)
REMARK    1  A    between atoms: C_5  and  O_6 
REMARK    2  A    between atoms: C_5  and  C_7 
REMARK    3  A    between atoms: C_7  and  C_8 
REMARK    4  A    between atoms: C_7  and  N_11 
REMARK       I    between atoms: N_11  and  C_12 
REMARK    5  A    between atoms: C_12  and  C_13 
REMARK    6  A    between atoms: C_13  and  C_14 
REMARK    7  A    between atoms: C_13  and  N_26 
REMARK    8  A    between atoms: C_14  and  C_15 
REMARK    9  A    between atoms: C_18  and  O_19 
REMARK   10  A    between atoms: O_19  and  P_20 
REMARK   11  A    between atoms: P_20  and  O_21 
ROOT
HETATM    1  C           1     -32.846  -4.671 -16.878  0.00  0.00     0.278 C 
ENDROOT
BRANCH   1   2
HETATM    2  C           1     -33.697  -4.599 -15.633  0.00  0.00     0.249 C 
HETATM    3  N           1     -33.160  -4.134 -14.463  0.00  0.00    -0.343 N 
HETATM    4  H           1     -32.193  -3.838 -14.433  0.00  0.00     0.163 HD
HETATM    5  O           1     -34.852  -4.953 -15.669  0.00  0.00    -0.271 OA
BRANCH   3   6
HETATM    6  C           1     -33.978  -4.065 -13.267  0.00  0.00     0.214 C 
BRANCH   6   7
HETATM    7  C           1     -33.135  -4.439 -12.055  0.00  0.00     0.147 C 
HETATM    8  C           1     -33.843  -5.529 -11.261  0.00  0.00     0.042 C 
BRANCH   7   9
HETATM    9  O           1     -31.885  -4.909 -12.481  0.00  0.00    -0.393 OA
HETATM   10  H           1     -31.733  -5.725 -12.034  0.00  0.00     0.210 HD
ENDBRANCH   7   9
ENDBRANCH   6   7
BRANCH   6  11
HETATM   11  C           1     -34.505  -2.661 -13.099  0.00  0.00     0.199 C 
HETATM   12  O           1     -34.414  -2.089 -11.991  0.00  0.00    -0.646 OA
HETATM   13  O           1     -35.032  -2.071 -14.066  0.00  0.00    -0.646 OA
ENDBRANCH   6  11
ENDBRANCH   3   6
ENDBRANCH   1   2
BRANCH   1  14
HETATM   14  C           1     -32.142  -6.021 -16.935  0.00  0.00     0.081 C 
BRANCH  14  15
HETATM   15  C           1     -30.662  -5.816 -16.842  0.00  0.00    -0.056 A 
HETATM   16  C           1     -30.067  -5.581 -15.604  0.00  0.00     0.010 A 
HETATM   17  C           1     -28.687  -5.390 -15.517  0.00  0.00     0.038 A 
HETATM   18  C           1     -27.904  -5.436 -16.670  0.00  0.00     0.081 A 
HETATM   19  C           1     -28.499  -5.672 -17.909  0.00  0.00     0.038 A 
HETATM   20  C           1     -29.878  -5.862 -17.995  0.00  0.00     0.010 A 
BRANCH  18  21
HETATM   21  O           1     -26.564  -5.251 -16.586  0.00  0.00    -0.247 OA
BRANCH  21  22
HETATM   22  P           1     -25.667  -6.463 -16.006  0.00  0.00     0.411 P 
HETATM   23  O           1     -26.552  -7.566 -15.570  0.00  0.00    -0.624 OA
HETATM   24  O           1     -24.753  -6.951 -17.063  0.00  0.00    -0.624 OA
BRANCH  22  25
HETATM   25  O           1     -24.801  -5.939 -14.747  0.00  0.00    -0.300 OA
HETATM   26  H           1     -25.223  -5.142 -14.476  0.00  0.00     0.223 HD
ENDBRANCH  22  25
ENDBRANCH  21  22
ENDBRANCH  18  21
ENDBRANCH  14  15
ENDBRANCH   1  14
BRANCH   1  27
HETATM   27  N           1     -31.824  -3.575 -16.848  0.00  0.00    -0.066 N 
HETATM   28  H           1     -32.152  -2.810 -16.216  0.00  0.00     0.275 HD
HETATM   29  H           1     -31.690  -3.197 -17.813  0.00  0.00     0.275 HD
HETATM   30  H           1     -30.916  -3.953 -16.493  0.00  0.00     0.275 HD
ENDBRANCH   1  27
TORSDOF 11
ENDMDL
MODEL 4
REMARK VINA RESULT:      -7.1      3.000      8.795
REMARK  11 active torsions:
REMARK  status: ('A' for Active; 'I' for Inactive)
REMARK    1  A    between atoms: C_5  and  O_6 
REMARK    2  A    between atoms: C_5  and  C_7 
REMARK    3  A    between atoms: C_7  and  C_8 
REMARK    4  A    between atoms: C_7  and  N_11 
REMARK       I    between atoms: N_11  and  C_12 
REMARK    5  A    between atoms: C_12  and  C_13 
REMARK    6  A    between atoms: C_13  and  C_14 
REMARK    7  A    between atoms: C_13  and  N_26 
REMARK    8  A    between atoms: C_14  and  C_15 
REMARK    9  A    between atoms: C_18  and  O_19 
REMARK   10  A    between atoms: O_19  and  P_20 
REMARK   11  A    between atoms: P_20  and  O_21 
ROOT
HETATM    1  C           1     -20.321  -7.497  -5.347  0.00  0.00     0.278 C 
ENDROOT
BRANCH   1   2
HETATM    2  C           1     -20.133  -8.168  -4.009  0.00  0.00     0.249 C 
HETATM    3  N           1     -21.138  -8.135  -3.080  0.00  0.00    -0.343 N 
HETATM    4  H           1     -22.006  -7.661  -3.290  0.00  0.00     0.163 HD
HETATM    5  O           1     -19.096  -8.734  -3.757  0.00  0.00    -0.271 OA
BRANCH   3   6
HETATM    6  C           1     -20.958  -8.780  -1.793  0.00  0.00     0.214 C 
BRANCH   6   7
HETATM    7  C           1     -21.650  -7.960  -0.713  0.00  0.00     0.147 C 
HETATM    8  C           1     -22.229  -6.693  -1.329  0.00  0.00     0.042 C 
BRANCH   7   9
HETATM    9  O           1     -22.685  -8.716  -0.143  0.00  0.00    -0.393 OA
HETATM   10  H           1     -23.490  -8.410  -0.525  0.00  0.00     0.210 HD
ENDBRANCH   7   9
ENDBRANCH   6   7
BRANCH   6  11
HETATM   11  C           1     -21.558 -10.164  -1.836  0.00  0.00     0.199 C 
HETATM   12  O           1     -21.135 -11.052  -1.065  0.00  0.00    -0.646 OA
HETATM   13  O           1     -22.478 -10.422  -2.642  0.00  0.00    -0.646 OA
ENDBRANCH   6  11
ENDBRANCH   3   6
ENDBRANCH   1   2
BRANCH   1  14
HETATM   14  C           1     -20.719  -6.042  -5.135  0.00  0.00     0.081 C 
BRANCH  14  15
HETATM   15  C           1     -21.032  -5.412  -6.457  0.00  0.00    -0.056 A 
HETATM   16  C           1     -22.254  -4.771  -6.653  0.00  0.00     0.010 A 
HETATM   17  C           1     -22.546  -4.183  -7.884  0.00  0.00     0.038 A 
HETATM   18  C           1     -21.612  -4.237  -8.919  0.00  0.00     0.081 A 
HETATM   19  C           1     -20.388  -4.877  -8.723  0.00  0.00     0.038 A 
HETATM   20  C           1     -20.098  -5.465  -7.492  0.00  0.00     0.010 A 
BRANCH  18  21
HETATM   21  O           1     -21.895  -3.666 -10.116  0.00  0.00    -0.247 OA
BRANCH  21  22
HETATM   22  P           1     -23.225  -4.152 -10.892  0.00  0.00     0.411 P 
HETATM   23  O           1     -23.741  -5.386 -10.258  0.00  0.00    -0.624 OA
HETATM   24  O           1     -24.254  -3.091 -10.819  0.00  0.00    -0.624 OA
BRANCH  22  25
HETATM   25  O           1     -22.869  -4.450 -12.439  0.00  0.00    -0.300 OA
HETATM   26  H           1     -23.661  -4.263 -12.911  0.00  0.00     0.223 HD
ENDBRANCH  22  25
ENDBRANCH  21  22
ENDBRANCH  18  21
ENDBRANCH  14  15
ENDBRANCH   1  14
BRANCH   1  27
HETATM   27  N           1     -21.399  -8.203  -6.113  0.00  0.00    -0.066 N 
HETATM   28  H           1     -20.995  -9.040  -6.591  0.00  0.00     0.275 HD
HETATM   29  H           1     -21.801  -7.554  -6.827  0.00  0.00     0.275 HD
HETATM   30  H           1     -22.153  -8.507  -5.456  0.00  0.00     0.275 HD
ENDBRANCH   1  27
TORSDOF 11
ENDMDL
MODEL 5
REMARK VINA RESULT:      -7.0      1.699      2.409
REMARK  11 active torsions:
REMARK  status: ('A' for Active; 'I' for Inactive)
REMARK    1  A    between atoms: C_5  and  O_6 
REMARK    2  A    between atoms: C_5  and  C_7 
REMARK    3  A    between atoms: C_7  and  C_8 
REMARK    4  A    between atoms: C_7  and  N_11 
REMARK       I    between atoms: N_11  and  C_12 
REMARK    5  A    between atoms: C_12  and  C_13 
REMARK    6  A    between atoms: C_13  and  C_14 
REMARK    7  A    between atoms: C_13  and  N_26 
REMARK    8  A    between atoms: C_14  and  C_15 
REMARK    9  A    between atoms: C_18  and  O_19 
REMARK   10  A    between atoms: O_19  and  P_20 
REMARK   11  A    between atoms: P_20  and  O_21 
ROOT
HETATM    1  C           1     -22.408  -5.015  -6.223  0.00  0.00     0.278 C 
ENDROOT
BRANCH   1   2
HETATM    2  C           1     -22.146  -4.185  -7.456  0.00  0.00     0.249 C 
HETATM    3  N           1     -22.660  -4.572  -8.664  0.00  0.00    -0.343 N 
HETATM    4  H           1     -23.216  -5.414  -8.730  0.00  0.00     0.163 HD
HETATM    5  O           1     -21.481  -3.179  -7.377  0.00  0.00    -0.271 OA
BRANCH   3   6
HETATM    6  C           1     -22.407  -3.774  -9.849  0.00  0.00     0.214 C 
BRANCH   6   7
HETATM    7  C           1     -21.201  -4.335 -10.590  0.00  0.00     0.147 C 
HETATM    8  C           1     -20.556  -3.232 -11.419  0.00  0.00     0.042 C 
BRANCH   7   9
HETATM    9  O           1     -20.270  -4.827  -9.664  0.00  0.00    -0.393 OA
HETATM   10  H           1     -19.977  -4.092  -9.153  0.00  0.00     0.210 HD
ENDBRANCH   7   9
ENDBRANCH   6   7
BRANCH   6  11
HETATM   11  C           1     -23.615  -3.818 -10.751  0.00  0.00     0.199 C 
HETATM   12  O           1     -23.672  -4.653 -11.680  0.00  0.00    -0.646 OA
HETATM   13  O           1     -24.560  -3.019 -10.570  0.00  0.00    -0.646 OA
ENDBRANCH   6  11
ENDBRANCH   3   6
ENDBRANCH   1   2
BRANCH   1  14
HETATM   14  C           1     -21.628  -6.320  -6.312  0.00  0.00     0.081 C 
BRANCH  14  15
HETATM   15  C           1     -21.447  -6.888  -4.940  0.00  0.00    -0.056 A 
HETATM   16  C           1     -21.198  -6.041  -3.861  0.00  0.00     0.010 A 
HETATM   17  C           1     -21.030  -6.571  -2.581  0.00  0.00     0.038 A 
HETATM   18  C           1     -21.111  -7.949  -2.381  0.00  0.00     0.081 A 
HETATM   19  C           1     -21.361  -8.797  -3.461  0.00  0.00     0.038 A 
HETATM   20  C           1     -21.529  -8.266  -4.740  0.00  0.00     0.010 A 
BRANCH  18  21
HETATM   21  O           1     -20.948  -8.464  -1.138  0.00  0.00    -0.247 OA
BRANCH  21  22
HETATM   22  P           1     -22.195  -8.382  -0.115  0.00  0.00     0.411 P 
HETATM   23  O           1     -22.988  -7.167  -0.401  0.00  0.00    -0.624 OA
HETATM   24  O           1     -23.048  -9.580  -0.281  0.00  0.00    -0.624 OA
BRANCH  22  25
HETATM   25  O           1     -21.644  -8.321   1.403  0.00  0.00    -0.300 OA
HETATM   26  H           1     -20.736  -8.562   1.342  0.00  0.00     0.223 HD
ENDBRANCH  22  25
ENDBRANCH  21  22
ENDBRANCH  18  21
ENDBRANCH  14  15
ENDBRANCH   1  14
BRANCH   1  27
HETATM   27  N           1     -23.874  -5.315  -6.127  0.00  0.00    -0.066 N 
HETATM   28  H           1     -24.259  -5.484  -7.083  0.00  0.00     0.275 HD
HETATM   29  H           1     -24.368  -4.504  -5.691  0.00  0.00     0.275 HD
HETATM   30  H           1     -24.018  -6.168  -5.539  0.00  0.00     0.275 HD
ENDBRANCH   1  27
TORSDOF 11
ENDMDL
MODEL 6
REMARK VINA RESULT:      -6.4      3.341      8.424
REMARK  11 active torsions:
REMARK  status: ('A' for Active; 'I' for Inactive)
REMARK    1  A    between atoms: C_5  and  O_6 
REMARK    2  A    between atoms: C_5  and  C_7 
REMARK    3  A    between atoms: C_7  and  C_8 
REMARK    4  A    between atoms: C_7  and  N_11 
REMARK       I    between atoms: N_11  and  C_12 
REMARK    5  A    between atoms: C_12  and  C_13 
REMARK    6  A    between atoms: C_13  and  C_14 
REMARK    7  A    between atoms: C_13  and  N_26 
REMARK    8  A    between atoms: C_14  and  C_15 
REMARK    9  A    between atoms: C_18  and  O_19 
REMARK   10  A    between atoms: O_19  and  P_20 
REMARK   11  A    between atoms: P_20  and  O_21 
ROOT
HETATM    1  C           1     -21.381  -7.076  -4.504  0.00  0.00     0.278 C 
ENDROOT
BRANCH   1   2
HETATM    2  C           1     -21.162  -8.511  -4.090  0.00  0.00     0.249 C 
HETATM    3  N           1     -20.445  -9.353  -4.896  0.00  0.00    -0.343 N 
HETATM    4  H           1     -20.062  -9.014  -5.769  0.00  0.00     0.163 HD
HETATM    5  O           1     -21.620  -8.916  -3.048  0.00  0.00    -0.271 OA
BRANCH   3   6
HETATM    6  C           1     -20.234 -10.732  -4.499  0.00  0.00     0.214 C 
BRANCH   6   7
HETATM    7  C           1     -21.035 -11.651  -5.412  0.00  0.00     0.147 C 
HETATM    8  C           1     -22.384 -11.954  -4.773  0.00  0.00     0.042 C 
BRANCH   7   9
HETATM    9  O           1     -21.235 -11.023  -6.649  0.00  0.00    -0.393 OA
HETATM   10  H           1     -20.418 -11.068  -7.115  0.00  0.00     0.210 HD
ENDBRANCH   7   9
ENDBRANCH   6   7
BRANCH   6  11
HETATM   11  C           1     -18.768 -11.069  -4.609  0.00  0.00     0.199 C 
HETATM   12  O           1     -18.016 -10.916  -3.622  0.00  0.00    -0.646 OA
HETATM   13  O           1     -18.304 -11.499  -5.687  0.00  0.00    -0.646 OA
ENDBRANCH   6  11
ENDBRANCH   3   6
ENDBRANCH   1   2
BRANCH   1  14
HETATM   14  C           1     -20.367  -6.694  -5.573  0.00  0.00     0.081 C 
BRANCH  14  15
HETATM   15  C           1     -21.021  -5.813  -6.591  0.00  0.00    -0.056 A 
HETATM   16  C           1     -20.357  -5.504  -7.777  0.00  0.00     0.010 A 
HETATM   17  C           1     -20.968  -4.683  -8.726  0.00  0.00     0.038 A 
HETATM   18  C           1     -22.243  -4.172  -8.487  0.00  0.00     0.081 A 
HETATM   19  C           1     -22.909  -4.481  -7.301  0.00  0.00     0.038 A 
HETATM   20  C           1     -22.297  -5.302  -6.352  0.00  0.00     0.010 A 
BRANCH  18  21
HETATM   21  O           1     -22.837  -3.375  -9.409  0.00  0.00    -0.247 OA
BRANCH  21  22
HETATM   22  P           1     -23.647  -4.082 -10.613  0.00  0.00     0.411 P 
HETATM   23  O           1     -22.785  -4.149 -11.814  0.00  0.00    -0.624 OA
HETATM   24  O           1     -24.037  -5.452 -10.208  0.00  0.00    -0.624 OA
BRANCH  22  25
HETATM   25  O           1     -24.973  -3.223 -10.949  0.00  0.00    -0.300 OA
HETATM   26  H           1     -25.441  -3.737 -11.585  0.00  0.00     0.223 HD
ENDBRANCH  22  25
ENDBRANCH  21  22
ENDBRANCH  18  21
ENDBRANCH  14  15
ENDBRANCH   1  14
BRANCH   1  27
HETATM   27  N           1     -21.212  -6.182  -3.313  0.00  0.00    -0.066 N 
HETATM   28  H           1     -21.976  -5.469  -3.300  0.00  0.00     0.275 HD
HETATM   29  H           1     -20.287  -5.699  -3.368  0.00  0.00     0.275 HD
HETATM   30  H           1     -21.255  -6.752  -2.438  0.00  0.00     0.275 HD
ENDBRANCH   1  27
TORSDOF 11
ENDMDL
MODEL 7
REMARK VINA RESULT:      -6.2      3.404      9.217
REMARK  11 active torsions:
REMARK  status: ('A' for Active; 'I' for Inactive)
REMARK    1  A    between atoms: C_5  and  O_6 
REMARK    2  A    between atoms: C_5  and  C_7 
REMARK    3  A    between atoms: C_7  and  C_8 
REMARK    4  A    between atoms: C_7  and  N_11 
REMARK       I    between atoms: N_11  and  C_12 
REMARK    5  A    between atoms: C_12  and  C_13 
REMARK    6  A    between atoms: C_13  and  C_14 
REMARK    7  A    between atoms: C_13  and  N_26 
REMARK    8  A    between atoms: C_14  and  C_15 
REMARK    9  A    between atoms: C_18  and  O_19 
REMARK   10  A    between atoms: O_19  and  P_20 
REMARK   11  A    between atoms: P_20  and  O_21 
ROOT
HETATM    1  C           1     -20.829  -7.541  -3.504  0.00  0.00     0.278 C 
ENDROOT
BRANCH   1   2
HETATM    2  C           1     -21.544  -7.877  -2.219  0.00  0.00     0.249 C 
HETATM    3  N           1     -21.493  -9.150  -1.719  0.00  0.00    -0.343 N 
HETATM    4  H           1     -20.976  -9.867  -2.212  0.00  0.00     0.163 HD
HETATM    5  O           1     -22.163  -7.022  -1.630  0.00  0.00    -0.271 OA
BRANCH   3   6
HETATM    6  C           1     -22.181  -9.473  -0.484  0.00  0.00     0.214 C 
BRANCH   6   7
HETATM    7  C           1     -22.796 -10.862  -0.594  0.00  0.00     0.147 C 
HETATM    8  C           1     -24.215 -10.835  -0.042  0.00  0.00     0.042 C 
BRANCH   7   9
HETATM    9  O           1     -22.826 -11.256  -1.939  0.00  0.00    -0.393 OA
HETATM   10  H           1     -22.951 -12.189  -1.948  0.00  0.00     0.210 HD
ENDBRANCH   7   9
ENDBRANCH   6   7
BRANCH   6  11
HETATM   11  C           1     -21.198  -9.449   0.660  0.00  0.00     0.199 C 
HETATM   12  O           1     -20.482 -10.447   0.890  0.00  0.00    -0.646 OA
HETATM   13  O           1     -21.099  -8.430   1.378  0.00  0.00    -0.646 OA
ENDBRANCH   6  11
ENDBRANCH   3   6
ENDBRANCH   1   2
BRANCH   1  14
HETATM   14  C           1     -21.687  -7.964  -4.690  0.00  0.00     0.081 C 
BRANCH  14  15
HETATM   15  C           1     -21.759  -6.843  -5.679  0.00  0.00    -0.056 A 
HETATM   16  C           1     -22.852  -5.978  -5.675  0.00  0.00     0.010 A 
HETATM   17  C           1     -22.920  -4.932  -6.596  0.00  0.00     0.038 A 
HETATM   18  C           1     -21.891  -4.753  -7.522  0.00  0.00     0.081 A 
HETATM   19  C           1     -20.796  -5.617  -7.526  0.00  0.00     0.038 A 
HETATM   20  C           1     -20.731  -6.662  -6.604  0.00  0.00     0.010 A 
BRANCH  18  21
HETATM   21  O           1     -21.956  -3.737  -8.417  0.00  0.00    -0.247 OA
BRANCH  21  22
HETATM   22  P           1     -23.095  -3.806  -9.560  0.00  0.00     0.411 P 
HETATM   23  O           1     -22.662  -3.019 -10.735  0.00  0.00    -0.624 OA
HETATM   24  O           1     -23.309  -5.215  -9.960  0.00  0.00    -0.624 OA
BRANCH  22  25
HETATM   25  O           1     -24.476  -3.196  -8.983  0.00  0.00    -0.300 OA
HETATM   26  H           1     -24.807  -3.855  -8.398  0.00  0.00     0.223 HD
ENDBRANCH  22  25
ENDBRANCH  21  22
ENDBRANCH  18  21
ENDBRANCH  14  15
ENDBRANCH   1  14
BRANCH   1  27
HETATM   27  N           1     -19.519  -8.269  -3.552  0.00  0.00    -0.066 N 
HETATM   28  H           1     -19.579  -9.049  -4.245  0.00  0.00     0.275 HD
HETATM   29  H           1     -19.302  -8.659  -2.607  0.00  0.00     0.275 HD
HETATM   30  H           1     -18.762  -7.608  -3.837  0.00  0.00     0.275 HD
ENDBRANCH   1  27
TORSDOF 11
ENDMDL
MODEL 8
REMARK VINA RESULT:      -6.1      3.715      8.837
REMARK  11 active torsions:
REMARK  status: ('A' for Active; 'I' for Inactive)
REMARK    1  A    between atoms: C_5  and  O_6 
REMARK    2  A    between atoms: C_5  and  C_7 
REMARK    3  A    between atoms: C_7  and  C_8 
REMARK    4  A    between atoms: C_7  and  N_11 
REMARK       I    between atoms: N_11  and  C_12 
REMARK    5  A    between atoms: C_12  and  C_13 
REMARK    6  A    between atoms: C_13  and  C_14 
REMARK    7  A    between atoms: C_13  and  N_26 
REMARK    8  A    between atoms: C_14  and  C_15 
REMARK    9  A    between atoms: C_18  and  O_19 
REMARK   10  A    between atoms: O_19  and  P_20 
REMARK   11  A    between atoms: P_20  and  O_21 
ROOT
HETATM    1  C           1     -19.623  -8.529  -3.540  0.00  0.00     0.278 C 
ENDROOT
BRANCH   1   2
HETATM    2  C           1     -20.756  -9.018  -2.672  0.00  0.00     0.249 C 
HETATM    3  N           1     -20.834  -8.626  -1.363  0.00  0.00    -0.343 N 
HETATM    4  H           1     -20.132  -8.008  -0.977  0.00  0.00     0.163 HD
HETATM    5  O           1     -21.595  -9.756  -3.132  0.00  0.00    -0.271 OA
BRANCH   3   6
HETATM    6  C           1     -21.923  -9.096  -0.528  0.00  0.00     0.214 C 
BRANCH   6   7
HETATM    7  C           1     -21.356  -9.803   0.696  0.00  0.00     0.147 C 
HETATM    8  C           1     -20.302 -10.811   0.257  0.00  0.00     0.042 C 
BRANCH   7   9
HETATM    9  O           1     -20.772  -8.859   1.552  0.00  0.00    -0.393 OA
HETATM   10  H           1     -19.838  -8.955   1.468  0.00  0.00     0.210 HD
ENDBRANCH   7   9
ENDBRANCH   6   7
BRANCH   6  11
HETATM   11  C           1     -22.761  -7.922  -0.086  0.00  0.00     0.199 C 
HETATM   12  O           1     -22.740  -6.857  -0.742  0.00  0.00    -0.646 OA
HETATM   13  O           1     -23.475  -8.012   0.936  0.00  0.00    -0.646 OA
ENDBRANCH   6  11
ENDBRANCH   3   6
ENDBRANCH   1   2
BRANCH   1  14
HETATM   14  C           1     -19.972  -8.751  -5.005  0.00  0.00     0.081 C 
BRANCH  14  15
HETATM   15  C           1     -20.509  -7.481  -5.589  0.00  0.00    -0.056 A 
HETATM   16  C           1     -21.814  -7.080  -5.307  0.00  0.00     0.010 A 
HETATM   17  C           1     -22.314  -5.896  -5.850  0.00  0.00     0.038 A 
HETATM   18  C           1     -21.507  -5.114  -6.676  0.00  0.00     0.081 A 
HETATM   19  C           1     -20.200  -5.514  -6.957  0.00  0.00     0.038 A 
HETATM   20  C           1     -19.701  -6.698  -6.414  0.00  0.00     0.010 A 
BRANCH  18  21
HETATM   21  O           1     -21.992  -3.964  -7.204  0.00  0.00    -0.247 OA
BRANCH  21  22
HETATM   22  P           1     -22.651  -4.025  -8.677  0.00  0.00     0.411 P 
HETATM   23  O           1     -21.813  -3.257  -9.623  0.00  0.00    -0.624 OA
HETATM   24  O           1     -22.735  -5.435  -9.121  0.00  0.00    -0.624 OA
BRANCH  22  25
HETATM   25  O           1     -24.134  -3.386  -8.631  0.00  0.00    -0.300 OA
HETATM   26  H           1     -24.055  -2.626  -8.081  0.00  0.00     0.223 HD
ENDBRANCH  22  25
ENDBRANCH  21  22
ENDBRANCH  18  21
ENDBRANCH  14  15
ENDBRANCH   1  14
BRANCH   1  27
HETATM   27  N           1     -18.374  -9.286  -3.204  0.00  0.00    -0.066 N 
HETATM   28  H           1     -17.793  -9.401  -4.065  0.00  0.00     0.275 HD
HETATM   29  H           1     -18.627 -10.227  -2.827  0.00  0.00     0.275 HD
HETATM   30  H           1     -17.827  -8.759  -2.485  0.00  0.00     0.275 HD
ENDBRANCH   1  27
TORSDOF 11
ENDMDL
MODEL 9
REMARK VINA RESULT:      -6.0      4.870      9.890
REMARK  11 active torsions:
REMARK  status: ('A' for Active; 'I' for Inactive)
REMARK    1  A    between atoms: C_5  and  O_6 
REMARK    2  A    between atoms: C_5  and  C_7 
REMARK    3  A    between atoms: C_7  and  C_8 
REMARK    4  A    between atoms: C_7  and  N_11 
REMARK       I    between atoms: N_11  and  C_12 
REMARK    5  A    between atoms: C_12  and  C_13 
REMARK    6  A    between atoms: C_13  and  C_14 
REMARK    7  A    between atoms: C_13  and  N_26 
REMARK    8  A    between atoms: C_14  and  C_15 
REMARK    9  A    between atoms: C_18  and  O_19 
REMARK   10  A    between atoms: O_19  and  P_20 
REMARK   11  A    between atoms: P_20  and  O_21 
ROOT
HETATM    1  C           1     -22.460  -8.698  -0.279  0.00  0.00     0.278 C 
ENDROOT
BRANCH   1   2
HETATM    2  C           1     -21.672  -9.780   0.416  0.00  0.00     0.249 C 
HETATM    3  N           1     -21.901 -11.096   0.115  0.00  0.00    -0.343 N 
HETATM    4  H           1     -22.600 -11.342  -0.574  0.00  0.00     0.163 HD
HETATM    5  O           1     -20.837  -9.487   1.240  0.00  0.00    -0.271 OA
BRANCH   3   6
HETATM    6  C           1     -21.144 -12.136   0.783  0.00  0.00     0.214 C 
BRANCH   6   7
HETATM    7  C           1     -22.095 -13.211   1.291  0.00  0.00     0.147 C 
HETATM    8  C           1     -23.516 -12.879   0.856  0.00  0.00     0.042 C 
BRANCH   7   9
HETATM    9  O           1     -21.724 -14.454   0.761  0.00  0.00    -0.393 OA
HETATM   10  H           1     -21.448 -14.990   1.485  0.00  0.00     0.210 HD
ENDBRANCH   7   9
ENDBRANCH   6   7
BRANCH   6  11
HETATM   11  C           1     -20.167 -12.750  -0.189  0.00  0.00     0.199 C 
HETATM   12  O           1     -19.052 -13.148   0.213  0.00  0.00    -0.646 OA
HETATM   13  O           1     -20.472 -12.861  -1.396  0.00  0.00    -0.646 OA
ENDBRANCH   6  11
ENDBRANCH   3   6
ENDBRANCH   1   2
BRANCH   1  14
HETATM   14  C           1     -21.540  -7.531  -0.609  0.00  0.00     0.081 C 
BRANCH  14  15
HETATM   15  C           1     -21.384  -7.423  -2.094  0.00  0.00    -0.056 A 
HETATM   16  C           1     -22.145  -6.500  -2.811  0.00  0.00     0.010 A 
HETATM   17  C           1     -21.999  -6.399  -4.195  0.00  0.00     0.038 A 
HETATM   18  C           1     -21.091  -7.221  -4.861  0.00  0.00     0.081 A 
HETATM   19  C           1     -20.328  -8.144  -4.144  0.00  0.00     0.038 A 
HETATM   20  C           1     -20.475  -8.244  -2.761  0.00  0.00     0.010 A 
BRANCH  18  21
HETATM   21  O           1     -20.948  -7.123  -6.205  0.00  0.00    -0.247 OA
BRANCH  21  22
HETATM   22  P           1     -20.669  -5.661  -6.833  0.00  0.00     0.411 P 
HETATM   23  O           1     -21.953  -4.945  -7.002  0.00  0.00    -0.624 OA
HETATM   24  O           1     -19.790  -4.893  -5.923  0.00  0.00    -0.624 OA
BRANCH  22  25
HETATM   25  O           1     -19.948  -5.820  -8.270  0.00  0.00    -0.300 OA
HETATM   26  H           1     -19.712  -6.729  -8.324  0.00  0.00     0.223 HD
ENDBRANCH  22  25
ENDBRANCH  21  22
ENDBRANCH  18  21
ENDBRANCH  14  15
ENDBRANCH   1  14
BRANCH   1  27
HETATM   27  N           1     -23.562  -8.226   0.622  0.00  0.00    -0.066 N 
HETATM   28  H           1     -24.446  -8.134   0.073  0.00  0.00     0.275 HD
HETATM   29  H           1     -23.306  -7.298   1.028  0.00  0.00     0.275 HD
HETATM   30  H           1     -23.703  -8.917   1.394  0.00  0.00     0.275 HD
ENDBRANCH   1  27
TORSDOF 11
ENDMDL
