MODEL 1
REMARK VINA RESULT:      -6.5      0.000      0.000
REMARK  7 active torsions:
REMARK  status: ('A' for Active; 'I' for Inactive)
REMARK    1  A    between atoms: N_1  and  C_12 
REMARK    2  A    between atoms: C_6  and  C_8 
REMARK    3  A    between atoms: C_8  and  C_11 
REMARK    4  A    between atoms: C_8  and  N_20 
REMARK    5  A    between atoms: C_9  and  C_11 
REMARK    6  A    between atoms: C_12  and  C_13 
REMARK    7  A    between atoms: C_12  and  C_14 
REMARK       I    between atoms: C_13  and  N_20 
ROOT
HETATM    1  C           1     -34.470  -2.269 -12.023  0.00  0.00     0.249 C 
HETATM    2  H           1     -35.756  -1.890 -13.602  0.00  0.00     0.163 HD
HETATM    3  O           1     -33.865  -1.779 -11.100  0.00  0.00    -0.271 OA
HETATM    4  N           1     -35.247  -1.479 -12.829  0.00  0.00    -0.344 N 
ENDROOT
BRANCH   1   5
HETATM    5  C           1     -34.372  -3.751 -12.288  0.00  0.00     0.278 C 
BRANCH   5   6
HETATM    6  N           1     -33.921  -3.975 -13.701  0.00  0.00    -0.066 N 
HETATM    7  H           1     -33.464  -3.107 -14.063  0.00  0.00     0.275 HD
HETATM    8  H           1     -33.237  -4.765 -13.727  0.00  0.00     0.275 HD
HETATM    9  H           1     -34.747  -4.208 -14.298  0.00  0.00     0.275 HD
ENDBRANCH   5   6
BRANCH   5  10
HETATM   10  C           1     -33.365  -4.373 -11.330  0.00  0.00     0.017 C 
HETATM   11  C           1     -33.948  -5.648 -10.737  0.00  0.00     0.012 C 
HETATM   12  C           1     -32.084  -4.704 -12.084  0.00  0.00     0.012 C 
ENDBRANCH   5  10
ENDBRANCH   1   5
BRANCH   4  13
HETATM   13  C           1     -35.342  -0.054 -12.573  0.00  0.00     0.195 C 
BRANCH  13  14
HETATM   14  C           1     -36.501   0.214 -11.646  0.00  0.00     0.197 C 
HETATM   15  O           1     -37.674   0.105 -12.063  0.00  0.00    -0.646 OA
HETATM   16  O           1     -36.289   0.545 -10.459  0.00  0.00    -0.646 OA
ENDBRANCH  13  14
BRANCH  13  17
HETATM   17  C           1     -35.562   0.682 -13.888  0.00  0.00     0.149 C 
BRANCH  17  18
HETATM   18  C           1     -35.802  -0.320 -14.991  0.00  0.00     0.175 C 
HETATM   19  O           1     -36.961  -0.729 -15.223  0.00  0.00    -0.648 OA
HETATM   20  O           1     -34.843  -0.741 -15.673  0.00  0.00    -0.648 OA
ENDBRANCH  17  18
ENDBRANCH  13  17
ENDBRANCH   4  13
TORSDOF 7
ENDMDL
MODEL 2
REMARK VINA RESULT:      -5.8     11.709     14.044
REMARK  7 active torsions:
REMARK  status: ('A' for Active; 'I' for Inactive)
REMARK    1  A    between atoms: N_1  and  C_12 
REMARK    2  A    between atoms: C_6  and  C_8 
REMARK    3  A    between atoms: C_8  and  C_11 
REMARK    4  A    between atoms: C_8  and  N_20 
REMARK    5  A    between atoms: C_9  and  C_11 
REMARK    6  A    between atoms: C_12  and  C_13 
REMARK    7  A    between atoms: C_12  and  C_14 
REMARK       I    between atoms: C_13  and  N_20 
ROOT
HETATM    1  C           1     -22.083  -4.166  -7.545  0.00  0.00     0.249 C 
HETATM    2  H           1     -23.225  -5.455  -8.693  0.00  0.00     0.163 HD
HETATM    3  O           1     -21.547  -3.083  -7.508  0.00  0.00    -0.271 OA
HETATM    4  N           1     -22.776  -4.549  -8.662  0.00  0.00    -0.344 N 
ENDROOT
BRANCH   1   5
HETATM    5  C           1     -21.989  -5.095  -6.359  0.00  0.00     0.278 C 
BRANCH   5   6
HETATM    6  N           1     -23.368  -5.512  -5.943  0.00  0.00    -0.066 N 
HETATM    7  H           1     -23.432  -5.511  -4.899  0.00  0.00     0.275 HD
HETATM    8  H           1     -24.068  -4.843  -6.336  0.00  0.00     0.275 HD
HETATM    9  H           1     -23.564  -6.474  -6.302  0.00  0.00     0.275 HD
ENDBRANCH   5   6
BRANCH   5  10
HETATM   10  C           1     -21.179  -6.326  -6.742  0.00  0.00     0.017 C 
HETATM   11  C           1     -19.722  -5.935  -6.943  0.00  0.00     0.012 C 
HETATM   12  C           1     -21.278  -7.363  -5.631  0.00  0.00     0.012 C 
ENDBRANCH   5  10
ENDBRANCH   1   5
BRANCH   4  13
HETATM   13  C           1     -22.866  -3.656  -9.801  0.00  0.00     0.195 C 
BRANCH  13  14
HETATM   14  C           1     -24.316  -3.430 -10.149  0.00  0.00     0.197 C 
HETATM   15  O           1     -25.072  -2.853  -9.338  0.00  0.00    -0.646 OA
HETATM   16  O           1     -24.763  -3.822 -11.250  0.00  0.00    -0.646 OA
ENDBRANCH  13  14
BRANCH  13  17
HETATM   17  C           1     -22.149  -4.280 -10.992  0.00  0.00     0.149 C 
BRANCH  17  18
HETATM   18  C           1     -20.666  -4.018 -10.880  0.00  0.00     0.175 C 
HETATM   19  O           1     -20.188  -2.943 -11.301  0.00  0.00    -0.648 OA
HETATM   20  O           1     -19.918  -4.877 -10.366  0.00  0.00    -0.648 OA
ENDBRANCH  17  18
ENDBRANCH  13  17
ENDBRANCH   4  13
TORSDOF 7
ENDMDL
MODEL 3
REMARK VINA RESULT:      -5.7      9.306     11.320
REMARK  7 active torsions:
REMARK  status: ('A' for Active; 'I' for Inactive)
REMARK    1  A    between atoms: N_1  and  C_12 
REMARK    2  A    between atoms: C_6  and  C_8 
REMARK    3  A    between atoms: C_8  and  C_11 
REMARK    4  A    between atoms: C_8  and  N_20 
REMARK    5  A    between atoms: C_9  and  C_11 
REMARK    6  A    between atoms: C_12  and  C_13 
REMARK    7  A    between atoms: C_12  and  C_14 
REMARK       I    between atoms: C_13  and  N_20 
ROOT
HETATM    1  C           1     -27.176  -6.505 -19.813  0.00  0.00     0.249 C 
HETATM    2  H           1     -27.791  -7.319 -18.011  0.00  0.00     0.163 HD
HETATM    3  O           1     -27.300  -5.574 -20.572  0.00  0.00    -0.271 OA
HETATM    4  N           1     -27.895  -6.539 -18.647  0.00  0.00    -0.344 N 
ENDROOT
BRANCH   1   5
HETATM    5  C           1     -26.228  -7.631 -20.147  0.00  0.00     0.278 C 
BRANCH   5   6
HETATM    6  N           1     -26.823  -8.479 -21.231  0.00  0.00    -0.066 N 
HETATM    7  H           1     -26.093  -9.127 -21.607  0.00  0.00     0.275 HD
HETATM    8  H           1     -27.616  -9.038 -20.840  0.00  0.00     0.275 HD
HETATM    9  H           1     -27.174  -7.866 -22.000  0.00  0.00     0.275 HD
ENDBRANCH   5   6
BRANCH   5  10
HETATM   10  C           1     -24.902  -7.053 -20.625  0.00  0.00     0.017 C 
HETATM   11  C           1     -23.887  -7.106 -19.492  0.00  0.00     0.012 C 
HETATM   12  C           1     -24.390  -7.869 -21.804  0.00  0.00     0.012 C 
ENDBRANCH   5  10
ENDBRANCH   1   5
BRANCH   4  13
HETATM   13  C           1     -28.807  -5.458 -18.327  0.00  0.00     0.195 C 
BRANCH  13  14
HETATM   14  C           1     -28.204  -4.597 -17.244  0.00  0.00     0.197 C 
HETATM   15  O           1     -28.635  -3.440 -17.051  0.00  0.00    -0.646 OA
HETATM   16  O           1     -27.270  -5.041 -16.540  0.00  0.00    -0.646 OA
ENDBRANCH  13  14
BRANCH  13  17
HETATM   17  C           1     -30.128  -6.037 -17.838  0.00  0.00     0.149 C 
BRANCH  17  18
HETATM   18  C           1     -30.082  -7.543 -17.932  0.00  0.00     0.175 C 
HETATM   19  O           1     -29.539  -8.210 -17.025  0.00  0.00    -0.648 OA
HETATM   20  O           1     -30.586  -8.123 -18.917  0.00  0.00    -0.648 OA
ENDBRANCH  17  18
ENDBRANCH  13  17
ENDBRANCH   4  13
TORSDOF 7
ENDMDL
MODEL 4
REMARK VINA RESULT:      -5.6      8.980     10.972
REMARK  7 active torsions:
REMARK  status: ('A' for Active; 'I' for Inactive)
REMARK    1  A    between atoms: N_1  and  C_12 
REMARK    2  A    between atoms: C_6  and  C_8 
REMARK    3  A    between atoms: C_8  and  C_11 
REMARK    4  A    between atoms: C_8  and  N_20 
REMARK    5  A    between atoms: C_9  and  C_11 
REMARK    6  A    between atoms: C_12  and  C_13 
REMARK    7  A    between atoms: C_12  and  C_14 
REMARK       I    between atoms: C_13  and  N_20 
ROOT
HETATM    1  C           1     -26.239  -6.340 -18.050  0.00  0.00     0.249 C 
HETATM    2  H           1     -27.598  -6.603 -19.590  0.00  0.00     0.163 HD
HETATM    3  O           1     -26.110  -6.084 -16.876  0.00  0.00    -0.271 OA
HETATM    4  N           1     -27.489  -6.387 -18.607  0.00  0.00    -0.344 N 
ENDROOT
BRANCH   1   5
HETATM    5  C           1     -25.023  -6.608 -18.902  0.00  0.00     0.278 C 
BRANCH   5   6
HETATM    6  N           1     -24.168  -7.646 -18.237  0.00  0.00    -0.066 N 
HETATM    7  H           1     -24.504  -7.800 -17.259  0.00  0.00     0.275 HD
HETATM    8  H           1     -24.231  -8.543 -18.772  0.00  0.00     0.275 HD
HETATM    9  H           1     -23.176  -7.319 -18.217  0.00  0.00     0.275 HD
ENDBRANCH   5   6
BRANCH   5  10
HETATM   10  C           1     -25.462  -7.112 -20.270  0.00  0.00     0.017 C 
HETATM   11  C           1     -25.537  -5.943 -21.242  0.00  0.00     0.012 C 
HETATM   12  C           1     -24.455  -8.133 -20.781  0.00  0.00     0.012 C 
ENDBRANCH   5  10
ENDBRANCH   1   5
BRANCH   4  13
HETATM   13  C           1     -28.658  -6.129 -17.788  0.00  0.00     0.195 C 
BRANCH  13  14
HETATM   14  C           1     -29.548  -7.347 -17.785  0.00  0.00     0.197 C 
HETATM   15  O           1     -30.475  -7.447 -18.618  0.00  0.00    -0.646 OA
HETATM   16  O           1     -29.359  -8.258 -16.949  0.00  0.00    -0.646 OA
ENDBRANCH  13  14
BRANCH  13  17
HETATM   17  C           1     -29.424  -4.942 -18.359  0.00  0.00     0.149 C 
BRANCH  17  18
HETATM   18  C           1     -29.250  -3.749 -17.451  0.00  0.00     0.175 C 
HETATM   19  O           1     -30.166  -2.904 -17.347  0.00  0.00    -0.648 OA
HETATM   20  O           1     -28.191  -3.606 -16.803  0.00  0.00    -0.648 OA
ENDBRANCH  17  18
ENDBRANCH  13  17
ENDBRANCH   4  13
TORSDOF 7
ENDMDL
MODEL 5
REMARK VINA RESULT:      -5.3     16.301     18.493
REMARK  7 active torsions:
REMARK  status: ('A' for Active; 'I' for Inactive)
REMARK    1  A    between atoms: N_1  and  C_12 
REMARK    2  A    between atoms: C_6  and  C_8 
REMARK    3  A    between atoms: C_8  and  C_11 
REMARK    4  A    between atoms: C_8  and  N_20 
REMARK    5  A    between atoms: C_9  and  C_11 
REMARK    6  A    between atoms: C_12  and  C_13 
REMARK    7  A    between atoms: C_12  and  C_14 
REMARK       I    between atoms: C_13  and  N_20 
ROOT
HETATM    1  C           1     -21.334  -8.505  -2.199  0.00  0.00     0.249 C 
HETATM    2  H           1     -20.395  -6.965  -3.216  0.00  0.00     0.163 HD
HETATM    3  O           1     -21.766  -9.630  -2.285  0.00  0.00    -0.271 OA
HETATM    4  N           1     -20.757  -7.907  -3.288  0.00  0.00    -0.344 N 
ENDROOT
BRANCH   1   5
HETATM    5  C           1     -21.430  -7.758  -0.891  0.00  0.00     0.278 C 
BRANCH   5   6
HETATM    6  N           1     -22.337  -6.575  -1.058  0.00  0.00    -0.066 N 
HETATM    7  H           1     -23.298  -6.905  -1.304  0.00  0.00     0.275 HD
HETATM    8  H           1     -22.373  -6.035  -0.163  0.00  0.00     0.275 HD
HETATM    9  H           1     -21.973  -5.962  -1.822  0.00  0.00     0.275 HD
ENDBRANCH   5   6
BRANCH   5  10
HETATM   10  C           1     -21.993  -8.681   0.181  0.00  0.00     0.017 C 
HETATM   11  C           1     -21.047  -8.710   1.374  0.00  0.00     0.012 C 
HETATM   12  C           1     -23.356  -8.169   0.627  0.00  0.00     0.012 C 
ENDBRANCH   5  10
ENDBRANCH   1   5
BRANCH   4  13
HETATM   13  C           1     -20.666  -8.626  -4.545  0.00  0.00     0.195 C 
BRANCH  13  14
HETATM   14  C           1     -19.216  -8.879  -4.874  0.00  0.00     0.197 C 
HETATM   15  O           1     -18.407  -9.160  -3.963  0.00  0.00    -0.646 OA
HETATM   16  O           1     -18.821  -8.807  -6.059  0.00  0.00    -0.646 OA
ENDBRANCH  13  14
BRANCH  13  17
HETATM   17  C           1     -21.300  -7.792  -5.651  0.00  0.00     0.149 C 
BRANCH  17  18
HETATM   18  C           1     -21.623  -6.416  -5.122  0.00  0.00     0.175 C 
HETATM   19  O           1     -22.770  -6.165  -4.693  0.00  0.00    -0.648 OA
HETATM   20  O           1     -20.744  -5.528  -5.112  0.00  0.00    -0.648 OA
ENDBRANCH  17  18
ENDBRANCH  13  17
ENDBRANCH   4  13
TORSDOF 7
ENDMDL
MODEL 6
REMARK VINA RESULT:      -5.2     24.809     26.204
REMARK  7 active torsions:
REMARK  status: ('A' for Active; 'I' for Inactive)
REMARK    1  A    between atoms: N_1  and  C_12 
REMARK    2  A    between atoms: C_6  and  C_8 
REMARK    3  A    between atoms: C_8  and  C_11 
REMARK    4  A    between atoms: C_8  and  N_20 
REMARK    5  A    between atoms: C_9  and  C_11 
REMARK    6  A    between atoms: C_12  and  C_13 
REMARK    7  A    between atoms: C_12  and  C_14 
REMARK       I    between atoms: C_13  and  N_20 
ROOT
HETATM    1  C           1     -11.170   6.418 -19.844  0.00  0.00     0.249 C 
HETATM    2  H           1     -12.420   6.071 -21.457  0.00  0.00     0.163 HD
HETATM    3  O           1     -10.630   5.920 -18.885  0.00  0.00    -0.271 OA
HETATM    4  N           1     -11.969   5.654 -20.653  0.00  0.00    -0.344 N 
ENDROOT
BRANCH   1   5
HETATM    5  C           1     -10.963   7.881 -20.152  0.00  0.00     0.278 C 
BRANCH   5   6
HETATM    6  N           1     -10.222   8.528 -19.020  0.00  0.00    -0.066 N 
HETATM    7  H           1      -9.592   7.826 -18.569  0.00  0.00     0.275 HD
HETATM    8  H           1      -9.651   9.323 -19.387  0.00  0.00     0.275 HD
HETATM    9  H           1     -10.906   8.885 -18.315  0.00  0.00     0.275 HD
ENDBRANCH   5   6
BRANCH   5  10
HETATM   10  C           1     -10.154   8.021 -21.434  0.00  0.00     0.017 C 
HETATM   11  C           1     -11.048   8.558 -22.543  0.00  0.00     0.012 C 
HETATM   12  C           1      -8.999   8.986 -21.202  0.00  0.00     0.012 C 
ENDBRANCH   5  10
ENDBRANCH   1   5
BRANCH   4  13
HETATM   13  C           1     -12.167   4.248 -20.357  0.00  0.00     0.195 C 
BRANCH  13  14
HETATM   14  C           1     -11.199   3.423 -21.169  0.00  0.00     0.197 C 
HETATM   15  O           1     -10.840   2.298 -20.760  0.00  0.00    -0.646 OA
HETATM   16  O           1     -10.755   3.865 -22.251  0.00  0.00    -0.646 OA
ENDBRANCH  13  14
BRANCH  13  17
HETATM   17  C           1     -13.594   3.852 -20.713  0.00  0.00     0.149 C 
BRANCH  17  18
HETATM   18  C           1     -14.483   5.071 -20.654  0.00  0.00     0.175 C 
HETATM   19  O           1     -14.908   5.482 -19.552  0.00  0.00    -0.648 OA
HETATM   20  O           1     -14.794   5.669 -21.706  0.00  0.00    -0.648 OA
ENDBRANCH  17  18
ENDBRANCH  13  17
ENDBRANCH   4  13
TORSDOF 7
ENDMDL
MODEL 7
REMARK VINA RESULT:      -5.1     25.307     26.445
REMARK  7 active torsions:
REMARK  status: ('A' for Active; 'I' for Inactive)
REMARK    1  A    between atoms: N_1  and  C_12 
REMARK    2  A    between atoms: C_6  and  C_8 
REMARK    3  A    between atoms: C_8  and  C_11 
REMARK    4  A    between atoms: C_8  and  N_20 
REMARK    5  A    between atoms: C_9  and  C_11 
REMARK    6  A    between atoms: C_12  and  C_13 
REMARK    7  A    between atoms: C_12  and  C_14 
REMARK       I    between atoms: C_13  and  N_20 
ROOT
HETATM    1  C           1     -12.544   6.451 -20.698  0.00  0.00     0.249 C 
HETATM    2  H           1     -11.257   7.594 -21.850  0.00  0.00     0.163 HD
HETATM    3  O           1     -13.281   6.452 -19.741  0.00  0.00    -0.271 OA
HETATM    4  N           1     -11.874   7.594 -21.048  0.00  0.00    -0.344 N 
ENDROOT
BRANCH   1   5
HETATM    5  C           1     -12.362   5.192 -21.509  0.00  0.00     0.278 C 
BRANCH   5   6
HETATM    6  N           1     -10.960   5.141 -22.042  0.00  0.00    -0.066 N 
HETATM    7  H           1     -10.953   4.626 -22.953  0.00  0.00     0.275 HD
HETATM    8  H           1     -10.608   6.114 -22.190  0.00  0.00     0.275 HD
HETATM    9  H           1     -10.345   4.646 -21.358  0.00  0.00     0.275 HD
ENDBRANCH   5   6
BRANCH   5  10
HETATM   10  C           1     -12.613   3.977 -20.626  0.00  0.00     0.017 C 
HETATM   11  C           1     -13.353   2.913 -21.424  0.00  0.00     0.012 C 
HETATM   12  C           1     -11.282   3.416 -20.145  0.00  0.00     0.012 C 
ENDBRANCH   5  10
ENDBRANCH   1   5
BRANCH   4  13
HETATM   13  C           1     -12.049   8.804 -20.267  0.00  0.00     0.195 C 
BRANCH  13  14
HETATM   14  C           1     -12.629   9.886 -21.143  0.00  0.00     0.197 C 
HETATM   15  O           1     -13.640   9.653 -21.841  0.00  0.00    -0.646 OA
HETATM   16  O           1     -12.099  11.018 -21.172  0.00  0.00    -0.646 OA
ENDBRANCH  13  14
BRANCH  13  17
HETATM   17  C           1     -10.699   9.257 -19.726  0.00  0.00     0.149 C 
BRANCH  17  18
HETATM   18  C           1      -9.599   8.738 -20.621  0.00  0.00     0.175 C 
HETATM   19  O           1      -9.142   9.460 -21.533  0.00  0.00    -0.648 OA
HETATM   20  O           1      -9.146   7.587 -20.449  0.00  0.00    -0.648 OA
ENDBRANCH  17  18
ENDBRANCH  13  17
ENDBRANCH   4  13
TORSDOF 7
ENDMDL
MODEL 8
REMARK VINA RESULT:      -5.1     16.370     18.004
REMARK  7 active torsions:
REMARK  status: ('A' for Active; 'I' for Inactive)
REMARK    1  A    between atoms: N_1  and  C_12 
REMARK    2  A    between atoms: C_6  and  C_8 
REMARK    3  A    between atoms: C_8  and  C_11 
REMARK    4  A    between atoms: C_8  and  N_20 
REMARK    5  A    between atoms: C_9  and  C_11 
REMARK    6  A    between atoms: C_12  and  C_13 
REMARK    7  A    between atoms: C_12  and  C_14 
REMARK       I    between atoms: C_13  and  N_20 
ROOT
HETATM    1  C           1     -20.684  -7.609  -4.818  0.00  0.00     0.249 C 
HETATM    2  H           1     -22.349  -7.399  -3.606  0.00  0.00     0.163 HD
HETATM    3  O           1     -19.583  -8.097  -4.912  0.00  0.00    -0.271 OA
HETATM    4  N           1     -21.427  -7.808  -3.685  0.00  0.00    -0.344 N 
ENDROOT
BRANCH   1   5
HETATM    5  C           1     -21.241  -6.781  -5.950  0.00  0.00     0.278 C 
BRANCH   5   6
HETATM    6  N           1     -22.404  -5.975  -5.452  0.00  0.00    -0.066 N 
HETATM    7  H           1     -22.794  -6.422  -4.591  0.00  0.00     0.275 HD
HETATM    8  H           1     -22.084  -5.006  -5.226  0.00  0.00     0.275 HD
HETATM    9  H           1     -23.143  -5.937  -6.190  0.00  0.00     0.275 HD
ENDBRANCH   5   6
BRANCH   5  10
HETATM   10  C           1     -20.161  -5.844  -6.475  0.00  0.00     0.017 C 
HETATM   11  C           1     -20.516  -5.398  -7.886  0.00  0.00     0.012 C 
HETATM   12  C           1     -20.064  -4.625  -5.567  0.00  0.00     0.012 C 
ENDBRANCH   5  10
ENDBRANCH   1   5
BRANCH   4  13
HETATM   13  C           1     -20.890  -8.603  -2.597  0.00  0.00     0.195 C 
BRANCH  13  14
HETATM   14  C           1     -21.748  -9.828  -2.401  0.00  0.00     0.197 C 
HETATM   15  O           1     -21.822 -10.367  -1.275  0.00  0.00    -0.646 OA
HETATM   16  O           1     -22.386 -10.306  -3.364  0.00  0.00    -0.646 OA
ENDBRANCH  13  14
BRANCH  13  17
HETATM   17  C           1     -20.886  -7.775  -1.319  0.00  0.00     0.149 C 
BRANCH  17  18
HETATM   18  C           1     -22.115  -6.898  -1.284  0.00  0.00     0.175 C 
HETATM   19  O           1     -22.206  -5.919  -2.056  0.00  0.00    -0.648 OA
HETATM   20  O           1     -23.040  -7.151  -0.483  0.00  0.00    -0.648 OA
ENDBRANCH  17  18
ENDBRANCH  13  17
ENDBRANCH   4  13
TORSDOF 7
ENDMDL
MODEL 9
REMARK VINA RESULT:      -5.0      9.322     11.447
REMARK  7 active torsions:
REMARK  status: ('A' for Active; 'I' for Inactive)
REMARK    1  A    between atoms: N_1  and  C_12 
REMARK    2  A    between atoms: C_6  and  C_8 
REMARK    3  A    between atoms: C_8  and  C_11 
REMARK    4  A    between atoms: C_8  and  N_20 
REMARK    5  A    between atoms: C_9  and  C_11 
REMARK    6  A    between atoms: C_12  and  C_13 
REMARK    7  A    between atoms: C_12  and  C_14 
REMARK       I    between atoms: C_13  and  N_20 
ROOT
HETATM    1  C           1     -25.988  -6.611 -18.535  0.00  0.00     0.249 C 
HETATM    2  H           1     -28.045  -6.523 -18.316  0.00  0.00     0.163 HD
HETATM    3  O           1     -24.926  -6.423 -17.992  0.00  0.00    -0.271 OA
HETATM    4  N           1     -27.155  -6.365 -17.861  0.00  0.00    -0.344 N 
ENDROOT
BRANCH   1   5
HETATM    5  C           1     -26.031  -7.118 -19.956  0.00  0.00     0.278 C 
BRANCH   5   6
HETATM    6  N           1     -27.082  -6.370 -20.721  0.00  0.00    -0.066 N 
HETATM    7  H           1     -26.900  -5.343 -20.651  0.00  0.00     0.275 HD
HETATM    8  H           1     -27.055  -6.660 -21.725  0.00  0.00     0.275 HD
HETATM    9  H           1     -28.023  -6.584 -20.320  0.00  0.00     0.275 HD
ENDBRANCH   5   6
BRANCH   5  10
HETATM   10  C           1     -24.674  -6.901 -20.614  0.00  0.00     0.017 C 
HETATM   11  C           1     -24.078  -8.246 -21.005  0.00  0.00     0.012 C 
HETATM   12  C           1     -24.847  -6.041 -21.859  0.00  0.00     0.012 C 
ENDBRANCH   5  10
ENDBRANCH   1   5
BRANCH   4  13
HETATM   13  C           1     -27.114  -5.877 -16.496  0.00  0.00     0.195 C 
BRANCH  13  14
HETATM   14  C           1     -26.933  -7.041 -15.553  0.00  0.00     0.197 C 
HETATM   15  O           1     -27.931  -7.619 -15.073  0.00  0.00    -0.646 OA
HETATM   16  O           1     -25.782  -7.427 -15.250  0.00  0.00    -0.646 OA
ENDBRANCH  13  14
BRANCH  13  17
HETATM   17  C           1     -28.419  -5.161 -16.174  0.00  0.00     0.149 C 
BRANCH  17  18
HETATM   18  C           1     -28.738  -4.179 -17.275  0.00  0.00     0.175 C 
HETATM   19  O           1     -28.482  -2.965 -17.123  0.00  0.00    -0.648 OA
HETATM   20  O           1     -29.258  -4.579 -18.338  0.00  0.00    -0.648 OA
ENDBRANCH  17  18
ENDBRANCH  13  17
ENDBRANCH   4  13
TORSDOF 7
ENDMDL
