MODEL 1
REMARK VINA RESULT:      -5.4      0.000      0.000
REMARK  7 active torsions:
REMARK  status: ('A' for Active; 'I' for Inactive)
REMARK    1  A    between atoms: C_1  and  C_7 
REMARK    2  A    between atoms: C_1  and  C_9 
REMARK    3  A    between atoms: N_2  and  C_8 
REMARK       I    between atoms: N_2  and  C_12 
REMARK    4  A    between atoms: N_3  and  C_7 
REMARK    5  A    between atoms: C_7  and  C_12 
REMARK    6  A    between atoms: C_8  and  C_10 
REMARK    7  A    between atoms: C_9  and  S_11 
ROOT
HETATM    1  C           1     -34.602  -1.398 -12.032  0.00  0.00     0.275 C 
ENDROOT
BRANCH   1   2
HETATM    2  C           1     -34.181  -2.827 -12.348  0.00  0.00     0.053 C 
BRANCH   2   3
HETATM    3  C           1     -33.293  -3.355 -11.229  0.00  0.00     0.076 C 
BRANCH   3   4
HETATM    4  S           1     -33.975  -4.916 -10.600  0.00  0.00    -0.173 SA
HETATM    5  C           1     -34.834  -5.386 -12.129  0.00  0.00     0.089 C 
ENDBRANCH   3   4
ENDBRANCH   2   3
ENDBRANCH   1   2
BRANCH   1   6
HETATM    6  N           1     -35.359  -1.375 -10.738  0.00  0.00    -0.066 N 
HETATM    7  H           1     -36.168  -2.034 -10.795  0.00  0.00     0.275 HD
HETATM    8  H           1     -34.727  -1.667  -9.959  0.00  0.00     0.275 HD
HETATM    9  H           1     -35.711  -0.408 -10.558  0.00  0.00     0.275 HD
ENDBRANCH   1   6
BRANCH   1  10
HETATM   10  C           1     -35.487  -0.878 -13.139  0.00  0.00     0.248 C 
HETATM   11  N           1     -34.931  -0.258 -14.225  0.00  0.00    -0.349 N 
HETATM   12  H           1     -33.926  -0.147 -14.286  0.00  0.00     0.163 HD
HETATM   13  O           1     -36.686  -1.010 -13.067  0.00  0.00    -0.271 OA
BRANCH  11  14
HETATM   14  C           1     -35.780   0.242 -15.289  0.00  0.00     0.235 C 
BRANCH  14  15
HETATM   15  C           1     -35.865  -0.785 -16.391  0.00  0.00     0.191 C 
HETATM   16  O           1     -34.915  -1.573 -16.585  0.00  0.00    -0.647 OA
HETATM   17  O           1     -36.886  -0.848 -17.110  0.00  0.00    -0.647 OA
ENDBRANCH  14  15
ENDBRANCH  11  14
ENDBRANCH   1  10
TORSDOF 7
ENDMDL
MODEL 2
REMARK VINA RESULT:      -5.1      3.568      5.334
REMARK  7 active torsions:
REMARK  status: ('A' for Active; 'I' for Inactive)
REMARK    1  A    between atoms: C_1  and  C_7 
REMARK    2  A    between atoms: C_1  and  C_9 
REMARK    3  A    between atoms: N_2  and  C_8 
REMARK       I    between atoms: N_2  and  C_12 
REMARK    4  A    between atoms: N_3  and  C_7 
REMARK    5  A    between atoms: C_7  and  C_12 
REMARK    6  A    between atoms: C_8  and  C_10 
REMARK    7  A    between atoms: C_9  and  S_11 
ROOT
HETATM    1  C           1     -35.833  -1.272 -11.673  0.00  0.00     0.275 C 
ENDROOT
BRANCH   1   2
HETATM    2  C           1     -35.209  -2.327 -10.771  0.00  0.00     0.053 C 
BRANCH   2   3
HETATM    3  C           1     -33.692  -2.259 -10.882  0.00  0.00     0.076 C 
BRANCH   3   4
HETATM    4  S           1     -33.072  -3.783 -11.649  0.00  0.00    -0.173 SA
HETATM    5  C           1     -34.060  -4.927 -10.645  0.00  0.00     0.089 C 
ENDBRANCH   3   4
ENDBRANCH   2   3
ENDBRANCH   1   2
BRANCH   1   6
HETATM    6  N           1     -34.776  -0.306 -12.118  0.00  0.00    -0.066 N 
HETATM    7  H           1     -34.700   0.472 -11.424  0.00  0.00     0.275 HD
HETATM    8  H           1     -33.859  -0.801 -12.188  0.00  0.00     0.275 HD
HETATM    9  H           1     -35.033   0.086 -13.052  0.00  0.00     0.275 HD
ENDBRANCH   1   6
BRANCH   1  10
HETATM   10  C           1     -36.903  -0.528 -10.911  0.00  0.00     0.248 C 
HETATM   11  N           1     -36.558   0.487 -10.061  0.00  0.00    -0.349 N 
HETATM   12  H           1     -35.585   0.740  -9.942  0.00  0.00     0.163 HD
HETATM   13  O           1     -38.065  -0.828 -11.053  0.00  0.00    -0.271 OA
BRANCH  11  14
HETATM   14  C           1     -37.586   1.202  -9.329  0.00  0.00     0.235 C 
BRANCH  14  15
HETATM   15  C           1     -37.454   0.907  -7.855  0.00  0.00     0.191 C 
HETATM   16  O           1     -37.785  -0.213  -7.410  0.00  0.00    -0.647 OA
HETATM   17  O           1     -37.013   1.782  -7.080  0.00  0.00    -0.647 OA
ENDBRANCH  14  15
ENDBRANCH  11  14
ENDBRANCH   1  10
TORSDOF 7
ENDMDL
MODEL 3
REMARK VINA RESULT:      -5.0     13.403     14.784
REMARK  7 active torsions:
REMARK  status: ('A' for Active; 'I' for Inactive)
REMARK    1  A    between atoms: C_1  and  C_7 
REMARK    2  A    between atoms: C_1  and  C_9 
REMARK    3  A    between atoms: N_2  and  C_8 
REMARK       I    between atoms: N_2  and  C_12 
REMARK    4  A    between atoms: N_3  and  C_7 
REMARK    5  A    between atoms: C_7  and  C_12 
REMARK    6  A    between atoms: C_8  and  C_10 
REMARK    7  A    between atoms: C_9  and  S_11 
ROOT
HETATM    1  C           1     -21.193  -5.818  -6.903  0.00  0.00     0.275 C 
ENDROOT
BRANCH   1   2
HETATM    2  C           1     -21.092  -5.605  -5.399  0.00  0.00     0.053 C 
BRANCH   2   3
HETATM    3  C           1     -22.097  -6.502  -4.689  0.00  0.00     0.076 C 
BRANCH   3   4
HETATM    4  S           1     -21.314  -7.258  -3.236  0.00  0.00    -0.173 SA
HETATM    5  C           1     -22.134  -6.210  -2.001  0.00  0.00     0.089 C 
ENDBRANCH   3   4
ENDBRANCH   2   3
ENDBRANCH   1   2
BRANCH   1   6
HETATM    6  N           1     -19.824  -6.048  -7.470  0.00  0.00    -0.066 N 
HETATM    7  H           1     -19.571  -5.254  -8.101  0.00  0.00     0.275 HD
HETATM    8  H           1     -19.131  -6.108  -6.691  0.00  0.00     0.275 HD
HETATM    9  H           1     -19.817  -6.940  -8.014  0.00  0.00     0.275 HD
ENDBRANCH   1   6
BRANCH   1  10
HETATM   10  C           1     -21.802  -4.594  -7.545  0.00  0.00     0.248 C 
HETATM   11  N           1     -22.701  -4.733  -8.567  0.00  0.00    -0.349 N 
HETATM   12  H           1     -22.958  -5.656  -8.894  0.00  0.00     0.163 HD
HETATM   13  O           1     -21.496  -3.492  -7.155  0.00  0.00    -0.271 OA
BRANCH  11  14
HETATM   14  C           1     -23.286  -3.557  -9.183  0.00  0.00     0.235 C 
BRANCH  14  15
HETATM   15  C           1     -24.077  -3.967 -10.401  0.00  0.00     0.191 C 
HETATM   16  O           1     -23.822  -5.047 -10.977  0.00  0.00    -0.647 OA
HETATM   17  O           1     -24.986  -3.227 -10.834  0.00  0.00    -0.647 OA
ENDBRANCH  14  15
ENDBRANCH  11  14
ENDBRANCH   1  10
TORSDOF 7
ENDMDL
MODEL 4
REMARK VINA RESULT:      -4.8      3.217      3.851
REMARK  7 active torsions:
REMARK  status: ('A' for Active; 'I' for Inactive)
REMARK    1  A    between atoms: C_1  and  C_7 
REMARK    2  A    between atoms: C_1  and  C_9 
REMARK    3  A    between atoms: N_2  and  C_8 
REMARK       I    between atoms: N_2  and  C_12 
REMARK    4  A    between atoms: N_3  and  C_7 
REMARK    5  A    between atoms: C_7  and  C_12 
REMARK    6  A    between atoms: C_8  and  C_10 
REMARK    7  A    between atoms: C_9  and  S_11 
ROOT
HETATM    1  C           1     -36.244  -1.002 -11.437  0.00  0.00     0.275 C 
ENDROOT
BRANCH   1   2
HETATM    2  C           1     -37.313  -0.177 -10.733  0.00  0.00     0.053 C 
BRANCH   2   3
HETATM    3  C           1     -37.039  -0.160  -9.235  0.00  0.00     0.076 C 
BRANCH   3   4
HETATM    4  S           1     -37.686   1.377  -8.518  0.00  0.00    -0.173 SA
HETATM    5  C           1     -37.096   1.072  -6.829  0.00  0.00     0.089 C 
ENDBRANCH   3   4
ENDBRANCH   2   3
ENDBRANCH   1   2
BRANCH   1   6
HETATM    6  N           1     -35.089  -1.223 -10.506  0.00  0.00    -0.066 N 
HETATM    7  H           1     -35.449  -1.490  -9.562  0.00  0.00     0.275 HD
HETATM    8  H           1     -34.485  -1.989 -10.877  0.00  0.00     0.275 HD
HETATM    9  H           1     -34.530  -0.343 -10.429  0.00  0.00     0.275 HD
ENDBRANCH   1   6
BRANCH   1  10
HETATM   10  C           1     -35.765  -0.264 -12.663  0.00  0.00     0.248 C 
HETATM   11  N           1     -36.397  -0.448 -13.863  0.00  0.00    -0.349 N 
HETATM   12  H           1     -37.186  -1.079 -13.929  0.00  0.00     0.163 HD
HETATM   13  O           1     -34.824   0.490 -12.586  0.00  0.00    -0.271 OA
BRANCH  11  14
HETATM   14  C           1     -35.937   0.261 -15.042  0.00  0.00     0.235 C 
BRANCH  14  15
HETATM   15  C           1     -35.913  -0.681 -16.220  0.00  0.00     0.191 C 
HETATM   16  O           1     -34.936  -1.442 -16.392  0.00  0.00    -0.647 OA
HETATM   17  O           1     -36.870  -0.701 -17.024  0.00  0.00    -0.647 OA
ENDBRANCH  14  15
ENDBRANCH  11  14
ENDBRANCH   1  10
TORSDOF 7
ENDMDL
MODEL 5
REMARK VINA RESULT:      -4.7      3.311      4.905
REMARK  7 active torsions:
REMARK  status: ('A' for Active; 'I' for Inactive)
REMARK    1  A    between atoms: C_1  and  C_7 
REMARK    2  A    between atoms: C_1  and  C_9 
REMARK    3  A    between atoms: N_2  and  C_8 
REMARK       I    between atoms: N_2  and  C_12 
REMARK    4  A    between atoms: N_3  and  C_7 
REMARK    5  A    between atoms: C_7  and  C_12 
REMARK    6  A    between atoms: C_8  and  C_10 
REMARK    7  A    between atoms: C_9  and  S_11 
ROOT
HETATM    1  C           1     -36.632  -0.484 -11.131  0.00  0.00     0.275 C 
ENDROOT
BRANCH   1   2
HETATM    2  C           1     -36.170   0.134 -12.443  0.00  0.00     0.053 C 
BRANCH   2   3
HETATM    3  C           1     -37.189  -0.165 -13.534  0.00  0.00     0.076 C 
BRANCH   3   4
HETATM    4  S           1     -36.394  -0.030 -15.160  0.00  0.00    -0.173 SA
HETATM    5  C           1     -34.889   0.799 -14.576  0.00  0.00     0.089 C 
ENDBRANCH   3   4
ENDBRANCH   2   3
ENDBRANCH   1   2
BRANCH   1   6
HETATM    6  N           1     -36.388   0.481 -10.010  0.00  0.00    -0.066 N 
HETATM    7  H           1     -36.871   0.142  -9.147  0.00  0.00     0.275 HD
HETATM    8  H           1     -35.362   0.553  -9.829  0.00  0.00     0.275 HD
HETATM    9  H           1     -36.764   1.421 -10.271  0.00  0.00     0.275 HD
ENDBRANCH   1   6
BRANCH   1  10
HETATM   10  C           1     -35.861  -1.756 -10.875  0.00  0.00     0.248 C 
HETATM   11  N           1     -34.493  -1.750 -10.933  0.00  0.00    -0.349 N 
HETATM   12  H           1     -33.999  -0.894 -11.147  0.00  0.00     0.163 HD
HETATM   13  O           1     -36.450  -2.779 -10.618  0.00  0.00    -0.271 OA
BRANCH  11  14
HETATM   14  C           1     -33.752  -2.973 -10.686  0.00  0.00     0.235 C 
BRANCH  14  15
HETATM   15  C           1     -33.316  -3.571 -12.001  0.00  0.00     0.191 C 
HETATM   16  O           1     -32.346  -4.359 -12.037  0.00  0.00    -0.647 OA
HETATM   17  O           1     -33.923  -3.279 -13.053  0.00  0.00    -0.647 OA
ENDBRANCH  14  15
ENDBRANCH  11  14
ENDBRANCH   1  10
TORSDOF 7
ENDMDL
MODEL 6
REMARK VINA RESULT:      -4.7     14.380     16.297
REMARK  7 active torsions:
REMARK  status: ('A' for Active; 'I' for Inactive)
REMARK    1  A    between atoms: C_1  and  C_7 
REMARK    2  A    between atoms: C_1  and  C_9 
REMARK    3  A    between atoms: N_2  and  C_8 
REMARK       I    between atoms: N_2  and  C_12 
REMARK    4  A    between atoms: N_3  and  C_7 
REMARK    5  A    between atoms: C_7  and  C_12 
REMARK    6  A    between atoms: C_8  and  C_10 
REMARK    7  A    between atoms: C_9  and  S_11 
ROOT
HETATM    1  C           1     -21.243  -4.227  -7.290  0.00  0.00     0.275 C 
ENDROOT
BRANCH   1   2
HETATM    2  C           1     -22.492  -4.063  -8.145  0.00  0.00     0.053 C 
BRANCH   2   3
HETATM    3  C           1     -22.136  -4.266  -9.611  0.00  0.00     0.076 C 
BRANCH   3   4
HETATM    4  S           1     -23.627  -4.726 -10.539  0.00  0.00    -0.173 SA
HETATM    5  C           1     -24.699  -3.437  -9.842  0.00  0.00     0.089 C 
ENDBRANCH   3   4
ENDBRANCH   2   3
ENDBRANCH   1   2
BRANCH   1   6
HETATM    6  N           1     -20.028  -4.181  -8.167  0.00  0.00    -0.066 N 
HETATM    7  H           1     -20.265  -3.705  -9.067  0.00  0.00     0.275 HD
HETATM    8  H           1     -19.268  -3.652  -7.683  0.00  0.00     0.275 HD
HETATM    9  H           1     -19.704  -5.155  -8.365  0.00  0.00     0.275 HD
ENDBRANCH   1   6
BRANCH   1  10
HETATM   10  C           1     -21.295  -5.553  -6.572  0.00  0.00     0.248 C 
HETATM   11  N           1     -22.013  -5.678  -5.414  0.00  0.00    -0.349 N 
HETATM   12  H           1     -22.511  -4.880  -5.039  0.00  0.00     0.163 HD
HETATM   13  O           1     -20.701  -6.506  -7.020  0.00  0.00    -0.271 OA
BRANCH  11  14
HETATM   14  C           1     -22.063  -6.953  -4.724  0.00  0.00     0.235 C 
BRANCH  14  15
HETATM   15  C           1     -21.750  -6.748  -3.263  0.00  0.00     0.191 C 
HETATM   16  O           1     -20.814  -7.381  -2.729  0.00  0.00    -0.647 OA
HETATM   17  O           1     -22.427  -5.945  -2.586  0.00  0.00    -0.647 OA
ENDBRANCH  14  15
ENDBRANCH  11  14
ENDBRANCH   1  10
TORSDOF 7
ENDMDL
MODEL 7
REMARK VINA RESULT:      -4.7     15.923     18.000
REMARK  7 active torsions:
REMARK  status: ('A' for Active; 'I' for Inactive)
REMARK    1  A    between atoms: C_1  and  C_7 
REMARK    2  A    between atoms: C_1  and  C_9 
REMARK    3  A    between atoms: N_2  and  C_8 
REMARK       I    between atoms: N_2  and  C_12 
REMARK    4  A    between atoms: N_3  and  C_7 
REMARK    5  A    between atoms: C_7  and  C_12 
REMARK    6  A    between atoms: C_8  and  C_10 
REMARK    7  A    between atoms: C_9  and  S_11 
ROOT
HETATM    1  C           1     -20.557  -6.689  -5.203  0.00  0.00     0.275 C 
ENDROOT
BRANCH   1   2
HETATM    2  C           1     -20.203  -5.407  -5.945  0.00  0.00     0.053 C 
BRANCH   2   3
HETATM    3  C           1     -19.906  -5.728  -7.403  0.00  0.00     0.076 C 
BRANCH   3   4
HETATM    4  S           1     -20.295  -4.285  -8.433  0.00  0.00    -0.173 SA
HETATM    5  C           1     -21.708  -3.714  -7.447  0.00  0.00     0.089 C 
ENDBRANCH   3   4
ENDBRANCH   2   3
ENDBRANCH   1   2
BRANCH   1   6
HETATM    6  N           1     -21.110  -7.691  -6.171  0.00  0.00    -0.066 N 
HETATM    7  H           1     -21.907  -7.265  -6.696  0.00  0.00     0.275 HD
HETATM    8  H           1     -20.363  -7.975  -6.843  0.00  0.00     0.275 HD
HETATM    9  H           1     -21.448  -8.531  -5.649  0.00  0.00     0.275 HD
ENDBRANCH   1   6
BRANCH   1  10
HETATM   10  C           1     -21.591  -6.389  -4.145  0.00  0.00     0.248 C 
HETATM   11  N           1     -21.247  -6.426  -2.821  0.00  0.00    -0.349 N 
HETATM   12  H           1     -20.299  -6.654  -2.550  0.00  0.00     0.163 HD
HETATM   13  O           1     -22.723  -6.116  -4.468  0.00  0.00    -0.271 OA
BRANCH  11  14
HETATM   14  C           1     -22.242  -6.138  -1.805  0.00  0.00     0.235 C 
BRANCH  14  15
HETATM   15  C           1     -22.226  -7.227  -0.761  0.00  0.00     0.191 C 
HETATM   16  O           1     -23.220  -7.400  -0.024  0.00  0.00    -0.647 OA
HETATM   17  O           1     -21.219  -7.956  -0.633  0.00  0.00    -0.647 OA
ENDBRANCH  14  15
ENDBRANCH  11  14
ENDBRANCH   1  10
TORSDOF 7
ENDMDL
MODEL 8
REMARK VINA RESULT:      -4.6      3.398      4.000
REMARK  7 active torsions:
REMARK  status: ('A' for Active; 'I' for Inactive)
REMARK    1  A    between atoms: C_1  and  C_7 
REMARK    2  A    between atoms: C_1  and  C_9 
REMARK    3  A    between atoms: N_2  and  C_8 
REMARK       I    between atoms: N_2  and  C_12 
REMARK    4  A    between atoms: N_3  and  C_7 
REMARK    5  A    between atoms: C_7  and  C_12 
REMARK    6  A    between atoms: C_8  and  C_10 
REMARK    7  A    between atoms: C_9  and  S_11 
ROOT
HETATM    1  C           1     -33.870  -3.842 -12.288  0.00  0.00     0.275 C 
ENDROOT
BRANCH   1   2
HETATM    2  C           1     -33.794  -2.549 -11.488  0.00  0.00     0.053 C 
BRANCH   2   3
HETATM    3  C           1     -35.025  -2.427 -10.600  0.00  0.00     0.076 C 
BRANCH   3   4
HETATM    4  S           1     -36.033  -1.022 -11.152  0.00  0.00    -0.173 SA
HETATM    5  C           1     -36.793  -0.678  -9.539  0.00  0.00     0.089 C 
ENDBRANCH   3   4
ENDBRANCH   2   3
ENDBRANCH   1   2
BRANCH   1   6
HETATM    6  N           1     -32.560  -4.567 -12.193  0.00  0.00    -0.066 N 
HETATM    7  H           1     -32.210  -4.780 -13.154  0.00  0.00     0.275 HD
HETATM    8  H           1     -31.865  -3.966 -11.695  0.00  0.00     0.275 HD
HETATM    9  H           1     -32.692  -5.459 -11.666  0.00  0.00     0.275 HD
ENDBRANCH   1   6
BRANCH   1  10
HETATM   10  C           1     -34.163  -3.524 -13.734  0.00  0.00     0.248 C 
HETATM   11  N           1     -33.637  -4.305 -14.727  0.00  0.00    -0.349 N 
HETATM   12  H           1     -33.052  -5.097 -14.493  0.00  0.00     0.163 HD
HETATM   13  O           1     -34.861  -2.579 -14.015  0.00  0.00    -0.271 OA
BRANCH  11  14
HETATM   14  C           1     -33.919  -3.998 -16.117  0.00  0.00     0.235 C 
BRANCH  14  15
HETATM   15  C           1     -32.631  -3.994 -16.903  0.00  0.00     0.191 C 
HETATM   16  O           1     -31.821  -4.938 -16.781  0.00  0.00    -0.647 OA
HETATM   17  O           1     -32.374  -3.046 -17.676  0.00  0.00    -0.647 OA
ENDBRANCH  14  15
ENDBRANCH  11  14
ENDBRANCH   1  10
TORSDOF 7
ENDMDL
MODEL 9
REMARK VINA RESULT:      -4.5      4.006      6.188
REMARK  7 active torsions:
REMARK  status: ('A' for Active; 'I' for Inactive)
REMARK    1  A    between atoms: C_1  and  C_7 
REMARK    2  A    between atoms: C_1  and  C_9 
REMARK    3  A    between atoms: N_2  and  C_8 
REMARK       I    between atoms: N_2  and  C_12 
REMARK    4  A    between atoms: N_3  and  C_7 
REMARK    5  A    between atoms: C_7  and  C_12 
REMARK    6  A    between atoms: C_8  and  C_10 
REMARK    7  A    between atoms: C_9  and  S_11 
ROOT
HETATM    1  C           1     -34.910  -2.575 -11.089  0.00  0.00     0.275 C 
ENDROOT
BRANCH   1   2
HETATM    2  C           1     -35.469  -1.813 -12.283  0.00  0.00     0.053 C 
BRANCH   2   3
HETATM    3  C           1     -35.000  -0.366 -12.228  0.00  0.00     0.076 C 
BRANCH   3   4
HETATM    4  S           1     -35.155   0.384 -13.874  0.00  0.00    -0.173 SA
HETATM    5  C           1     -36.915  -0.000 -14.101  0.00  0.00     0.089 C 
ENDBRANCH   3   4
ENDBRANCH   2   3
ENDBRANCH   1   2
BRANCH   1   6
HETATM    6  N           1     -33.665  -1.898 -10.602  0.00  0.00    -0.066 N 
HETATM    7  H           1     -33.790  -1.616  -9.603  0.00  0.00     0.275 HD
HETATM    8  H           1     -32.857  -2.556 -10.679  0.00  0.00     0.275 HD
HETATM    9  H           1     -33.480  -1.048 -11.182  0.00  0.00     0.275 HD
ENDBRANCH   1   6
BRANCH   1  10
HETATM   10  C           1     -34.583  -3.989 -11.504  0.00  0.00     0.248 C 
HETATM   11  N           1     -34.034  -4.858 -10.600  0.00  0.00    -0.349 N 
HETATM   12  H           1     -33.848  -4.553  -9.653  0.00  0.00     0.163 HD
HETATM   13  O           1     -34.805  -4.354 -12.634  0.00  0.00    -0.271 OA
BRANCH  11  14
HETATM   14  C           1     -33.719  -6.217 -10.998  0.00  0.00     0.235 C 
BRANCH  14  15
HETATM   15  C           1     -34.519  -7.185 -10.163  0.00  0.00     0.191 C 
HETATM   16  O           1     -35.444  -6.766  -9.433  0.00  0.00    -0.647 OA
HETATM   17  O           1     -34.258  -8.407 -10.200  0.00  0.00    -0.647 OA
ENDBRANCH  14  15
ENDBRANCH  11  14
ENDBRANCH   1  10
TORSDOF 7
ENDMDL
