MODEL 1
REMARK VINA RESULT:      -7.7      0.000      0.000
REMARK  10 active torsions:
REMARK  status: ('A' for Active; 'I' for Inactive)
REMARK    1  A    between atoms: O_3  and  P_4 
REMARK    2  A    between atoms: P_4  and  O_5 
REMARK    3  A    between atoms: O_5  and  C_6 
REMARK    4  A    between atoms: N_8  and  C_16 
REMARK    5  A    between atoms: C_9  and  C_17 
REMARK    6  A    between atoms: C_9  and  C_26 
REMARK    7  A    between atoms: C_9  and  N_28 
REMARK    8  A    between atoms: C_16  and  C_23 
REMARK    9  A    between atoms: C_16  and  C_24 
REMARK       I    between atoms: C_23  and  N_28 
REMARK   10  A    between atoms: C_25  and  C_26 
ROOT
HETATM    1  C           1     -20.663  -7.565  -5.651  0.00  0.00     0.189 C 
ENDROOT
BRANCH   1   2
HETATM    2  C           1     -19.416  -8.353  -5.339  0.00  0.00     0.197 C 
HETATM    3  O           1     -18.647  -8.697  -6.263  0.00  0.00    -0.646 OA
HETATM    4  O           1     -19.150  -8.663  -4.158  0.00  0.00    -0.646 OA
ENDBRANCH   1   2
BRANCH   1   5
HETATM    5  C           1     -20.355  -6.075  -5.580  0.00  0.00     0.074 C 
BRANCH   5   6
HETATM    6  C           1     -20.889  -5.395  -6.802  0.00  0.00    -0.056 A 
HETATM    7  C           1     -20.153  -5.412  -7.988  0.00  0.00     0.010 A 
HETATM    8  C           1     -20.649  -4.778  -9.126  0.00  0.00     0.038 A 
HETATM    9  C           1     -21.882  -4.127  -9.080  0.00  0.00     0.081 A 
HETATM   10  C           1     -22.618  -4.110  -7.895  0.00  0.00     0.038 A 
HETATM   11  C           1     -22.121  -4.744  -6.757  0.00  0.00     0.010 A 
BRANCH   9  12
HETATM   12  O           1     -22.366  -3.511 -10.186  0.00  0.00    -0.247 OA
BRANCH  12  13
HETATM   13  P           1     -23.579  -4.222 -10.981  0.00  0.00     0.411 P 
HETATM   14  O           1     -24.757  -3.327 -10.984  0.00  0.00    -0.624 OA
HETATM   15  O           1     -23.927  -5.495 -10.312  0.00  0.00    -0.624 OA
BRANCH  13  16
HETATM   16  O           1     -23.124  -4.518 -12.502  0.00  0.00    -0.300 OA
HETATM   17  H           1     -23.633  -5.264 -12.768  0.00  0.00     0.223 HD
ENDBRANCH  13  16
ENDBRANCH  12  13
ENDBRANCH   9  12
ENDBRANCH   5   6
ENDBRANCH   1   5
BRANCH   1  18
HETATM   18  N           1     -21.694  -7.890  -4.685  0.00  0.00    -0.344 N 
HETATM   19  H           1     -22.061  -8.832  -4.634  0.00  0.00     0.163 HD
HETATM   20  C           1     -22.171  -6.924  -3.840  0.00  0.00     0.249 C 
HETATM   21  O           1     -23.118  -6.249  -4.169  0.00  0.00    -0.271 OA
BRANCH  20  22
HETATM   22  C           1     -21.516  -6.702  -2.499  0.00  0.00     0.278 C 
BRANCH  22  23
HETATM   23  N           1     -22.080  -5.465  -1.866  0.00  0.00    -0.066 N 
HETATM   24  H           1     -21.879  -4.639  -2.475  0.00  0.00     0.275 HD
HETATM   25  H           1     -23.113  -5.572  -1.752  0.00  0.00     0.275 HD
HETATM   26  H           1     -21.640  -5.322  -0.928  0.00  0.00     0.275 HD
ENDBRANCH  22  23
BRANCH  22  27
HETATM   27  C           1     -21.782  -7.900  -1.598  0.00  0.00     0.017 C 
HETATM   28  C           1     -22.542  -7.444  -0.360  0.00  0.00     0.012 C 
HETATM   29  C           1     -20.457  -8.524  -1.178  0.00  0.00     0.012 C 
ENDBRANCH  22  27
ENDBRANCH  20  22
ENDBRANCH   1  18
TORSDOF 10
ENDMDL
MODEL 2
REMARK VINA RESULT:      -7.6      1.236      2.091
REMARK  10 active torsions:
REMARK  status: ('A' for Active; 'I' for Inactive)
REMARK    1  A    between atoms: O_3  and  P_4 
REMARK    2  A    between atoms: P_4  and  O_5 
REMARK    3  A    between atoms: O_5  and  C_6 
REMARK    4  A    between atoms: N_8  and  C_16 
REMARK    5  A    between atoms: C_9  and  C_17 
REMARK    6  A    between atoms: C_9  and  C_26 
REMARK    7  A    between atoms: C_9  and  N_28 
REMARK    8  A    between atoms: C_16  and  C_23 
REMARK    9  A    between atoms: C_16  and  C_24 
REMARK       I    between atoms: C_23  and  N_28 
REMARK   10  A    between atoms: C_25  and  C_26 
ROOT
HETATM    1  C           1     -21.187  -6.412  -4.925  0.00  0.00     0.189 C 
ENDROOT
BRANCH   1   2
HETATM    2  C           1     -20.654  -7.636  -5.626  0.00  0.00     0.197 C 
HETATM    3  O           1     -21.424  -8.580  -5.908  0.00  0.00    -0.646 OA
HETATM    4  O           1     -19.443  -7.708  -5.927  0.00  0.00    -0.646 OA
ENDBRANCH   1   2
BRANCH   1   5
HETATM    5  C           1     -20.432  -5.180  -5.407  0.00  0.00     0.074 C 
BRANCH   5   6
HETATM    6  C           1     -20.947  -4.773  -6.753  0.00  0.00    -0.056 A 
HETATM    7  C           1     -22.290  -4.426  -6.909  0.00  0.00     0.010 A 
HETATM    8  C           1     -22.770  -4.047  -8.162  0.00  0.00     0.038 A 
HETATM    9  C           1     -21.909  -4.013  -9.259  0.00  0.00     0.081 A 
HETATM   10  C           1     -20.567  -4.360  -9.102  0.00  0.00     0.038 A 
HETATM   11  C           1     -20.086  -4.739  -7.849  0.00  0.00     0.010 A 
BRANCH   9  12
HETATM   12  O           1     -22.375  -3.644 -10.477  0.00  0.00    -0.247 OA
BRANCH  12  13
HETATM   13  P           1     -23.739  -4.327 -11.006  0.00  0.00     0.411 P 
HETATM   14  O           1     -24.861  -3.375 -10.848  0.00  0.00    -0.624 OA
HETATM   15  O           1     -24.015  -5.550 -10.220  0.00  0.00    -0.624 OA
BRANCH  13  16
HETATM   16  O           1     -23.577  -4.714 -12.566  0.00  0.00    -0.300 OA
HETATM   17  H           1     -23.908  -3.969 -13.038  0.00  0.00     0.223 HD
ENDBRANCH  13  16
ENDBRANCH  12  13
ENDBRANCH   9  12
ENDBRANCH   5   6
ENDBRANCH   1   5
BRANCH   1  18
HETATM   18  N           1     -21.006  -6.559  -3.494  0.00  0.00    -0.344 N 
HETATM   19  H           1     -21.011  -5.742  -2.897  0.00  0.00     0.163 HD
HETATM   20  C           1     -20.830  -7.803  -2.949  0.00  0.00     0.249 C 
HETATM   21  O           1     -19.717  -8.257  -2.830  0.00  0.00    -0.271 OA
BRANCH  20  22
HETATM   22  C           1     -22.025  -8.607  -2.499  0.00  0.00     0.278 C 
BRANCH  22  23
HETATM   23  N           1     -21.973  -9.970  -3.121  0.00  0.00    -0.066 N 
HETATM   24  H           1     -22.945 -10.329  -3.255  0.00  0.00     0.275 HD
HETATM   25  H           1     -21.491  -9.913  -4.047  0.00  0.00     0.275 HD
HETATM   26  H           1     -21.445 -10.619  -2.494  0.00  0.00     0.275 HD
ENDBRANCH  22  23
BRANCH  22  27
HETATM   27  C           1     -22.006  -8.740  -0.982  0.00  0.00     0.017 C 
HETATM   28  C           1     -22.949  -9.858  -0.560  0.00  0.00     0.012 C 
HETATM   29  C           1     -22.458  -7.430  -0.351  0.00  0.00     0.012 C 
ENDBRANCH  22  27
ENDBRANCH  20  22
ENDBRANCH   1  18
TORSDOF 10
ENDMDL
MODEL 3
REMARK VINA RESULT:      -7.5      3.845      7.842
REMARK  10 active torsions:
REMARK  status: ('A' for Active; 'I' for Inactive)
REMARK    1  A    between atoms: O_3  and  P_4 
REMARK    2  A    between atoms: P_4  and  O_5 
REMARK    3  A    between atoms: O_5  and  C_6 
REMARK    4  A    between atoms: N_8  and  C_16 
REMARK    5  A    between atoms: C_9  and  C_17 
REMARK    6  A    between atoms: C_9  and  C_26 
REMARK    7  A    between atoms: C_9  and  N_28 
REMARK    8  A    between atoms: C_16  and  C_23 
REMARK    9  A    between atoms: C_16  and  C_24 
REMARK       I    between atoms: C_23  and  N_28 
REMARK   10  A    between atoms: C_25  and  C_26 
ROOT
HETATM    1  C           1     -20.942  -4.855  -6.369  0.00  0.00     0.189 C 
ENDROOT
BRANCH   1   2
HETATM    2  C           1     -19.660  -5.364  -6.979  0.00  0.00     0.197 C 
HETATM    3  O           1     -18.718  -4.574  -7.205  0.00  0.00    -0.646 OA
HETATM    4  O           1     -19.539  -6.576  -7.259  0.00  0.00    -0.646 OA
ENDBRANCH   1   2
BRANCH   1   5
HETATM    5  C           1     -21.906  -6.016  -6.165  0.00  0.00     0.074 C 
BRANCH   5   6
HETATM    6  C           1     -21.639  -6.661  -4.841  0.00  0.00    -0.056 A 
HETATM    7  C           1     -21.342  -5.872  -3.729  0.00  0.00     0.010 A 
HETATM    8  C           1     -21.093  -6.472  -2.495  0.00  0.00     0.038 A 
HETATM    9  C           1     -21.142  -7.861  -2.372  0.00  0.00     0.081 A 
HETATM   10  C           1     -21.439  -8.650  -3.484  0.00  0.00     0.038 A 
HETATM   11  C           1     -21.688  -8.049  -4.718  0.00  0.00     0.010 A 
BRANCH   9  12
HETATM   12  O           1     -20.901  -8.445  -1.173  0.00  0.00    -0.247 OA
BRANCH  12  13
HETATM   13  P           1     -22.104  -8.492  -0.096  0.00  0.00     0.411 P 
HETATM   14  O           1     -21.541  -8.475   1.273  0.00  0.00    -0.624 OA
HETATM   15  O           1     -22.891  -9.729  -0.291  0.00  0.00    -0.624 OA
BRANCH  13  16
HETATM   16  O           1     -23.059  -7.206  -0.301  0.00  0.00    -0.300 OA
HETATM   17  H           1     -23.837  -7.400   0.193  0.00  0.00     0.223 HD
ENDBRANCH  13  16
ENDBRANCH  12  13
ENDBRANCH   9  12
ENDBRANCH   5   6
ENDBRANCH   1   5
BRANCH   1  18
HETATM   18  N           1     -21.544  -3.878  -7.256  0.00  0.00    -0.344 N 
HETATM   19  H           1     -21.226  -2.918  -7.241  0.00  0.00     0.163 HD
HETATM   20  C           1     -22.541  -4.256  -8.115  0.00  0.00     0.249 C 
HETATM   21  O           1     -23.695  -4.198  -7.762  0.00  0.00    -0.271 OA
BRANCH  20  22
HETATM   22  C           1     -22.200  -4.745  -9.501  0.00  0.00     0.278 C 
BRANCH  22  23
HETATM   23  N           1     -23.414  -4.653 -10.376  0.00  0.00    -0.066 N 
HETATM   24  H           1     -24.166  -5.269  -9.993  0.00  0.00     0.275 HD
HETATM   25  H           1     -23.752  -3.664 -10.403  0.00  0.00     0.275 HD
HETATM   26  H           1     -23.169  -4.963 -11.345  0.00  0.00     0.275 HD
ENDBRANCH  22  23
BRANCH  22  27
HETATM   27  C           1     -21.088  -3.883 -10.085  0.00  0.00     0.017 C 
HETATM   28  C           1     -21.624  -3.103 -11.278  0.00  0.00     0.012 C 
HETATM   29  C           1     -19.939  -4.775 -10.537  0.00  0.00     0.012 C 
ENDBRANCH  22  27
ENDBRANCH  20  22
ENDBRANCH   1  18
TORSDOF 10
ENDMDL
MODEL 4
REMARK VINA RESULT:      -7.1      1.787      2.781
REMARK  10 active torsions:
REMARK  status: ('A' for Active; 'I' for Inactive)
REMARK    1  A    between atoms: O_3  and  P_4 
REMARK    2  A    between atoms: P_4  and  O_5 
REMARK    3  A    between atoms: O_5  and  C_6 
REMARK    4  A    between atoms: N_8  and  C_16 
REMARK    5  A    between atoms: C_9  and  C_17 
REMARK    6  A    between atoms: C_9  and  C_26 
REMARK    7  A    between atoms: C_9  and  N_28 
REMARK    8  A    between atoms: C_16  and  C_23 
REMARK    9  A    between atoms: C_16  and  C_24 
REMARK       I    between atoms: C_23  and  N_28 
REMARK   10  A    between atoms: C_25  and  C_26 
ROOT
HETATM    1  C           1     -21.135  -7.920  -4.416  0.00  0.00     0.189 C 
ENDROOT
BRANCH   1   2
HETATM    2  C           1     -21.207  -9.424  -4.500  0.00  0.00     0.197 C 
HETATM    3  O           1     -22.259 -10.018  -4.177  0.00  0.00    -0.646 OA
HETATM    4  O           1     -20.217 -10.077  -4.894  0.00  0.00    -0.646 OA
ENDBRANCH   1   2
BRANCH   1   5
HETATM    5  C           1     -20.066  -7.408  -5.373  0.00  0.00     0.074 C 
BRANCH   5   6
HETATM    6  C           1     -20.643  -6.331  -6.238  0.00  0.00    -0.056 A 
HETATM    7  C           1     -21.921  -5.837  -5.976  0.00  0.00     0.010 A 
HETATM    8  C           1     -22.460  -4.835  -6.783  0.00  0.00     0.038 A 
HETATM    9  C           1     -21.720  -4.325  -7.849  0.00  0.00     0.081 A 
HETATM   10  C           1     -20.441  -4.819  -8.110  0.00  0.00     0.038 A 
HETATM   11  C           1     -19.903  -5.821  -7.304  0.00  0.00     0.010 A 
BRANCH   9  12
HETATM   12  O           1     -22.242  -3.350  -8.633  0.00  0.00    -0.247 OA
BRANCH  12  13
HETATM   13  P           1     -23.410  -3.755  -9.672  0.00  0.00     0.411 P 
HETATM   14  O           1     -23.336  -5.205  -9.956  0.00  0.00    -0.624 OA
HETATM   15  O           1     -23.234  -2.996 -10.930  0.00  0.00    -0.624 OA
BRANCH  13  16
HETATM   16  O           1     -24.849  -3.405  -9.027  0.00  0.00    -0.300 OA
HETATM   17  H           1     -25.471  -3.886  -9.545  0.00  0.00     0.223 HD
ENDBRANCH  13  16
ENDBRANCH  12  13
ENDBRANCH   9  12
ENDBRANCH   5   6
ENDBRANCH   1   5
BRANCH   1  18
HETATM   18  N           1     -20.798  -7.528  -3.062  0.00  0.00    -0.344 N 
HETATM   19  H           1     -20.665  -6.551  -2.836  0.00  0.00     0.163 HD
HETATM   20  C           1     -20.660  -8.480  -2.087  0.00  0.00     0.249 C 
HETATM   21  O           1     -19.581  -8.986  -1.886  0.00  0.00    -0.271 OA
BRANCH  20  22
HETATM   22  C           1     -21.854  -8.899  -1.265  0.00  0.00     0.278 C 
BRANCH  22  23
HETATM   23  N           1     -21.824 -10.384  -1.060  0.00  0.00    -0.066 N 
HETATM   24  H           1     -20.836 -10.695  -0.917  0.00  0.00     0.275 HD
HETATM   25  H           1     -22.393 -10.631  -0.219  0.00  0.00     0.275 HD
HETATM   26  H           1     -22.221 -10.860  -1.901  0.00  0.00     0.275 HD
ENDBRANCH  22  23
BRANCH  22  27
HETATM   27  C           1     -21.812  -8.198   0.087  0.00  0.00     0.017 C 
HETATM   28  C           1     -21.081  -9.079   1.091  0.00  0.00     0.012 C 
HETATM   29  C           1     -23.234  -7.948   0.573  0.00  0.00     0.012 C 
ENDBRANCH  22  27
ENDBRANCH  20  22
ENDBRANCH   1  18
TORSDOF 10
ENDMDL
MODEL 5
REMARK VINA RESULT:      -6.9      2.168      3.146
REMARK  10 active torsions:
REMARK  status: ('A' for Active; 'I' for Inactive)
REMARK    1  A    between atoms: O_3  and  P_4 
REMARK    2  A    between atoms: P_4  and  O_5 
REMARK    3  A    between atoms: O_5  and  C_6 
REMARK    4  A    between atoms: N_8  and  C_16 
REMARK    5  A    between atoms: C_9  and  C_17 
REMARK    6  A    between atoms: C_9  and  C_26 
REMARK    7  A    between atoms: C_9  and  N_28 
REMARK    8  A    between atoms: C_16  and  C_23 
REMARK    9  A    between atoms: C_16  and  C_24 
REMARK       I    between atoms: C_23  and  N_28 
REMARK   10  A    between atoms: C_25  and  C_26 
ROOT
HETATM    1  C           1     -20.813  -9.532  -4.370  0.00  0.00     0.189 C 
ENDROOT
BRANCH   1   2
HETATM    2  C           1     -21.005 -10.648  -5.367  0.00  0.00     0.197 C 
HETATM    3  O           1     -20.245 -10.740  -6.355  0.00  0.00    -0.646 OA
HETATM    4  O           1     -21.922 -11.481  -5.204  0.00  0.00    -0.646 OA
ENDBRANCH   1   2
BRANCH   1   5
HETATM    5  C           1     -19.736  -8.580  -4.873  0.00  0.00     0.074 C 
BRANCH   5   6
HETATM    6  C           1     -20.378  -7.366  -5.468  0.00  0.00    -0.056 A 
HETATM    7  C           1     -21.685  -7.026  -5.117  0.00  0.00     0.010 A 
HETATM    8  C           1     -22.284  -5.896  -5.672  0.00  0.00     0.038 A 
HETATM    9  C           1     -21.578  -5.104  -6.577  0.00  0.00     0.081 A 
HETATM   10  C           1     -20.271  -5.445  -6.928  0.00  0.00     0.038 A 
HETATM   11  C           1     -19.671  -6.575  -6.373  0.00  0.00     0.010 A 
BRANCH   9  12
HETATM   12  O           1     -22.159  -4.005  -7.116  0.00  0.00    -0.247 OA
BRANCH  12  13
HETATM   13  P           1     -22.731  -4.111  -8.623  0.00  0.00     0.411 P 
HETATM   14  O           1     -22.741  -5.528  -9.048  0.00  0.00    -0.624 OA
HETATM   15  O           1     -21.867  -3.328  -9.533  0.00  0.00    -0.624 OA
BRANCH  13  16
HETATM   16  O           1     -24.235  -3.524  -8.669  0.00  0.00    -0.300 OA
HETATM   17  H           1     -24.560  -3.617  -7.791  0.00  0.00     0.223 HD
ENDBRANCH  13  16
ENDBRANCH  12  13
ENDBRANCH   9  12
ENDBRANCH   5   6
ENDBRANCH   1   5
BRANCH   1  18
HETATM   18  N           1     -20.408 -10.088  -3.094  0.00  0.00    -0.344 N 
HETATM   19  H           1     -19.522 -10.570  -3.011  0.00  0.00     0.163 HD
HETATM   20  C           1     -21.224  -9.963  -2.001  0.00  0.00     0.249 C 
HETATM   21  O           1     -22.051 -10.812  -1.766  0.00  0.00    -0.271 OA
BRANCH  20  22
HETATM   22  C           1     -21.091  -8.766  -1.093  0.00  0.00     0.278 C 
BRANCH  22  23
HETATM   23  N           1     -20.021  -7.856  -1.619  0.00  0.00    -0.066 N 
HETATM   24  H           1     -20.383  -7.336  -2.450  0.00  0.00     0.275 HD
HETATM   25  H           1     -19.744  -7.176  -0.875  0.00  0.00     0.275 HD
HETATM   26  H           1     -19.188  -8.423  -1.899  0.00  0.00     0.275 HD
ENDBRANCH  22  23
BRANCH  22  27
HETATM   27  C           1     -22.415  -8.016  -1.043  0.00  0.00     0.017 C 
HETATM   28  C           1     -22.192  -6.567  -1.456  0.00  0.00     0.012 C 
HETATM   29  C           1     -22.970  -8.059   0.375  0.00  0.00     0.012 C 
ENDBRANCH  22  27
ENDBRANCH  20  22
ENDBRANCH   1  18
TORSDOF 10
ENDMDL
MODEL 6
REMARK VINA RESULT:      -6.7      4.041      8.158
REMARK  10 active torsions:
REMARK  status: ('A' for Active; 'I' for Inactive)
REMARK    1  A    between atoms: O_3  and  P_4 
REMARK    2  A    between atoms: P_4  and  O_5 
REMARK    3  A    between atoms: O_5  and  C_6 
REMARK    4  A    between atoms: N_8  and  C_16 
REMARK    5  A    between atoms: C_9  and  C_17 
REMARK    6  A    between atoms: C_9  and  C_26 
REMARK    7  A    between atoms: C_9  and  N_28 
REMARK    8  A    between atoms: C_16  and  C_23 
REMARK    9  A    between atoms: C_16  and  C_24 
REMARK       I    between atoms: C_23  and  N_28 
REMARK   10  A    between atoms: C_25  and  C_26 
ROOT
HETATM    1  C           1     -21.041  -7.004  -5.975  0.00  0.00     0.189 C 
ENDROOT
BRANCH   1   2
HETATM    2  C           1     -21.716  -6.130  -4.947  0.00  0.00     0.197 C 
HETATM    3  O           1     -22.957  -5.979  -4.975  0.00  0.00    -0.646 OA
HETATM    4  O           1     -21.036  -5.558  -4.069  0.00  0.00    -0.646 OA
ENDBRANCH   1   2
BRANCH   1   5
HETATM    5  C           1     -19.875  -7.741  -5.328  0.00  0.00     0.074 C 
BRANCH   5   6
HETATM    6  C           1     -20.398  -8.733  -4.337  0.00  0.00    -0.056 A 
HETATM    7  C           1     -19.726  -8.934  -3.131  0.00  0.00     0.010 A 
HETATM    8  C           1     -20.212  -9.859  -2.208  0.00  0.00     0.038 A 
HETATM    9  C           1     -21.371 -10.582  -2.488  0.00  0.00     0.081 A 
HETATM   10  C           1     -22.044 -10.380  -3.694  0.00  0.00     0.038 A 
HETATM   11  C           1     -21.558  -9.456  -4.617  0.00  0.00     0.010 A 
BRANCH   9  12
HETATM   12  O           1     -21.845 -11.480  -1.591  0.00  0.00    -0.247 OA
BRANCH  12  13
HETATM   13  P           1     -22.424 -10.921  -0.190  0.00  0.00     0.411 P 
HETATM   14  O           1     -23.415 -11.877   0.351  0.00  0.00    -0.624 OA
HETATM   15  O           1     -23.074  -9.611  -0.414  0.00  0.00    -0.624 OA
BRANCH  13  16
HETATM   16  O           1     -21.211 -10.748   0.862  0.00  0.00    -0.300 OA
HETATM   17  H           1     -21.237  -9.843   1.118  0.00  0.00     0.223 HD
ENDBRANCH  13  16
ENDBRANCH  12  13
ENDBRANCH   9  12
ENDBRANCH   5   6
ENDBRANCH   1   5
BRANCH   1  18
HETATM   18  N           1     -20.547  -6.179  -7.060  0.00  0.00    -0.344 N 
HETATM   19  H           1     -19.783  -6.506  -7.637  0.00  0.00     0.163 HD
HETATM   20  C           1     -21.116  -4.957  -7.306  0.00  0.00     0.249 C 
HETATM   21  O           1     -20.682  -3.970  -6.762  0.00  0.00    -0.271 OA
BRANCH  20  22
HETATM   22  C           1     -22.283  -4.845  -8.255  0.00  0.00     0.278 C 
BRANCH  22  23
HETATM   23  N           1     -23.480  -4.327  -7.515  0.00  0.00    -0.066 N 
HETATM   24  H           1     -23.505  -3.284  -7.579  0.00  0.00     0.275 HD
HETATM   25  H           1     -24.350  -4.723  -7.938  0.00  0.00     0.275 HD
HETATM   26  H           1     -23.420  -4.614  -6.511  0.00  0.00     0.275 HD
ENDBRANCH  22  23
BRANCH  22  27
HETATM   27  C           1     -21.931  -3.886  -9.384  0.00  0.00     0.017 C 
HETATM   28  C           1     -23.125  -3.741 -10.318  0.00  0.00     0.012 C 
HETATM   29  C           1     -20.742  -4.434 -10.163  0.00  0.00     0.012 C 
ENDBRANCH  22  27
ENDBRANCH  20  22
ENDBRANCH   1  18
TORSDOF 10
ENDMDL
MODEL 7
REMARK VINA RESULT:      -6.6      3.324      5.541
REMARK  10 active torsions:
REMARK  status: ('A' for Active; 'I' for Inactive)
REMARK    1  A    between atoms: O_3  and  P_4 
REMARK    2  A    between atoms: P_4  and  O_5 
REMARK    3  A    between atoms: O_5  and  C_6 
REMARK    4  A    between atoms: N_8  and  C_16 
REMARK    5  A    between atoms: C_9  and  C_17 
REMARK    6  A    between atoms: C_9  and  C_26 
REMARK    7  A    between atoms: C_9  and  N_28 
REMARK    8  A    between atoms: C_16  and  C_23 
REMARK    9  A    between atoms: C_16  and  C_24 
REMARK       I    between atoms: C_23  and  N_28 
REMARK   10  A    between atoms: C_25  and  C_26 
ROOT
HETATM    1  C           1     -20.381  -9.838  -1.807  0.00  0.00     0.189 C 
ENDROOT
BRANCH   1   2
HETATM    2  C           1     -20.794 -10.489  -0.511  0.00  0.00     0.197 C 
HETATM    3  O           1     -20.948  -9.794   0.517  0.00  0.00    -0.646 OA
HETATM    4  O           1     -20.983 -11.724  -0.463  0.00  0.00    -0.646 OA
ENDBRANCH   1   2
BRANCH   1   5
HETATM    5  C           1     -21.618  -9.539  -2.643  0.00  0.00     0.074 C 
BRANCH   5   6
HETATM    6  C           1     -21.368  -8.333  -3.493  0.00  0.00    -0.056 A 
HETATM    7  C           1     -21.451  -7.057  -2.935  0.00  0.00     0.010 A 
HETATM    8  C           1     -21.220  -5.932  -3.726  0.00  0.00     0.038 A 
HETATM    9  C           1     -20.903  -6.083  -5.076  0.00  0.00     0.081 A 
HETATM   10  C           1     -20.820  -7.358  -5.635  0.00  0.00     0.038 A 
HETATM   11  C           1     -21.051  -8.483  -4.843  0.00  0.00     0.010 A 
BRANCH   9  12
HETATM   12  O           1     -20.677  -4.991  -5.846  0.00  0.00    -0.247 OA
BRANCH  12  13
HETATM   13  P           1     -21.793  -4.591  -6.943  0.00  0.00     0.411 P 
HETATM   14  O           1     -23.136  -4.940  -6.430  0.00  0.00    -0.624 OA
HETATM   15  O           1     -21.535  -5.329  -8.198  0.00  0.00    -0.624 OA
BRANCH  13  16
HETATM   16  O           1     -21.722  -3.002  -7.227  0.00  0.00    -0.300 OA
HETATM   17  H           1     -21.641  -2.606  -6.377  0.00  0.00     0.223 HD
ENDBRANCH  13  16
ENDBRANCH  12  13
ENDBRANCH   9  12
ENDBRANCH   5   6
ENDBRANCH   1   5
BRANCH   1  18
HETATM   18  N           1     -19.507 -10.733  -2.540  0.00  0.00    -0.344 N 
HETATM   19  H           1     -19.902 -11.461  -3.122  0.00  0.00     0.163 HD
HETATM   20  C           1     -18.148 -10.595  -2.445  0.00  0.00     0.249 C 
HETATM   21  O           1     -17.539 -11.191  -1.589  0.00  0.00    -0.271 OA
BRANCH  20  22
HETATM   22  C           1     -17.411  -9.698  -3.409  0.00  0.00     0.278 C 
BRANCH  22  23
HETATM   23  N           1     -16.098  -9.292  -2.809  0.00  0.00    -0.066 N 
HETATM   24  H           1     -15.368  -9.996  -3.060  0.00  0.00     0.275 HD
HETATM   25  H           1     -15.820  -8.355  -3.179  0.00  0.00     0.275 HD
HETATM   26  H           1     -16.191  -9.241  -1.769  0.00  0.00     0.275 HD
ENDBRANCH  22  23
BRANCH  22  27
HETATM   27  C           1     -17.164 -10.445  -4.713  0.00  0.00     0.017 C 
HETATM   28  C           1     -15.665 -10.562  -4.953  0.00  0.00     0.012 C 
HETATM   29  C           1     -17.805  -9.682  -5.864  0.00  0.00     0.012 C 
ENDBRANCH  22  27
ENDBRANCH  20  22
ENDBRANCH   1  18
TORSDOF 10
ENDMDL
MODEL 8
REMARK VINA RESULT:      -6.6      5.275      7.696
REMARK  10 active torsions:
REMARK  status: ('A' for Active; 'I' for Inactive)
REMARK    1  A    between atoms: O_3  and  P_4 
REMARK    2  A    between atoms: P_4  and  O_5 
REMARK    3  A    between atoms: O_5  and  C_6 
REMARK    4  A    between atoms: N_8  and  C_16 
REMARK    5  A    between atoms: C_9  and  C_17 
REMARK    6  A    between atoms: C_9  and  C_26 
REMARK    7  A    between atoms: C_9  and  N_28 
REMARK    8  A    between atoms: C_16  and  C_23 
REMARK    9  A    between atoms: C_16  and  C_24 
REMARK       I    between atoms: C_23  and  N_28 
REMARK   10  A    between atoms: C_25  and  C_26 
ROOT
HETATM    1  C           1     -21.352  -7.744  -2.077  0.00  0.00     0.189 C 
ENDROOT
BRANCH   1   2
HETATM    2  C           1     -21.824  -6.387  -2.533  0.00  0.00     0.197 C 
HETATM    3  O           1     -22.403  -5.624  -1.729  0.00  0.00    -0.646 OA
HETATM    4  O           1     -21.637  -6.024  -3.714  0.00  0.00    -0.646 OA
ENDBRANCH   1   2
BRANCH   1   5
HETATM    5  C           1     -21.338  -8.703  -3.260  0.00  0.00     0.074 C 
BRANCH   5   6
HETATM    6  C           1     -19.924  -9.050  -3.607  0.00  0.00    -0.056 A 
HETATM    7  C           1     -18.987  -9.250  -2.592  0.00  0.00     0.010 A 
HETATM    8  C           1     -17.669  -9.572  -2.915  0.00  0.00     0.038 A 
HETATM    9  C           1     -17.287  -9.695  -4.250  0.00  0.00     0.081 A 
HETATM   10  C           1     -18.224  -9.494  -5.265  0.00  0.00     0.038 A 
HETATM   11  C           1     -19.542  -9.173  -4.943  0.00  0.00     0.010 A 
BRANCH   9  12
HETATM   12  O           1     -16.007 -10.009  -4.565  0.00  0.00    -0.247 OA
BRANCH  12  13
HETATM   13  P           1     -15.536 -11.543  -4.386  0.00  0.00     0.411 P 
HETATM   14  O           1     -14.489 -11.857  -5.384  0.00  0.00    -0.624 OA
HETATM   15  O           1     -16.694 -12.441  -4.587  0.00  0.00    -0.624 OA
BRANCH  13  16
HETATM   16  O           1     -14.942 -11.754  -2.899  0.00  0.00    -0.300 OA
HETATM   17  H           1     -15.053 -12.672  -2.720  0.00  0.00     0.223 HD
ENDBRANCH  13  16
ENDBRANCH  12  13
ENDBRANCH   9  12
ENDBRANCH   5   6
ENDBRANCH   1   5
BRANCH   1  18
HETATM   18  N           1     -22.250  -8.250  -1.057  0.00  0.00    -0.344 N 
HETATM   19  H           1     -23.231  -8.000  -1.078  0.00  0.00     0.163 HD
HETATM   20  C           1     -21.773  -9.067  -0.066  0.00  0.00     0.249 C 
HETATM   21  O           1     -21.361  -8.588   0.963  0.00  0.00    -0.271 OA
BRANCH  20  22
HETATM   22  C           1     -21.761 -10.563  -0.261  0.00  0.00     0.278 C 
BRANCH  22  23
HETATM   23  N           1     -20.811 -11.186   0.717  0.00  0.00    -0.066 N 
HETATM   24  H           1     -20.728 -12.209   0.519  0.00  0.00     0.275 HD
HETATM   25  H           1     -19.872 -10.736   0.627  0.00  0.00     0.275 HD
HETATM   26  H           1     -21.170 -11.047   1.689  0.00  0.00     0.275 HD
ENDBRANCH  22  23
BRANCH  22  27
HETATM   27  C           1     -23.161 -11.117  -0.032  0.00  0.00     0.017 C 
HETATM   28  C           1     -23.065 -12.448   0.700  0.00  0.00     0.012 C 
HETATM   29  C           1     -23.850 -11.326  -1.375  0.00  0.00     0.012 C 
ENDBRANCH  22  27
ENDBRANCH  20  22
ENDBRANCH   1  18
TORSDOF 10
ENDMDL
MODEL 9
REMARK VINA RESULT:      -6.6      4.598      7.616
REMARK  10 active torsions:
REMARK  status: ('A' for Active; 'I' for Inactive)
REMARK    1  A    between atoms: O_3  and  P_4 
REMARK    2  A    between atoms: P_4  and  O_5 
REMARK    3  A    between atoms: O_5  and  C_6 
REMARK    4  A    between atoms: N_8  and  C_16 
REMARK    5  A    between atoms: C_9  and  C_17 
REMARK    6  A    between atoms: C_9  and  C_26 
REMARK    7  A    between atoms: C_9  and  N_28 
REMARK    8  A    between atoms: C_16  and  C_23 
REMARK    9  A    between atoms: C_16  and  C_24 
REMARK       I    between atoms: C_23  and  N_28 
REMARK   10  A    between atoms: C_25  and  C_26 
ROOT
HETATM    1  C           1     -21.033  -7.380  -3.716  0.00  0.00     0.189 C 
ENDROOT
BRANCH   1   2
HETATM    2  C           1     -21.436  -6.199  -4.563  0.00  0.00     0.197 C 
HETATM    3  O           1     -22.623  -6.075  -4.937  0.00  0.00    -0.646 OA
HETATM    4  O           1     -20.585  -5.344  -4.891  0.00  0.00    -0.646 OA
ENDBRANCH   1   2
BRANCH   1   5
HETATM    5  C           1     -20.750  -8.577  -4.615  0.00  0.00     0.074 C 
BRANCH   5   6
HETATM    6  C           1     -19.357  -9.068  -4.372  0.00  0.00    -0.056 A 
HETATM    7  C           1     -18.878  -9.190  -3.066  0.00  0.00     0.010 A 
HETATM    8  C           1     -17.580  -9.645  -2.840  0.00  0.00     0.038 A 
HETATM    9  C           1     -16.760  -9.981  -3.917  0.00  0.00     0.081 A 
HETATM   10  C           1     -17.239  -9.859  -5.222  0.00  0.00     0.038 A 
HETATM   11  C           1     -18.537  -9.404  -5.449  0.00  0.00     0.010 A 
BRANCH   9  12
HETATM   12  O           1     -15.499 -10.425  -3.697  0.00  0.00    -0.247 OA
BRANCH  12  13
HETATM   13  P           1     -15.300 -11.977  -3.296  0.00  0.00     0.411 P 
HETATM   14  O           1     -15.411 -12.125  -1.828  0.00  0.00    -0.624 OA
HETATM   15  O           1     -13.963 -12.432  -3.738  0.00  0.00    -0.624 OA
BRANCH  13  16
HETATM   16  O           1     -16.438 -12.869  -4.015  0.00  0.00    -0.300 OA
HETATM   17  H           1     -16.335 -12.700  -4.936  0.00  0.00     0.223 HD
ENDBRANCH  13  16
ENDBRANCH  12  13
ENDBRANCH   9  12
ENDBRANCH   5   6
ENDBRANCH   1   5
BRANCH   1  18
HETATM   18  N           1     -22.108  -7.707  -2.800  0.00  0.00    -0.344 N 
HETATM   19  H           1     -22.922  -8.207  -3.134  0.00  0.00     0.163 HD
HETATM   20  C           1     -22.022  -7.340  -1.484  0.00  0.00     0.249 C 
HETATM   21  O           1     -22.452  -6.268  -1.128  0.00  0.00    -0.271 OA
BRANCH  20  22
HETATM   22  C           1     -21.391  -8.272  -0.479  0.00  0.00     0.278 C 
BRANCH  22  23
HETATM   23  N           1     -21.856  -7.908   0.900  0.00  0.00    -0.066 N 
HETATM   24  H           1     -21.028  -7.700   1.503  0.00  0.00     0.275 HD
HETATM   25  H           1     -22.472  -7.066   0.850  0.00  0.00     0.275 HD
HETATM   26  H           1     -22.392  -8.707   1.308  0.00  0.00     0.275 HD
ENDBRANCH  22  23
BRANCH  22  27
HETATM   27  C           1     -21.798  -9.706  -0.790  0.00  0.00     0.017 C 
HETATM   28  C           1     -23.180  -9.977  -0.211  0.00  0.00     0.012 C 
HETATM   29  C           1     -20.791 -10.665  -0.169  0.00  0.00     0.012 C 
ENDBRANCH  22  27
ENDBRANCH  20  22
ENDBRANCH   1  18
TORSDOF 10
ENDMDL
