MODEL 1
REMARK VINA RESULT:      -5.9      0.000      0.000
REMARK  5 active torsions:
REMARK  status: ('A' for Active; 'I' for Inactive)
REMARK    1  A    between atoms: N_6  and  C_13 
REMARK       I    between atoms: N_6  and  C_17 
REMARK    2  A    between atoms: C_13  and  C_19 
REMARK    3  A    between atoms: C_13  and  C_14 
REMARK    4  A    between atoms: C_14  and  C_15 
REMARK    5  A    between atoms: C_16  and  C_17 
ROOT
HETATM    1  C           1     -20.756  -8.238  -3.366  0.00  0.00     0.191 C 
ENDROOT
BRANCH   1   2
HETATM    2  N           1     -21.934  -7.519  -3.812  0.00  0.00    -0.344 N 
HETATM    3  H           1     -22.837  -7.724  -3.402  0.00  0.00     0.163 HD
HETATM    4  C           1     -21.825  -6.563  -4.786  0.00  0.00     0.252 C 
HETATM    5  O           1     -22.807  -5.965  -5.156  0.00  0.00    -0.271 OA
BRANCH   4   6
HETATM    6  C           1     -20.479  -6.257  -5.395  0.00  0.00     0.372 C 
HETATM    7  C           1     -20.238  -4.758  -5.448  0.00  0.00     0.048 C 
HETATM    8  C           1     -20.683  -4.334  -6.843  0.00  0.00     0.033 C 
HETATM    9  C           1     -21.147  -5.614  -7.517  0.00  0.00     0.271 C 
HETATM   10  N           1     -20.437  -6.666  -6.796  0.00  0.00     0.097 N 
HETATM   11  H           1     -19.475  -6.717  -7.130  0.00  0.00     0.317 HD
ENDBRANCH   4   6
ENDBRANCH   1   2
BRANCH   1  12
HETATM   12  C           1     -21.012  -9.723  -3.449  0.00  0.00     0.197 C 
HETATM   13  O           1     -22.109 -10.146  -3.873  0.00  0.00    -0.646 OA
HETATM   14  O           1     -20.127 -10.530  -3.094  0.00  0.00    -0.646 OA
ENDBRANCH   1  12
BRANCH   1  15
HETATM   15  C           1     -20.445  -7.856  -1.925  0.00  0.00     0.090 C 
BRANCH  15  16
HETATM   16  C           1     -21.632  -8.155  -1.061  0.00  0.00     0.008 A 
HETATM   17  N           1     -22.072  -9.415  -0.752  0.00  0.00    -0.358 N 
HETATM   18  C           1     -23.123  -9.237   0.016  0.00  0.00     0.176 A 
ATOM     19  HN          1     -21.670 -10.303  -1.053  1.00  0.00     0.166 HD
HETATM   20  N           1     -23.378  -7.909   0.213  0.00  0.00    -0.380 N 
HETATM   21  H           1     -24.159  -7.506   0.786  0.00  0.00     0.160 HD
HETATM   22  C           1     -22.429  -7.202  -0.473  0.00  0.00     0.109 A 
ENDBRANCH  15  16
ENDBRANCH   1  15
TORSDOF 5
ENDMDL
MODEL 2
REMARK VINA RESULT:      -5.7      2.592      3.800
REMARK  5 active torsions:
REMARK  status: ('A' for Active; 'I' for Inactive)
REMARK    1  A    between atoms: N_6  and  C_13 
REMARK       I    between atoms: N_6  and  C_17 
REMARK    2  A    between atoms: C_13  and  C_19 
REMARK    3  A    between atoms: C_13  and  C_14 
REMARK    4  A    between atoms: C_14  and  C_15 
REMARK    5  A    between atoms: C_16  and  C_17 
ROOT
HETATM    1  C           1     -20.508  -8.934  -4.905  0.00  0.00     0.191 C 
ENDROOT
BRANCH   1   2
HETATM    2  N           1     -21.667  -8.077  -4.740  0.00  0.00    -0.344 N 
HETATM    3  H           1     -22.511  -8.444  -4.318  0.00  0.00     0.163 HD
HETATM    4  C           1     -21.620  -6.774  -5.156  0.00  0.00     0.252 C 
HETATM    5  O           1     -22.585  -6.062  -5.018  0.00  0.00    -0.271 OA
BRANCH   4   6
HETATM    6  C           1     -20.362  -6.228  -5.785  0.00  0.00     0.372 C 
HETATM    7  C           1     -20.267  -4.725  -5.587  0.00  0.00     0.048 C 
HETATM    8  C           1     -20.860  -4.120  -6.855  0.00  0.00     0.033 C 
HETATM    9  C           1     -21.255  -5.309  -7.714  0.00  0.00     0.271 C 
HETATM   10  N           1     -20.394  -6.387  -7.236  0.00  0.00     0.097 N 
HETATM   11  H           1     -19.461  -6.278  -7.633  0.00  0.00     0.317 HD
ENDBRANCH   4   6
ENDBRANCH   1   2
BRANCH   1  12
HETATM   12  C           1     -20.958 -10.317  -5.305  0.00  0.00     0.197 C 
HETATM   13  O           1     -20.492 -10.853  -6.333  0.00  0.00    -0.646 OA
HETATM   14  O           1     -21.797 -10.927  -4.608  0.00  0.00    -0.646 OA
ENDBRANCH   1  12
BRANCH   1  15
HETATM   15  C           1     -19.743  -9.009  -3.590  0.00  0.00     0.090 C 
BRANCH  15  16
HETATM   16  C           1     -18.318  -9.383  -3.861  0.00  0.00     0.008 A 
HETATM   17  N           1     -17.810  -9.662  -5.103  0.00  0.00    -0.358 N 
HETATM   18  C           1     -16.541  -9.939  -4.904  0.00  0.00     0.176 A 
ATOM     19  HN          1     -18.310  -9.656  -5.992  1.00  0.00     0.166 HD
HETATM   20  N           1     -16.212  -9.849  -3.581  0.00  0.00    -0.380 N 
HETATM   21  H           1     -15.264 -10.022  -3.165  0.00  0.00     0.160 HD
HETATM   22  C           1     -17.343  -9.493  -2.899  0.00  0.00     0.109 A 
ENDBRANCH  15  16
ENDBRANCH   1  15
TORSDOF 5
ENDMDL
MODEL 3
REMARK VINA RESULT:      -5.7      2.860      5.625
REMARK  5 active torsions:
REMARK  status: ('A' for Active; 'I' for Inactive)
REMARK    1  A    between atoms: N_6  and  C_13 
REMARK       I    between atoms: N_6  and  C_17 
REMARK    2  A    between atoms: C_13  and  C_19 
REMARK    3  A    between atoms: C_13  and  C_14 
REMARK    4  A    between atoms: C_14  and  C_15 
REMARK    5  A    between atoms: C_16  and  C_17 
ROOT
HETATM    1  C           1     -20.384  -8.802  -4.010  0.00  0.00     0.191 C 
ENDROOT
BRANCH   1   2
HETATM    2  N           1     -21.466  -9.617  -3.494  0.00  0.00    -0.344 N 
HETATM    3  H           1     -22.020 -10.182  -4.127  0.00  0.00     0.163 HD
HETATM    4  C           1     -21.740  -9.624  -2.153  0.00  0.00     0.252 C 
HETATM    5  O           1     -22.641 -10.303  -1.725  0.00  0.00    -0.271 OA
BRANCH   4   6
HETATM    6  C           1     -20.914  -8.783  -1.211  0.00  0.00     0.372 C 
HETATM    7  C           1     -21.263  -9.090   0.235  0.00  0.00     0.048 C 
HETATM    8  C           1     -22.305  -8.047   0.622  0.00  0.00     0.033 C 
HETATM    9  C           1     -22.492  -7.193  -0.620  0.00  0.00     0.271 C 
HETATM   10  N           1     -21.242  -7.367  -1.355  0.00  0.00     0.097 N 
HETATM   11  H           1     -20.518  -6.783  -0.936  0.00  0.00     0.317 HD
ENDBRANCH   4   6
ENDBRANCH   1   2
BRANCH   1  12
HETATM   12  C           1     -20.953  -7.680  -4.844  0.00  0.00     0.197 C 
HETATM   13  O           1     -21.243  -6.589  -4.310  0.00  0.00    -0.646 OA
HETATM   14  O           1     -21.134  -7.844  -6.070  0.00  0.00    -0.646 OA
ENDBRANCH   1  12
BRANCH   1  15
HETATM   15  C           1     -19.468  -9.661  -4.872  0.00  0.00     0.090 C 
BRANCH  15  16
HETATM   16  C           1     -18.090  -9.666  -4.285  0.00  0.00     0.008 A 
HETATM   17  N           1     -17.800  -9.384  -2.975  0.00  0.00    -0.358 N 
HETATM   18  C           1     -16.495  -9.497  -2.876  0.00  0.00     0.176 A 
ATOM     19  HN          1     -18.458  -9.139  -2.235  1.00  0.00     0.166 HD
HETATM   20  N           1     -15.931  -9.841  -4.073  0.00  0.00    -0.380 N 
HETATM   21  H           1     -14.909  -9.993  -4.256  0.00  0.00     0.160 HD
HETATM   22  C           1     -16.943  -9.953  -4.987  0.00  0.00     0.109 A 
ENDBRANCH  15  16
ENDBRANCH   1  15
TORSDOF 5
ENDMDL
MODEL 4
REMARK VINA RESULT:      -5.6      2.384      5.647
REMARK  5 active torsions:
REMARK  status: ('A' for Active; 'I' for Inactive)
REMARK    1  A    between atoms: N_6  and  C_13 
REMARK       I    between atoms: N_6  and  C_17 
REMARK    2  A    between atoms: C_13  and  C_19 
REMARK    3  A    between atoms: C_13  and  C_14 
REMARK    4  A    between atoms: C_14  and  C_15 
REMARK    5  A    between atoms: C_16  and  C_17 
ROOT
HETATM    1  C           1     -21.308  -7.146  -4.340  0.00  0.00     0.191 C 
ENDROOT
BRANCH   1   2
HETATM    2  N           1     -21.616  -8.542  -4.580  0.00  0.00    -0.344 N 
HETATM    3  H           1     -22.579  -8.855  -4.577  0.00  0.00     0.163 HD
HETATM    4  C           1     -20.606  -9.436  -4.812  0.00  0.00     0.252 C 
HETATM    5  O           1     -20.864 -10.599  -5.013  0.00  0.00    -0.271 OA
BRANCH   4   6
HETATM    6  C           1     -19.172  -8.969  -4.818  0.00  0.00     0.372 C 
HETATM    7  C           1     -18.301  -9.907  -5.636  0.00  0.00     0.048 C 
HETATM    8  C           1     -17.712 -10.885  -4.626  0.00  0.00     0.033 C 
HETATM    9  C           1     -18.271 -10.451  -3.281  0.00  0.00     0.271 C 
HETATM   10  N           1     -18.596  -9.041  -3.477  0.00  0.00     0.097 N 
HETATM   11  H           1     -17.743  -8.484  -3.419  0.00  0.00     0.317 HD
ENDBRANCH   4   6
ENDBRANCH   1   2
BRANCH   1  12
HETATM   12  C           1     -21.523  -6.827  -2.880  0.00  0.00     0.197 C 
HETATM   13  O           1     -20.823  -7.384  -2.008  0.00  0.00    -0.646 OA
HETATM   14  O           1     -22.404  -6.007  -2.544  0.00  0.00    -0.646 OA
ENDBRANCH   1  12
BRANCH   1  15
HETATM   15  C           1     -22.220  -6.271  -5.190  0.00  0.00     0.090 C 
BRANCH  15  16
HETATM   16  C           1     -21.432  -5.674  -6.315  0.00  0.00     0.008 A 
HETATM   17  N           1     -20.466  -6.336  -7.027  0.00  0.00    -0.358 N 
HETATM   18  C           1     -20.028  -5.467  -7.909  0.00  0.00     0.176 A 
ATOM     19  HN          1     -20.154  -7.299  -6.899  1.00  0.00     0.166 HD
HETATM   20  N           1     -20.674  -4.268  -7.793  0.00  0.00    -0.380 N 
HETATM   21  H           1     -20.507  -3.414  -8.380  0.00  0.00     0.160 HD
HETATM   22  C           1     -21.579  -4.386  -6.773  0.00  0.00     0.109 A 
ENDBRANCH  15  16
ENDBRANCH   1  15
TORSDOF 5
ENDMDL
MODEL 5
REMARK VINA RESULT:      -5.4      2.850      6.029
REMARK  5 active torsions:
REMARK  status: ('A' for Active; 'I' for Inactive)
REMARK    1  A    between atoms: N_6  and  C_13 
REMARK       I    between atoms: N_6  and  C_17 
REMARK    2  A    between atoms: C_13  and  C_19 
REMARK    3  A    between atoms: C_13  and  C_14 
REMARK    4  A    between atoms: C_14  and  C_15 
REMARK    5  A    between atoms: C_16  and  C_17 
ROOT
HETATM    1  C           1     -21.824  -9.135  -0.433  0.00  0.00     0.191 C 
ENDROOT
BRANCH   1   2
HETATM    2  N           1     -23.095  -9.831  -0.429  0.00  0.00    -0.344 N 
HETATM    3  H           1     -23.856  -9.492   0.148  0.00  0.00     0.163 HD
HETATM    4  C           1     -23.269 -10.946  -1.204  0.00  0.00     0.252 C 
HETATM    5  O           1     -24.328 -11.525  -1.201  0.00  0.00    -0.271 OA
BRANCH   4   6
HETATM    6  C           1     -22.136 -11.449  -2.064  0.00  0.00     0.372 C 
HETATM    7  C           1     -22.654 -12.366  -3.159  0.00  0.00     0.048 C 
HETATM    8  C           1     -22.516 -13.775  -2.595  0.00  0.00     0.033 C 
HETATM    9  C           1     -21.918 -13.592  -1.210  0.00  0.00     0.271 C 
HETATM   10  N           1     -21.237 -12.303  -1.292  0.00  0.00     0.097 N 
HETATM   11  H           1     -20.346 -12.420  -1.775  0.00  0.00     0.317 HD
ENDBRANCH   4   6
ENDBRANCH   1   2
BRANCH   1  12
HETATM   12  C           1     -21.119  -9.368   0.881  0.00  0.00     0.197 C 
HETATM   13  O           1     -20.673 -10.501   1.160  0.00  0.00    -0.646 OA
HETATM   14  O           1     -20.981  -8.426   1.691  0.00  0.00    -0.646 OA
ENDBRANCH   1  12
BRANCH   1  15
HETATM   15  C           1     -22.063  -7.643  -0.623  0.00  0.00     0.090 C 
BRANCH  15  16
HETATM   16  C           1     -21.692  -7.251  -2.020  0.00  0.00     0.008 A 
HETATM   17  N           1     -22.060  -6.078  -2.624  0.00  0.00    -0.358 N 
HETATM   18  C           1     -21.538  -6.128  -3.828  0.00  0.00     0.176 A 
ATOM     19  HN          1     -22.621  -5.325  -2.223  1.00  0.00     0.166 HD
HETATM   20  N           1     -20.847  -7.290  -4.025  0.00  0.00    -0.380 N 
HETATM   21  H           1     -20.340  -7.570  -4.900  0.00  0.00     0.160 HD
HETATM   22  C           1     -20.937  -8.022  -2.872  0.00  0.00     0.109 A 
ENDBRANCH  15  16
ENDBRANCH   1  15
TORSDOF 5
ENDMDL
MODEL 6
REMARK VINA RESULT:      -5.4      1.791      5.531
REMARK  5 active torsions:
REMARK  status: ('A' for Active; 'I' for Inactive)
REMARK    1  A    between atoms: N_6  and  C_13 
REMARK       I    between atoms: N_6  and  C_17 
REMARK    2  A    between atoms: C_13  and  C_19 
REMARK    3  A    between atoms: C_13  and  C_14 
REMARK    4  A    between atoms: C_14  and  C_15 
REMARK    5  A    between atoms: C_16  and  C_17 
ROOT
HETATM    1  C           1     -20.898  -8.767  -3.407  0.00  0.00     0.191 C 
ENDROOT
BRANCH   1   2
HETATM    2  N           1     -21.127  -7.450  -2.846  0.00  0.00    -0.344 N 
HETATM    3  H           1     -20.774  -6.629  -3.322  0.00  0.00     0.163 HD
HETATM    4  C           1     -21.821  -7.316  -1.674  0.00  0.00     0.252 C 
HETATM    5  O           1     -22.013  -6.219  -1.208  0.00  0.00    -0.271 OA
BRANCH   4   6
HETATM    6  C           1     -22.349  -8.540  -0.966  0.00  0.00     0.372 C 
HETATM    7  C           1     -23.236  -8.148   0.203  0.00  0.00     0.048 C 
HETATM    8  C           1     -22.317  -8.153   1.418  0.00  0.00     0.033 C 
HETATM    9  C           1     -20.953  -8.555   0.882  0.00  0.00     0.271 C 
HETATM   10  N           1     -21.261  -9.289  -0.342  0.00  0.00     0.097 N 
HETATM   11  H           1     -21.562 -10.234  -0.105  0.00  0.00     0.317 HD
ENDBRANCH   4   6
ENDBRANCH   1   2
BRANCH   1  12
HETATM   12  C           1     -19.423  -9.085  -3.358  0.00  0.00     0.197 C 
HETATM   13  O           1     -18.884  -9.386  -2.272  0.00  0.00    -0.646 OA
HETATM   14  O           1     -18.741  -9.046  -4.405  0.00  0.00    -0.646 OA
ENDBRANCH   1  12
BRANCH   1  15
HETATM   15  C           1     -21.374  -8.792  -4.854  0.00  0.00     0.090 C 
BRANCH  15  16
HETATM   16  C           1     -21.209  -7.432  -5.458  0.00  0.00     0.008 A 
HETATM   17  N           1     -20.103  -7.018  -6.153  0.00  0.00    -0.358 N 
HETATM   18  C           1     -20.359  -5.779  -6.506  0.00  0.00     0.176 A 
ATOM     19  HN          1     -19.261  -7.557  -6.355  1.00  0.00     0.166 HD
HETATM   20  N           1     -21.588  -5.377  -6.063  0.00  0.00    -0.380 N 
HETATM   21  H           1     -22.024  -4.434  -6.215  0.00  0.00     0.160 HD
HETATM   22  C           1     -22.146  -6.428  -5.389  0.00  0.00     0.109 A 
ENDBRANCH  15  16
ENDBRANCH   1  15
TORSDOF 5
ENDMDL
MODEL 7
REMARK VINA RESULT:      -5.3      3.131      5.609
REMARK  5 active torsions:
REMARK  status: ('A' for Active; 'I' for Inactive)
REMARK    1  A    between atoms: N_6  and  C_13 
REMARK       I    between atoms: N_6  and  C_17 
REMARK    2  A    between atoms: C_13  and  C_19 
REMARK    3  A    between atoms: C_13  and  C_14 
REMARK    4  A    between atoms: C_14  and  C_15 
REMARK    5  A    between atoms: C_16  and  C_17 
ROOT
HETATM    1  C           1     -20.008  -9.762  -3.731  0.00  0.00     0.191 C 
ENDROOT
BRANCH   1   2
HETATM    2  N           1     -21.309 -10.225  -3.286  0.00  0.00    -0.344 N 
HETATM    3  H           1     -21.886 -10.782  -3.903  0.00  0.00     0.163 HD
HETATM    4  C           1     -21.756  -9.908  -2.032  0.00  0.00     0.252 C 
HETATM    5  O           1     -22.838 -10.294  -1.661  0.00  0.00    -0.271 OA
BRANCH   4   6
HETATM    6  C           1     -20.895  -9.078  -1.111  0.00  0.00     0.372 C 
HETATM    7  C           1     -21.402  -9.154   0.319  0.00  0.00     0.048 C 
HETATM    8  C           1     -22.307  -7.939   0.484  0.00  0.00     0.033 C 
HETATM    9  C           1     -22.264  -7.227  -0.857  0.00  0.00     0.271 C 
HETATM   10  N           1     -20.998  -7.659  -1.442  0.00  0.00     0.097 N 
HETATM   11  H           1     -20.232  -7.133  -1.021  0.00  0.00     0.317 HD
ENDBRANCH   4   6
ENDBRANCH   1   2
BRANCH   1  12
HETATM   12  C           1     -20.148  -9.082  -5.071  0.00  0.00     0.197 C 
HETATM   13  O           1     -19.134  -8.658  -5.666  0.00  0.00    -0.646 OA
HETATM   14  O           1     -21.279  -8.942  -5.585  0.00  0.00    -0.646 OA
ENDBRANCH   1  12
BRANCH   1  15
HETATM   15  C           1     -19.065 -10.951  -3.861  0.00  0.00     0.090 C 
BRANCH  15  16
HETATM   16  C           1     -17.752 -10.619  -3.221  0.00  0.00     0.008 A 
HETATM   17  N           1     -16.967  -9.549  -3.563  0.00  0.00    -0.358 N 
HETATM   18  C           1     -15.920  -9.620  -2.775  0.00  0.00     0.176 A 
ATOM     19  HN          1     -17.157  -8.846  -4.279  1.00  0.00     0.166 HD
HETATM   20  N           1     -15.998 -10.697  -1.936  0.00  0.00    -0.380 N 
HETATM   21  H           1     -15.289 -10.973  -1.213  0.00  0.00     0.160 HD
HETATM   22  C           1     -17.169 -11.348  -2.212  0.00  0.00     0.109 A 
ENDBRANCH  15  16
ENDBRANCH   1  15
TORSDOF 5
ENDMDL
MODEL 8
REMARK VINA RESULT:      -5.1      2.367      5.458
REMARK  5 active torsions:
REMARK  status: ('A' for Active; 'I' for Inactive)
REMARK    1  A    between atoms: N_6  and  C_13 
REMARK       I    between atoms: N_6  and  C_17 
REMARK    2  A    between atoms: C_13  and  C_19 
REMARK    3  A    between atoms: C_13  and  C_14 
REMARK    4  A    between atoms: C_14  and  C_15 
REMARK    5  A    between atoms: C_16  and  C_17 
ROOT
HETATM    1  C           1     -20.846  -7.046  -4.539  0.00  0.00     0.191 C 
ENDROOT
BRANCH   1   2
HETATM    2  N           1     -21.717  -6.355  -3.609  0.00  0.00    -0.344 N 
HETATM    3  H           1     -22.202  -5.515  -3.899  0.00  0.00     0.163 HD
HETATM    4  C           1     -21.885  -6.837  -2.339  0.00  0.00     0.252 C 
HETATM    5  O           1     -22.611  -6.262  -1.565  0.00  0.00    -0.271 OA
BRANCH   4   6
HETATM    6  C           1     -21.163  -8.090  -1.907  0.00  0.00     0.372 C 
HETATM    7  C           1     -22.123  -9.264  -1.815  0.00  0.00     0.048 C 
HETATM    8  C           1     -22.552  -9.311  -0.353  0.00  0.00     0.033 C 
HETATM    9  C           1     -21.809  -8.168   0.316  0.00  0.00     0.271 C 
HETATM   10  N           1     -20.650  -7.952  -0.547  0.00  0.00     0.097 N 
HETATM   11  H           1     -19.945  -8.662  -0.352  0.00  0.00     0.317 HD
ENDBRANCH   4   6
ENDBRANCH   1   2
BRANCH   1  12
HETATM   12  C           1     -20.335  -6.070  -5.570  0.00  0.00     0.197 C 
HETATM   13  O           1     -20.327  -4.845  -5.322  0.00  0.00    -0.646 OA
HETATM   14  O           1     -19.922  -6.486  -6.674  0.00  0.00    -0.646 OA
ENDBRANCH   1  12
BRANCH   1  15
HETATM   15  C           1     -21.624  -8.157  -5.233  0.00  0.00     0.090 C 
BRANCH  15  16
HETATM   16  C           1     -20.780  -9.393  -5.297  0.00  0.00     0.008 A 
HETATM   17  N           1     -19.433  -9.404  -5.549  0.00  0.00    -0.358 N 
HETATM   18  C           1     -19.085 -10.670  -5.518  0.00  0.00     0.176 A 
ATOM     19  HN          1     -18.830  -8.600  -5.723  1.00  0.00     0.166 HD
HETATM   20  N           1     -20.157 -11.477  -5.257  0.00  0.00    -0.380 N 
HETATM   21  H           1     -20.141 -12.524  -5.181  0.00  0.00     0.160 HD
HETATM   22  C           1     -21.252 -10.670  -5.112  0.00  0.00     0.109 A 
ENDBRANCH  15  16
ENDBRANCH   1  15
TORSDOF 5
ENDMDL
MODEL 9
REMARK VINA RESULT:      -5.1     14.905     16.847
REMARK  5 active torsions:
REMARK  status: ('A' for Active; 'I' for Inactive)
REMARK    1  A    between atoms: N_6  and  C_13 
REMARK       I    between atoms: N_6  and  C_17 
REMARK    2  A    between atoms: C_13  and  C_19 
REMARK    3  A    between atoms: C_13  and  C_14 
REMARK    4  A    between atoms: C_14  and  C_15 
REMARK    5  A    between atoms: C_16  and  C_17 
ROOT
HETATM    1  C           1     -26.473   7.631  -3.817  0.00  0.00     0.191 C 
ENDROOT
BRANCH   1   2
HETATM    2  N           1     -27.802   7.484  -3.255  0.00  0.00    -0.344 N 
HETATM    3  H           1     -28.487   6.904  -3.722  0.00  0.00     0.163 HD
HETATM    4  C           1     -28.129   8.131  -2.094  0.00  0.00     0.252 C 
HETATM    5  O           1     -29.236   8.008  -1.626  0.00  0.00    -0.271 OA
BRANCH   4   6
HETATM    6  C           1     -27.107   8.995  -1.398  0.00  0.00     0.372 C 
HETATM    7  C           1     -26.485   8.257  -0.224  0.00  0.00     0.048 C 
HETATM    8  C           1     -27.301   8.686   0.991  0.00  0.00     0.033 C 
HETATM    9  C           1     -28.342   9.651   0.449  0.00  0.00     0.271 C 
HETATM   10  N           1     -27.741  10.157  -0.782  0.00  0.00     0.097 N 
HETATM   11  H           1     -27.048  10.870  -0.554  0.00  0.00     0.317 HD
ENDBRANCH   4   6
ENDBRANCH   1   2
BRANCH   1  12
HETATM   12  C           1     -26.580   7.900  -5.298  0.00  0.00     0.197 C 
HETATM   13  O           1     -27.093   8.964  -5.705  0.00  0.00    -0.646 OA
HETATM   14  O           1     -26.155   7.058  -6.118  0.00  0.00    -0.646 OA
ENDBRANCH   1  12
BRANCH   1  15
HETATM   15  C           1     -25.682   6.348  -3.590  0.00  0.00     0.090 C 
BRANCH  15  16
HETATM   16  C           1     -24.482   6.645  -2.744  0.00  0.00     0.008 A 
HETATM   17  N           1     -23.643   7.712  -2.930  0.00  0.00    -0.358 N 
HETATM   18  C           1     -22.732   7.605  -1.990  0.00  0.00     0.176 A 
ATOM     19  HN          1     -23.711   8.436  -3.646  1.00  0.00     0.166 HD
HETATM   20  N           1     -22.951   6.508  -1.205  0.00  0.00    -0.380 N 
HETATM   21  H           1     -22.366   6.203  -0.388  0.00  0.00     0.160 HD
HETATM   22  C           1     -24.071   5.882  -1.677  0.00  0.00     0.109 A 
ENDBRANCH  15  16
ENDBRANCH   1  15
TORSDOF 5
ENDMDL
