MODEL 1
REMARK VINA RESULT:      -5.8      0.000      0.000
REMARK  9 active torsions:
REMARK  status: ('A' for Active; 'I' for Inactive)
REMARK    1  A    between atoms: C_1  and  C_11 
REMARK    2  A    between atoms: C_5  and  C_10 
REMARK    3  A    between atoms: C_10  and  C_21 
REMARK    4  A    between atoms: C_11  and  C_20 
REMARK    5  A    between atoms: N_15  and  C_20 
REMARK       I    between atoms: N_15  and  C_16 
REMARK    6  A    between atoms: C_16  and  C_17 
REMARK    7  A    between atoms: C_17  and  C_21 
REMARK    8  A    between atoms: C_17  and  N_22 
REMARK    9  A    between atoms: C_19  and  C_20 
ROOT
HETATM    1  H           1     -22.445  -7.026  -5.734  0.00  0.00     0.163 HD
HETATM    2  O           1     -19.891  -5.460  -6.663  0.00  0.00    -0.271 OA
HETATM    3  N           1     -21.472  -6.749  -5.754  0.00  0.00    -0.344 N 
HETATM    4  C           1     -21.052  -5.791  -6.638  0.00  0.00     0.249 C 
ENDROOT
BRANCH   4   5
HETATM    5  C           1     -22.040  -5.149  -7.582  0.00  0.00     0.275 C 
BRANCH   5   6
HETATM    6  C           1     -21.323  -4.122  -8.446  0.00  0.00     0.053 C 
BRANCH   6   7
HETATM    7  C           1     -22.231  -3.702  -9.594  0.00  0.00     0.115 C 
BRANCH   7   8
HETATM    8  C           1     -21.428  -3.621 -10.869  0.00  0.00     0.172 C 
HETATM    9  O           1     -20.626  -4.534 -11.162  0.00  0.00    -0.648 OA
HETATM   10  O           1     -21.566  -2.641 -11.633  0.00  0.00    -0.648 OA
ENDBRANCH   7   8
ENDBRANCH   6   7
ENDBRANCH   5   6
BRANCH   5  11
HETATM   11  N           1     -23.118  -4.471  -6.789  0.00  0.00    -0.066 N 
HETATM   12  H           1     -23.730  -5.192  -6.345  0.00  0.00     0.275 HD
HETATM   13  H           1     -23.692  -3.870  -7.423  0.00  0.00     0.275 HD
HETATM   14  H           1     -22.683  -3.877  -6.047  0.00  0.00     0.275 HD
ENDBRANCH   5  11
ENDBRANCH   4   5
BRANCH   3  15
HETATM   15  C           1     -20.522  -7.365  -4.849  0.00  0.00     0.189 C 
BRANCH  15  16
HETATM   16  C           1     -21.174  -7.559  -3.485  0.00  0.00     0.014 C 
HETATM   17  C           1     -20.202  -8.273  -2.556  0.00  0.00     0.012 C 
BRANCH  16  18
HETATM   18  C           1     -21.534  -6.200  -2.898  0.00  0.00     0.002 C 
HETATM   19  C           1     -22.233  -6.393  -1.559  0.00  0.00     0.005 C 
ENDBRANCH  16  18
ENDBRANCH  15  16
BRANCH  15  20
HETATM   20  C           1     -20.100  -8.705  -5.399  0.00  0.00     0.197 C 
HETATM   21  O           1     -18.892  -8.932  -5.632  0.00  0.00    -0.646 OA
HETATM   22  O           1     -20.956  -9.588  -5.622  0.00  0.00    -0.646 OA
ENDBRANCH  15  20
ENDBRANCH   3  15
TORSDOF 9
ENDMDL
MODEL 2
REMARK VINA RESULT:      -5.8      2.281      7.233
REMARK  9 active torsions:
REMARK  status: ('A' for Active; 'I' for Inactive)
REMARK    1  A    between atoms: C_1  and  C_11 
REMARK    2  A    between atoms: C_5  and  C_10 
REMARK    3  A    between atoms: C_10  and  C_21 
REMARK    4  A    between atoms: C_11  and  C_20 
REMARK    5  A    between atoms: N_15  and  C_20 
REMARK       I    between atoms: N_15  and  C_16 
REMARK    6  A    between atoms: C_16  and  C_17 
REMARK    7  A    between atoms: C_17  and  C_21 
REMARK    8  A    between atoms: C_17  and  N_22 
REMARK    9  A    between atoms: C_19  and  C_20 
ROOT
HETATM    1  H           1     -22.630  -5.653  -9.519  0.00  0.00     0.163 HD
HETATM    2  O           1     -21.613  -3.595  -7.382  0.00  0.00    -0.271 OA
HETATM    3  N           1     -22.416  -4.750  -9.116  0.00  0.00    -0.344 N 
HETATM    4  C           1     -21.868  -4.673  -7.864  0.00  0.00     0.249 C 
ENDROOT
BRANCH   4   5
HETATM    5  C           1     -21.583  -5.934  -7.085  0.00  0.00     0.275 C 
BRANCH   5   6
HETATM    6  C           1     -22.101  -5.780  -5.662  0.00  0.00     0.053 C 
BRANCH   6   7
HETATM    7  C           1     -21.001  -6.156  -4.678  0.00  0.00     0.115 C 
BRANCH   7   8
HETATM    8  C           1     -21.620  -6.699  -3.413  0.00  0.00     0.172 C 
HETATM    9  O           1     -21.425  -7.889  -3.084  0.00  0.00    -0.648 OA
HETATM   10  O           1     -22.325  -5.959  -2.695  0.00  0.00    -0.648 OA
ENDBRANCH   7   8
ENDBRANCH   6   7
ENDBRANCH   5   6
BRANCH   5  11
HETATM   11  N           1     -20.103  -6.178  -7.055  0.00  0.00    -0.066 N 
HETATM   12  H           1     -19.599  -5.265  -7.117  0.00  0.00     0.275 HD
HETATM   13  H           1     -19.832  -6.781  -7.865  0.00  0.00     0.275 HD
HETATM   14  H           1     -19.847  -6.658  -6.163  0.00  0.00     0.275 HD
ENDBRANCH   5  11
ENDBRANCH   4   5
BRANCH   3  15
HETATM   15  C           1     -22.690  -3.539  -9.863  0.00  0.00     0.189 C 
BRANCH  15  16
HETATM   16  C           1     -21.897  -3.555 -11.164  0.00  0.00     0.014 C 
HETATM   17  C           1     -20.936  -2.374 -11.186  0.00  0.00     0.012 C 
BRANCH  16  18
HETATM   18  C           1     -21.107  -4.855 -11.260  0.00  0.00     0.002 C 
HETATM   19  C           1     -19.697  -4.634 -10.727  0.00  0.00     0.005 C 
ENDBRANCH  16  18
ENDBRANCH  15  16
BRANCH  15  20
HETATM   20  C           1     -24.164  -3.462 -10.175  0.00  0.00     0.197 C 
HETATM   21  O           1     -24.604  -3.950 -11.239  0.00  0.00    -0.646 OA
HETATM   22  O           1     -24.946  -2.911  -9.370  0.00  0.00    -0.646 OA
ENDBRANCH  15  20
ENDBRANCH   3  15
TORSDOF 9
ENDMDL
MODEL 3
REMARK VINA RESULT:      -5.6      2.350      3.080
REMARK  9 active torsions:
REMARK  status: ('A' for Active; 'I' for Inactive)
REMARK    1  A    between atoms: C_1  and  C_11 
REMARK    2  A    between atoms: C_5  and  C_10 
REMARK    3  A    between atoms: C_10  and  C_21 
REMARK    4  A    between atoms: C_11  and  C_20 
REMARK    5  A    between atoms: N_15  and  C_20 
REMARK       I    between atoms: N_15  and  C_16 
REMARK    6  A    between atoms: C_16  and  C_17 
REMARK    7  A    between atoms: C_17  and  C_21 
REMARK    8  A    between atoms: C_17  and  N_22 
REMARK    9  A    between atoms: C_19  and  C_20 
ROOT
HETATM    1  H           1     -19.879  -6.691  -4.918  0.00  0.00     0.163 HD
HETATM    2  O           1     -22.812  -5.809  -5.592  0.00  0.00    -0.271 OA
HETATM    3  N           1     -20.888  -6.665  -4.850  0.00  0.00    -0.344 N 
HETATM    4  C           1     -21.607  -5.840  -5.672  0.00  0.00     0.249 C 
ENDROOT
BRANCH   4   5
HETATM    5  C           1     -20.896  -4.968  -6.678  0.00  0.00     0.275 C 
BRANCH   5   6
HETATM    6  C           1     -21.914  -4.119  -7.426  0.00  0.00     0.053 C 
BRANCH   6   7
HETATM    7  C           1     -22.067  -4.643  -8.847  0.00  0.00     0.115 C 
BRANCH   7   8
HETATM    8  C           1     -23.045  -3.776  -9.602  0.00  0.00     0.172 C 
HETATM    9  O           1     -24.168  -3.529  -9.113  0.00  0.00    -0.648 OA
HETATM   10  O           1     -22.731  -3.304 -10.716  0.00  0.00    -0.648 OA
ENDBRANCH   7   8
ENDBRANCH   6   7
ENDBRANCH   5   6
BRANCH   5  11
HETATM   11  N           1     -20.155  -5.835  -7.653  0.00  0.00    -0.066 N 
HETATM   12  H           1     -20.381  -5.534  -8.628  0.00  0.00     0.275 HD
HETATM   13  H           1     -20.441  -6.832  -7.522  0.00  0.00     0.275 HD
HETATM   14  H           1     -19.127  -5.744  -7.489  0.00  0.00     0.275 HD
ENDBRANCH   5  11
ENDBRANCH   4   5
BRANCH   3  15
HETATM   15  C           1     -21.572  -7.502  -3.884  0.00  0.00     0.189 C 
BRANCH  15  16
HETATM   16  C           1     -20.873  -8.853  -3.798  0.00  0.00     0.014 C 
HETATM   17  C           1     -21.843  -9.952  -4.210  0.00  0.00     0.012 C 
BRANCH  16  18
HETATM   18  C           1     -19.669  -8.861  -4.732  0.00  0.00     0.002 C 
HETATM   19  C           1     -18.430  -9.300  -3.962  0.00  0.00     0.005 C 
ENDBRANCH  16  18
ENDBRANCH  15  16
BRANCH  15  20
HETATM   20  C           1     -21.544  -6.834  -2.531  0.00  0.00     0.197 C 
HETATM   21  O           1     -20.756  -7.242  -1.650  0.00  0.00    -0.646 OA
HETATM   22  O           1     -22.308  -5.874  -2.291  0.00  0.00    -0.646 OA
ENDBRANCH  15  20
ENDBRANCH   3  15
TORSDOF 9
ENDMDL
MODEL 4
REMARK VINA RESULT:      -5.5      3.190      4.793
REMARK  9 active torsions:
REMARK  status: ('A' for Active; 'I' for Inactive)
REMARK    1  A    between atoms: C_1  and  C_11 
REMARK    2  A    between atoms: C_5  and  C_10 
REMARK    3  A    between atoms: C_10  and  C_21 
REMARK    4  A    between atoms: C_11  and  C_20 
REMARK    5  A    between atoms: N_15  and  C_20 
REMARK       I    between atoms: N_15  and  C_16 
REMARK    6  A    between atoms: C_16  and  C_17 
REMARK    7  A    between atoms: C_17  and  C_21 
REMARK    8  A    between atoms: C_17  and  N_22 
REMARK    9  A    between atoms: C_19  and  C_20 
ROOT
HETATM    1  H           1     -22.029  -9.765  -2.766  0.00  0.00     0.163 HD
HETATM    2  O           1     -20.798  -6.933  -2.219  0.00  0.00    -0.271 OA
HETATM    3  N           1     -21.576  -9.026  -2.245  0.00  0.00    -0.344 N 
HETATM    4  C           1     -21.339  -7.816  -2.840  0.00  0.00     0.249 C 
ENDROOT
BRANCH   4   5
HETATM    5  C           1     -21.754  -7.585  -4.273  0.00  0.00     0.275 C 
BRANCH   5   6
HETATM    6  C           1     -20.514  -7.429  -5.142  0.00  0.00     0.053 C 
BRANCH   6   7
HETATM    7  C           1     -20.836  -6.533  -6.330  0.00  0.00     0.115 C 
BRANCH   7   8
HETATM    8  C           1     -20.031  -5.260  -6.235  0.00  0.00     0.172 C 
HETATM    9  O           1     -19.258  -4.938  -7.164  0.00  0.00    -0.648 OA
HETATM   10  O           1     -20.137  -4.528  -5.228  0.00  0.00    -0.648 OA
ENDBRANCH   7   8
ENDBRANCH   6   7
ENDBRANCH   5   6
BRANCH   5  11
HETATM   11  N           1     -22.584  -6.338  -4.357  0.00  0.00    -0.066 N 
HETATM   12  H           1     -22.719  -5.944  -3.399  0.00  0.00     0.275 HD
HETATM   13  H           1     -23.515  -6.566  -4.774  0.00  0.00     0.275 HD
HETATM   14  H           1     -22.097  -5.635  -4.958  0.00  0.00     0.275 HD
ENDBRANCH   5  11
ENDBRANCH   4   5
BRANCH   3  15
HETATM   15  C           1     -21.177  -9.246  -0.869  0.00  0.00     0.189 C 
BRANCH  15  16
HETATM   16  C           1     -22.411  -9.539  -0.024  0.00  0.00     0.014 C 
HETATM   17  C           1     -23.087  -8.229   0.356  0.00  0.00     0.012 C 
BRANCH  16  18
HETATM   18  C           1     -23.381 -10.399  -0.825  0.00  0.00     0.002 C 
HETATM   19  C           1     -23.793 -11.608   0.004  0.00  0.00     0.005 C 
ENDBRANCH  16  18
ENDBRANCH  15  16
BRANCH  15  20
HETATM   20  C           1     -20.231 -10.420  -0.802  0.00  0.00     0.197 C 
HETATM   21  O           1     -20.093 -11.050   0.270  0.00  0.00    -0.646 OA
HETATM   22  O           1     -19.585 -10.762  -1.816  0.00  0.00    -0.646 OA
ENDBRANCH  15  20
ENDBRANCH   3  15
TORSDOF 9
ENDMDL
MODEL 5
REMARK VINA RESULT:      -5.4      3.765      6.262
REMARK  9 active torsions:
REMARK  status: ('A' for Active; 'I' for Inactive)
REMARK    1  A    between atoms: C_1  and  C_11 
REMARK    2  A    between atoms: C_5  and  C_10 
REMARK    3  A    between atoms: C_10  and  C_21 
REMARK    4  A    between atoms: C_11  and  C_20 
REMARK    5  A    between atoms: N_15  and  C_20 
REMARK       I    between atoms: N_15  and  C_16 
REMARK    6  A    between atoms: C_16  and  C_17 
REMARK    7  A    between atoms: C_17  and  C_21 
REMARK    8  A    between atoms: C_17  and  N_22 
REMARK    9  A    between atoms: C_19  and  C_20 
ROOT
HETATM    1  H           1     -19.603  -8.522  -3.434  0.00  0.00     0.163 HD
HETATM    2  O           1     -20.778  -7.538  -6.170  0.00  0.00    -0.271 OA
HETATM    3  N           1     -19.790  -8.525  -4.428  0.00  0.00    -0.344 N 
HETATM    4  C           1     -20.555  -7.535  -4.983  0.00  0.00     0.249 C 
ENDROOT
BRANCH   4   5
HETATM    5  C           1     -21.122  -6.441  -4.112  0.00  0.00     0.275 C 
BRANCH   5   6
HETATM    6  C           1     -20.941  -6.812  -2.647  0.00  0.00     0.053 C 
BRANCH   6   7
HETATM    7  C           1     -22.193  -6.430  -1.868  0.00  0.00     0.115 C 
BRANCH   7   8
HETATM    8  C           1     -22.304  -7.296  -0.637  0.00  0.00     0.172 C 
HETATM    9  O           1     -23.391  -7.374  -0.024  0.00  0.00    -0.648 OA
HETATM   10  O           1     -21.311  -7.937  -0.232  0.00  0.00    -0.648 OA
ENDBRANCH   7   8
ENDBRANCH   6   7
ENDBRANCH   5   6
BRANCH   5  11
HETATM   11  N           1     -22.583  -6.273  -4.409  0.00  0.00    -0.066 N 
HETATM   12  H           1     -22.770  -6.545  -5.400  0.00  0.00     0.275 HD
HETATM   13  H           1     -22.857  -5.275  -4.264  0.00  0.00     0.275 HD
HETATM   14  H           1     -23.141  -6.883  -3.769  0.00  0.00     0.275 HD
ENDBRANCH   5  11
ENDBRANCH   4   5
BRANCH   3  15
HETATM   15  C           1     -19.246  -9.576  -5.265  0.00  0.00     0.189 C 
BRANCH  15  16
HETATM   16  C           1     -17.948 -10.091  -4.654  0.00  0.00     0.014 C 
HETATM   17  C           1     -16.797  -9.828  -5.616  0.00  0.00     0.012 C 
BRANCH  16  18
HETATM   18  C           1     -17.687  -9.369  -3.338  0.00  0.00     0.002 C 
HETATM   19  C           1     -16.244  -9.602  -2.908  0.00  0.00     0.005 C 
ENDBRANCH  16  18
ENDBRANCH  15  16
BRANCH  15  20
HETATM   20  C           1     -20.240 -10.707  -5.361  0.00  0.00     0.197 C 
HETATM   21  O           1     -20.432 -11.455  -4.377  0.00  0.00    -0.646 OA
HETATM   22  O           1     -20.870 -10.899  -6.424  0.00  0.00    -0.646 OA
ENDBRANCH  15  20
ENDBRANCH   3  15
TORSDOF 9
ENDMDL
MODEL 6
REMARK VINA RESULT:      -5.3      3.082      4.854
REMARK  9 active torsions:
REMARK  status: ('A' for Active; 'I' for Inactive)
REMARK    1  A    between atoms: C_1  and  C_11 
REMARK    2  A    between atoms: C_5  and  C_10 
REMARK    3  A    between atoms: C_10  and  C_21 
REMARK    4  A    between atoms: C_11  and  C_20 
REMARK    5  A    between atoms: N_15  and  C_20 
REMARK       I    between atoms: N_15  and  C_16 
REMARK    6  A    between atoms: C_16  and  C_17 
REMARK    7  A    between atoms: C_17  and  C_21 
REMARK    8  A    between atoms: C_17  and  N_22 
REMARK    9  A    between atoms: C_19  and  C_20 
ROOT
HETATM    1  H           1     -22.019  -8.446  -2.303  0.00  0.00     0.163 HD
HETATM    2  O           1     -19.797 -10.346  -3.437  0.00  0.00    -0.271 OA
HETATM    3  N           1     -21.463  -9.286  -2.395  0.00  0.00    -0.344 N 
HETATM    4  C           1     -20.461  -9.344  -3.327  0.00  0.00     0.249 C 
ENDROOT
BRANCH   4   5
HETATM    5  C           1     -20.187  -8.156  -4.215  0.00  0.00     0.275 C 
BRANCH   5   6
HETATM    6  C           1     -21.499  -7.471  -4.568  0.00  0.00     0.053 C 
BRANCH   6   7
HETATM    7  C           1     -21.239  -6.004  -4.882  0.00  0.00     0.115 C 
BRANCH   7   8
HETATM    8  C           1     -21.473  -5.753  -6.352  0.00  0.00     0.172 C 
HETATM    9  O           1     -20.838  -6.408  -7.206  0.00  0.00    -0.648 OA
HETATM   10  O           1     -22.302  -4.891  -6.714  0.00  0.00    -0.648 OA
ENDBRANCH   7   8
ENDBRANCH   6   7
ENDBRANCH   5   6
BRANCH   5  11
HETATM   11  N           1     -19.511  -8.618  -5.472  0.00  0.00    -0.066 N 
HETATM   12  H           1     -18.586  -9.042  -5.234  0.00  0.00     0.275 HD
HETATM   13  H           1     -19.366  -7.804  -6.112  0.00  0.00     0.275 HD
HETATM   14  H           1     -20.109  -9.331  -5.947  0.00  0.00     0.275 HD
ENDBRANCH   5  11
ENDBRANCH   4   5
BRANCH   3  15
HETATM   15  C           1     -21.726 -10.428  -1.542  0.00  0.00     0.189 C 
BRANCH  15  16
HETATM   16  C           1     -21.913  -9.956  -0.105  0.00  0.00     0.014 C 
HETATM   17  C           1     -20.764 -10.472   0.751  0.00  0.00     0.012 C 
BRANCH  16  18
HETATM   18  C           1     -21.928  -8.433  -0.071  0.00  0.00     0.002 C 
HETATM   19  C           1     -23.220  -7.951   0.576  0.00  0.00     0.005 C 
ENDBRANCH  16  18
ENDBRANCH  15  16
BRANCH  15  20
HETATM   20  C           1     -22.980 -11.126  -2.009  0.00  0.00     0.197 C 
HETATM   21  O           1     -23.009 -11.671  -3.134  0.00  0.00    -0.646 OA
HETATM   22  O           1     -23.989 -11.159  -1.272  0.00  0.00    -0.646 OA
ENDBRANCH  15  20
ENDBRANCH   3  15
TORSDOF 9
ENDMDL
MODEL 7
REMARK VINA RESULT:      -5.3      4.708      6.657
REMARK  9 active torsions:
REMARK  status: ('A' for Active; 'I' for Inactive)
REMARK    1  A    between atoms: C_1  and  C_11 
REMARK    2  A    between atoms: C_5  and  C_10 
REMARK    3  A    between atoms: C_10  and  C_21 
REMARK    4  A    between atoms: C_11  and  C_20 
REMARK    5  A    between atoms: N_15  and  C_20 
REMARK       I    between atoms: N_15  and  C_16 
REMARK    6  A    between atoms: C_16  and  C_17 
REMARK    7  A    between atoms: C_17  and  C_21 
REMARK    8  A    between atoms: C_17  and  N_22 
REMARK    9  A    between atoms: C_19  and  C_20 
ROOT
HETATM    1  H           1     -21.157  -9.491  -2.528  0.00  0.00     0.163 HD
HETATM    2  O           1     -19.669 -11.180  -0.344  0.00  0.00    -0.271 OA
HETATM    3  N           1     -21.000  -9.932  -1.630  0.00  0.00    -0.344 N 
HETATM    4  C           1     -19.857 -10.654  -1.415  0.00  0.00     0.249 C 
ENDROOT
BRANCH   4   5
HETATM    5  C           1     -18.834 -10.795  -2.514  0.00  0.00     0.275 C 
BRANCH   5   6
HETATM    6  C           1     -18.560  -9.431  -3.132  0.00  0.00     0.053 C 
BRANCH   6   7
HETATM    7  C           1     -18.775  -9.502  -4.638  0.00  0.00     0.115 C 
BRANCH   7   8
HETATM    8  C           1     -20.026  -8.743  -5.005  0.00  0.00     0.172 C 
HETATM    9  O           1     -19.957  -7.754  -5.766  0.00  0.00    -0.648 OA
HETATM   10  O           1     -21.132  -9.104  -4.549  0.00  0.00    -0.648 OA
ENDBRANCH   7   8
ENDBRANCH   6   7
ENDBRANCH   5   6
BRANCH   5  11
HETATM   11  N           1     -19.359 -11.725  -3.568  0.00  0.00    -0.066 N 
HETATM   12  H           1     -20.362 -11.503  -3.759  0.00  0.00     0.275 HD
HETATM   13  H           1     -19.278 -12.712  -3.235  0.00  0.00     0.275 HD
HETATM   14  H           1     -18.803 -11.607  -4.445  0.00  0.00     0.275 HD
ENDBRANCH   5  11
ENDBRANCH   4   5
BRANCH   3  15
HETATM   15  C           1     -21.983  -9.797  -0.574  0.00  0.00     0.189 C 
BRANCH  15  16
HETATM   16  C           1     -22.351  -8.328  -0.408  0.00  0.00     0.014 C 
HETATM   17  C           1     -22.171  -7.921   1.048  0.00  0.00     0.012 C 
BRANCH  16  18
HETATM   18  C           1     -21.447  -7.476  -1.290  0.00  0.00     0.002 C 
HETATM   19  C           1     -22.246  -6.315  -1.867  0.00  0.00     0.005 C 
ENDBRANCH  16  18
ENDBRANCH  15  16
BRANCH  15  20
HETATM   20  C           1     -23.217 -10.588  -0.931  0.00  0.00     0.197 C 
HETATM   21  O           1     -23.341 -11.067  -2.080  0.00  0.00    -0.646 OA
HETATM   22  O           1     -24.116 -10.762  -0.081  0.00  0.00    -0.646 OA
ENDBRANCH  15  20
ENDBRANCH   3  15
TORSDOF 9
ENDMDL
MODEL 8
REMARK VINA RESULT:      -5.2      2.090      3.066
REMARK  9 active torsions:
REMARK  status: ('A' for Active; 'I' for Inactive)
REMARK    1  A    between atoms: C_1  and  C_11 
REMARK    2  A    between atoms: C_5  and  C_10 
REMARK    3  A    between atoms: C_10  and  C_21 
REMARK    4  A    between atoms: C_11  and  C_20 
REMARK    5  A    between atoms: N_15  and  C_20 
REMARK       I    between atoms: N_15  and  C_16 
REMARK    6  A    between atoms: C_16  and  C_17 
REMARK    7  A    between atoms: C_17  and  C_21 
REMARK    8  A    between atoms: C_17  and  N_22 
REMARK    9  A    between atoms: C_19  and  C_20 
ROOT
HETATM    1  H           1     -22.579  -7.761  -3.577  0.00  0.00     0.163 HD
HETATM    2  O           1     -19.740  -7.981  -4.891  0.00  0.00    -0.271 OA
HETATM    3  N           1     -21.647  -8.121  -3.739  0.00  0.00    -0.344 N 
HETATM    4  C           1     -20.852  -7.552  -4.698  0.00  0.00     0.249 C 
ENDROOT
BRANCH   4   5
HETATM    5  C           1     -21.365  -6.390  -5.512  0.00  0.00     0.275 C 
BRANCH   5   6
HETATM    6  C           1     -20.511  -5.160  -5.237  0.00  0.00     0.053 C 
BRANCH   6   7
HETATM    7  C           1     -19.713  -4.806  -6.484  0.00  0.00     0.115 C 
BRANCH   7   8
HETATM    8  C           1     -20.639  -4.241  -7.533  0.00  0.00     0.172 C 
HETATM    9  O           1     -20.611  -4.690  -8.699  0.00  0.00    -0.648 OA
HETATM   10  O           1     -21.436  -3.326  -7.235  0.00  0.00    -0.648 OA
ENDBRANCH   7   8
ENDBRANCH   6   7
ENDBRANCH   5   6
BRANCH   5  11
HETATM   11  N           1     -22.788  -6.105  -5.134  0.00  0.00    -0.066 N 
HETATM   12  H           1     -22.808  -5.509  -4.276  0.00  0.00     0.275 HD
HETATM   13  H           1     -23.286  -7.005  -4.944  0.00  0.00     0.275 HD
HETATM   14  H           1     -23.264  -5.604  -5.918  0.00  0.00     0.275 HD
ENDBRANCH   5  11
ENDBRANCH   4   5
BRANCH   3  15
HETATM   15  C           1     -21.154  -9.237  -2.957  0.00  0.00     0.189 C 
BRANCH  15  16
HETATM   16  C           1     -21.753  -9.180  -1.557  0.00  0.00     0.014 C 
HETATM   17  C           1     -20.827  -9.892  -0.580  0.00  0.00     0.012 C 
BRANCH  16  18
HETATM   18  C           1     -21.915  -7.725  -1.135  0.00  0.00     0.002 C 
HETATM   19  C           1     -22.740  -7.655   0.143  0.00  0.00     0.005 C 
ENDBRANCH  16  18
ENDBRANCH  15  16
BRANCH  15  20
HETATM   20  C           1     -21.553 -10.532  -3.622  0.00  0.00     0.197 C 
HETATM   21  O           1     -22.762 -10.840  -3.713  0.00  0.00    -0.646 OA
HETATM   22  O           1     -20.676 -11.297  -4.079  0.00  0.00    -0.646 OA
ENDBRANCH  15  20
ENDBRANCH   3  15
TORSDOF 9
ENDMDL
MODEL 9
REMARK VINA RESULT:      -5.2      3.873      5.485
REMARK  9 active torsions:
REMARK  status: ('A' for Active; 'I' for Inactive)
REMARK    1  A    between atoms: C_1  and  C_11 
REMARK    2  A    between atoms: C_5  and  C_10 
REMARK    3  A    between atoms: C_10  and  C_21 
REMARK    4  A    between atoms: C_11  and  C_20 
REMARK    5  A    between atoms: N_15  and  C_20 
REMARK       I    between atoms: N_15  and  C_16 
REMARK    6  A    between atoms: C_16  and  C_17 
REMARK    7  A    between atoms: C_17  and  C_21 
REMARK    8  A    between atoms: C_17  and  N_22 
REMARK    9  A    between atoms: C_19  and  C_20 
ROOT
HETATM    1  H           1     -20.920  -9.674  -2.157  0.00  0.00     0.163 HD
HETATM    2  O           1     -22.271  -6.922  -1.494  0.00  0.00    -0.271 OA
HETATM    3  N           1     -21.491  -9.009  -1.652  0.00  0.00    -0.344 N 
HETATM    4  C           1     -21.589  -7.717  -2.096  0.00  0.00     0.249 C 
ENDROOT
BRANCH   4   5
HETATM    5  C           1     -20.846  -7.286  -3.336  0.00  0.00     0.275 C 
BRANCH   5   6
HETATM    6  C           1     -21.709  -6.322  -4.137  0.00  0.00     0.053 C 
BRANCH   6   7
HETATM    7  C           1     -20.829  -5.517  -5.083  0.00  0.00     0.115 C 
BRANCH   7   8
HETATM    8  C           1     -21.397  -5.581  -6.480  0.00  0.00     0.172 C 
HETATM    9  O           1     -22.387  -4.881  -6.784  0.00  0.00    -0.648 OA
HETATM   10  O           1     -20.878  -6.333  -7.331  0.00  0.00    -0.648 OA
ENDBRANCH   7   8
ENDBRANCH   6   7
ENDBRANCH   5   6
BRANCH   5  11
HETATM   11  N           1     -20.534  -8.491  -4.174  0.00  0.00    -0.066 N 
HETATM   12  H           1     -19.526  -8.472  -4.449  0.00  0.00     0.275 HD
HETATM   13  H           1     -21.129  -8.483  -5.034  0.00  0.00     0.275 HD
HETATM   14  H           1     -20.730  -9.358  -3.625  0.00  0.00     0.275 HD
ENDBRANCH   5  11
ENDBRANCH   4   5
BRANCH   3  15
HETATM   15  C           1     -22.205  -9.422  -0.460  0.00  0.00     0.189 C 
BRANCH  15  16
HETATM   16  C           1     -22.814 -10.800  -0.686  0.00  0.00     0.014 C 
HETATM   17  C           1     -24.175 -10.870  -0.005  0.00  0.00     0.012 C 
BRANCH  16  18
HETATM   18  C           1     -22.981 -11.041  -2.181  0.00  0.00     0.002 C 
HETATM   19  C           1     -22.657 -12.494  -2.501  0.00  0.00     0.005 C 
ENDBRANCH  16  18
ENDBRANCH  15  16
BRANCH  15  20
HETATM   20  C           1     -21.248  -9.480   0.705  0.00  0.00     0.197 C 
HETATM   21  O           1     -20.569 -10.512   0.903  0.00  0.00    -0.646 OA
HETATM   22  O           1     -21.134  -8.500   1.471  0.00  0.00    -0.646 OA
ENDBRANCH  15  20
ENDBRANCH   3  15
TORSDOF 9
ENDMDL
