MODEL 1
REMARK VINA RESULT:      -7.2      0.000      0.000
REMARK  9 active torsions:
REMARK  status: ('A' for Active; 'I' for Inactive)
REMARK       I    between atoms: C_1  and  N_10 
REMARK    1  A    between atoms: C_1  and  C_22 
REMARK    2  A    between atoms: C_2  and  C_19 
REMARK    3  A    between atoms: C_2  and  C_17 
REMARK    4  A    between atoms: C_3  and  C_17 
REMARK    5  A    between atoms: C_9  and  C_23 
REMARK    6  A    between atoms: N_10  and  C_17 
REMARK    7  A    between atoms: N_11  and  C_22 
REMARK    8  A    between atoms: S_18  and  C_19 
REMARK    9  A    between atoms: C_22  and  C_23 
ROOT
HETATM    1  C           1     -21.220  -5.505  -5.365  0.00  0.00     0.278 C 
ENDROOT
BRANCH   1   2
HETATM    2  C           1     -21.389  -6.751  -4.531  0.00  0.00     0.249 C 
HETATM    3  N           1     -21.163  -6.707  -3.181  0.00  0.00    -0.345 N 
HETATM    4  H           1     -20.881  -5.840  -2.744  0.00  0.00     0.163 HD
HETATM    5  O           1     -21.726  -7.786  -5.054  0.00  0.00    -0.271 OA
BRANCH   3   6
HETATM    6  C           1     -21.326  -7.905  -2.380  0.00  0.00     0.186 C 
BRANCH   6   7
HETATM    7  C           1     -19.961  -8.394  -1.913  0.00  0.00     0.046 C 
BRANCH   7   8
HETATM    8  C           1     -19.650  -9.733  -2.566  0.00  0.00     0.076 C 
BRANCH   8   9
HETATM    9  S           1     -18.482  -9.483  -3.933  0.00  0.00    -0.173 SA
HETATM   10  C           1     -16.975  -9.539  -2.923  0.00  0.00     0.089 C 
ENDBRANCH   8   9
ENDBRANCH   7   8
ENDBRANCH   6   7
BRANCH   6  11
HETATM   11  C           1     -22.185  -7.592  -1.180  0.00  0.00     0.196 C 
HETATM   12  O           1     -22.439  -8.485  -0.343  0.00  0.00    -0.646 OA
HETATM   13  O           1     -22.642  -6.440  -1.022  0.00  0.00    -0.646 OA
ENDBRANCH   6  11
ENDBRANCH   3   6
ENDBRANCH   1   2
BRANCH   1  14
HETATM   14  N           1     -20.039  -4.726  -4.865  0.00  0.00    -0.066 N 
HETATM   15  H           1     -19.897  -3.883  -5.466  0.00  0.00     0.275 HD
HETATM   16  H           1     -20.212  -4.426  -3.880  0.00  0.00     0.275 HD
HETATM   17  H           1     -19.185  -5.327  -4.902  0.00  0.00     0.275 HD
ENDBRANCH   1  14
BRANCH   1  18
HETATM   18  C           1     -20.992  -5.893  -6.820  0.00  0.00     0.083 C 
BRANCH  18  19
HETATM   19  C           1     -21.813  -5.012  -7.707  0.00  0.00    -0.028 A 
HETATM   20  C           1     -21.448  -4.551  -9.003  0.00  0.00    -0.002 A 
HETATM   21  C           1     -22.498  -3.760  -9.469  0.00  0.00     0.042 A 
HETATM   22  C           1     -20.320  -4.734  -9.825  0.00  0.00     0.014 A 
HETATM   23  C           1     -22.477  -3.140 -10.724  0.00  0.00     0.030 A 
HETATM   24  N           1     -23.462  -3.747  -8.486  0.00  0.00    -0.365 N 
HETATM   25  C           1     -21.346  -3.335 -11.523  0.00  0.00     0.002 A 
HETATM   26  C           1     -20.282  -4.119 -11.082  0.00  0.00     0.001 A 
HETATM   27  C           1     -23.058  -4.500  -7.416  0.00  0.00     0.096 A 
HETATM   28  H           1     -24.375  -3.232  -8.547  0.00  0.00     0.165 HD
ENDBRANCH  18  19
ENDBRANCH   1  18
TORSDOF 9
ENDMDL
MODEL 2
REMARK VINA RESULT:      -7.1      2.179      2.985
REMARK  9 active torsions:
REMARK  status: ('A' for Active; 'I' for Inactive)
REMARK       I    between atoms: C_1  and  N_10 
REMARK    1  A    between atoms: C_1  and  C_22 
REMARK    2  A    between atoms: C_2  and  C_19 
REMARK    3  A    between atoms: C_2  and  C_17 
REMARK    4  A    between atoms: C_3  and  C_17 
REMARK    5  A    between atoms: C_9  and  C_23 
REMARK    6  A    between atoms: N_10  and  C_17 
REMARK    7  A    between atoms: N_11  and  C_22 
REMARK    8  A    between atoms: S_18  and  C_19 
REMARK    9  A    between atoms: C_22  and  C_23 
ROOT
HETATM    1  C           1     -21.464  -6.294  -5.463  0.00  0.00     0.278 C 
ENDROOT
BRANCH   1   2
HETATM    2  C           1     -20.431  -7.391  -5.538  0.00  0.00     0.249 C 
HETATM    3  N           1     -20.459  -8.420  -4.634  0.00  0.00    -0.345 N 
HETATM    4  H           1     -21.172  -8.443  -3.917  0.00  0.00     0.163 HD
HETATM    5  O           1     -19.580  -7.362  -6.394  0.00  0.00    -0.271 OA
BRANCH   3   6
HETATM    6  C           1     -19.466  -9.474  -4.706  0.00  0.00     0.186 C 
BRANCH   6   7
HETATM    7  C           1     -18.942  -9.776  -3.307  0.00  0.00     0.046 C 
BRANCH   7   8
HETATM    8  C           1     -19.609  -8.845  -2.304  0.00  0.00     0.076 C 
BRANCH   8   9
HETATM    9  S           1     -20.739  -9.798  -1.251  0.00  0.00    -0.173 SA
HETATM   10  C           1     -21.744  -8.387  -0.709  0.00  0.00     0.089 C 
ENDBRANCH   8   9
ENDBRANCH   7   8
ENDBRANCH   6   7
BRANCH   6  11
HETATM   11  C           1     -20.095 -10.717  -5.285  0.00  0.00     0.196 C 
HETATM   12  O           1     -19.933 -10.994  -6.494  0.00  0.00    -0.646 OA
HETATM   13  O           1     -20.777 -11.470  -4.557  0.00  0.00    -0.646 OA
ENDBRANCH   6  11
ENDBRANCH   3   6
ENDBRANCH   1   2
BRANCH   1  14
HETATM   14  N           1     -21.761  -5.984  -4.025  0.00  0.00    -0.066 N 
HETATM   15  H           1     -22.786  -5.821  -3.908  0.00  0.00     0.275 HD
HETATM   16  H           1     -21.466  -6.788  -3.428  0.00  0.00     0.275 HD
HETATM   17  H           1     -21.237  -5.126  -3.739  0.00  0.00     0.275 HD
ENDBRANCH   1  14
BRANCH   1  18
HETATM   18  C           1     -20.930  -5.045  -6.151  0.00  0.00     0.083 C 
BRANCH  18  19
HETATM   19  C           1     -21.856  -4.648  -7.257  0.00  0.00    -0.028 A 
HETATM   20  C           1     -21.498  -4.445  -8.619  0.00  0.00    -0.002 A 
HETATM   21  C           1     -22.661  -4.087  -9.301  0.00  0.00     0.042 A 
HETATM   22  C           1     -20.291  -4.533  -9.338  0.00  0.00     0.014 A 
HETATM   23  C           1     -22.678  -3.811 -10.674  0.00  0.00     0.030 A 
HETATM   24  N           1     -23.684  -4.076  -8.379  0.00  0.00    -0.365 N 
HETATM   25  C           1     -21.467  -3.905 -11.366  0.00  0.00     0.002 A 
HETATM   26  C           1     -20.290  -4.260 -10.711  0.00  0.00     0.001 A 
HETATM   27  C           1     -23.208  -4.413  -7.139  0.00  0.00     0.096 A 
HETATM   28  H           1     -24.684  -3.841  -8.594  0.00  0.00     0.165 HD
ENDBRANCH  18  19
ENDBRANCH   1  18
TORSDOF 9
ENDMDL
MODEL 3
REMARK VINA RESULT:      -7.1      2.444      2.819
REMARK  9 active torsions:
REMARK  status: ('A' for Active; 'I' for Inactive)
REMARK       I    between atoms: C_1  and  N_10 
REMARK    1  A    between atoms: C_1  and  C_22 
REMARK    2  A    between atoms: C_2  and  C_19 
REMARK    3  A    between atoms: C_2  and  C_17 
REMARK    4  A    between atoms: C_3  and  C_17 
REMARK    5  A    between atoms: C_9  and  C_23 
REMARK    6  A    between atoms: N_10  and  C_17 
REMARK    7  A    between atoms: N_11  and  C_22 
REMARK    8  A    between atoms: S_18  and  C_19 
REMARK    9  A    between atoms: C_22  and  C_23 
ROOT
HETATM    1  C           1     -21.326  -6.291  -5.414  0.00  0.00     0.278 C 
ENDROOT
BRANCH   1   2
HETATM    2  C           1     -20.218  -7.312  -5.487  0.00  0.00     0.249 C 
HETATM    3  N           1     -20.076  -8.240  -4.489  0.00  0.00    -0.345 N 
HETATM    4  H           1     -20.713  -8.239  -3.704  0.00  0.00     0.163 HD
HETATM    5  O           1     -19.458  -7.312  -6.425  0.00  0.00    -0.271 OA
BRANCH   3   6
HETATM    6  C           1     -19.011  -9.222  -4.560  0.00  0.00     0.186 C 
BRANCH   6   7
HETATM    7  C           1     -18.441  -9.455  -3.166  0.00  0.00     0.046 C 
BRANCH   7   8
HETATM    8  C           1     -16.921  -9.503  -3.241  0.00  0.00     0.076 C 
BRANCH   8   9
HETATM    9  S           1     -16.306 -10.857  -2.202  0.00  0.00    -0.173 SA
HETATM   10  C           1     -17.918 -11.332  -1.516  0.00  0.00     0.089 C 
ENDBRANCH   8   9
ENDBRANCH   7   8
ENDBRANCH   6   7
BRANCH   6  11
HETATM   11  C           1     -19.561 -10.519  -5.101  0.00  0.00     0.196 C 
HETATM   12  O           1     -20.099 -11.340  -4.327  0.00  0.00    -0.646 OA
HETATM   13  O           1     -19.479 -10.772  -6.322  0.00  0.00    -0.646 OA
ENDBRANCH   6  11
ENDBRANCH   3   6
ENDBRANCH   1   2
BRANCH   1  14
HETATM   14  N           1     -21.656  -6.014  -3.976  0.00  0.00    -0.066 N 
HETATM   15  H           1     -21.262  -6.772  -3.375  0.00  0.00     0.275 HD
HETATM   16  H           1     -21.242  -5.097  -3.696  0.00  0.00     0.275 HD
HETATM   17  H           1     -22.694  -5.979  -3.858  0.00  0.00     0.275 HD
ENDBRANCH   1  14
BRANCH   1  18
HETATM   18  C           1     -20.875  -5.002  -6.088  0.00  0.00     0.083 C 
BRANCH  18  19
HETATM   19  C           1     -21.824  -4.655  -7.191  0.00  0.00    -0.028 A 
HETATM   20  C           1     -21.488  -4.476  -8.562  0.00  0.00    -0.002 A 
HETATM   21  C           1     -22.668  -4.164  -9.237  0.00  0.00     0.042 A 
HETATM   22  C           1     -20.288  -4.550  -9.293  0.00  0.00     0.014 A 
HETATM   23  C           1     -22.708  -3.922 -10.616  0.00  0.00     0.030 A 
HETATM   24  N           1     -23.679  -4.157  -8.303  0.00  0.00    -0.365 N 
HETATM   25  C           1     -21.504  -4.001 -11.321  0.00  0.00     0.002 A 
HETATM   26  C           1     -20.310  -4.310 -10.673  0.00  0.00     0.001 A 
HETATM   27  C           1     -23.180  -4.452  -7.062  0.00  0.00     0.096 A 
HETATM   28  H           1     -24.688  -3.953  -8.511  0.00  0.00     0.165 HD
ENDBRANCH  18  19
ENDBRANCH   1  18
TORSDOF 9
ENDMDL
MODEL 4
REMARK VINA RESULT:      -7.0      2.386      3.053
REMARK  9 active torsions:
REMARK  status: ('A' for Active; 'I' for Inactive)
REMARK       I    between atoms: C_1  and  N_10 
REMARK    1  A    between atoms: C_1  and  C_22 
REMARK    2  A    between atoms: C_2  and  C_19 
REMARK    3  A    between atoms: C_2  and  C_17 
REMARK    4  A    between atoms: C_3  and  C_17 
REMARK    5  A    between atoms: C_9  and  C_23 
REMARK    6  A    between atoms: N_10  and  C_17 
REMARK    7  A    between atoms: N_11  and  C_22 
REMARK    8  A    between atoms: S_18  and  C_19 
REMARK    9  A    between atoms: C_22  and  C_23 
ROOT
HETATM    1  C           1     -21.734  -6.393  -5.681  0.00  0.00     0.278 C 
ENDROOT
BRANCH   1   2
HETATM    2  C           1     -20.956  -7.311  -4.771  0.00  0.00     0.249 C 
HETATM    3  N           1     -21.509  -7.739  -3.594  0.00  0.00    -0.345 N 
HETATM    4  H           1     -22.440  -7.438  -3.334  0.00  0.00     0.163 HD
HETATM    5  O           1     -19.845  -7.670  -5.082  0.00  0.00    -0.271 OA
BRANCH   3   6
HETATM    6  C           1     -20.761  -8.622  -2.720  0.00  0.00     0.186 C 
BRANCH   6   7
HETATM    7  C           1     -20.692  -8.016  -1.323  0.00  0.00     0.046 C 
BRANCH   7   8
HETATM    8  C           1     -22.001  -7.305  -1.012  0.00  0.00     0.076 C 
BRANCH   8   9
HETATM    9  S           1     -22.806  -8.109   0.401  0.00  0.00    -0.173 SA
HETATM   10  C           1     -21.279  -8.607   1.245  0.00  0.00     0.089 C 
ENDBRANCH   8   9
ENDBRANCH   7   8
ENDBRANCH   6   7
BRANCH   6  11
HETATM   11  C           1     -21.451  -9.962  -2.651  0.00  0.00     0.196 C 
HETATM   12  O           1     -21.216 -10.738  -1.699  0.00  0.00    -0.646 OA
HETATM   13  O           1     -22.258 -10.296  -3.545  0.00  0.00    -0.646 OA
ENDBRANCH   6  11
ENDBRANCH   3   6
ENDBRANCH   1   2
BRANCH   1  14
HETATM   14  N           1     -23.076  -6.108  -5.073  0.00  0.00    -0.066 N 
HETATM   15  H           1     -22.960  -5.464  -4.258  0.00  0.00     0.275 HD
HETATM   16  H           1     -23.692  -5.659  -5.786  0.00  0.00     0.275 HD
HETATM   17  H           1     -23.509  -7.002  -4.750  0.00  0.00     0.275 HD
ENDBRANCH   1  14
BRANCH   1  18
HETATM   18  C           1     -20.971  -5.088  -5.860  0.00  0.00     0.083 C 
BRANCH  18  19
HETATM   19  C           1     -20.806  -4.801  -7.319  0.00  0.00    -0.028 A 
HETATM   20  C           1     -21.835  -4.406  -8.218  0.00  0.00    -0.002 A 
HETATM   21  C           1     -21.246  -4.247  -9.473  0.00  0.00     0.042 A 
HETATM   22  C           1     -23.216  -4.169  -8.083  0.00  0.00     0.014 A 
HETATM   23  C           1     -21.973  -3.859 -10.605  0.00  0.00     0.030 A 
HETATM   24  N           1     -19.907  -4.536  -9.331  0.00  0.00    -0.365 N 
HETATM   25  C           1     -23.343  -3.629 -10.446  0.00  0.00     0.002 A 
HETATM   26  C           1     -23.957  -3.781  -9.205  0.00  0.00     0.001 A 
HETATM   27  C           1     -19.630  -4.873  -8.032  0.00  0.00     0.096 A 
HETATM   28  H           1     -19.200  -4.504 -10.106  0.00  0.00     0.165 HD
ENDBRANCH  18  19
ENDBRANCH   1  18
TORSDOF 9
ENDMDL
MODEL 5
REMARK VINA RESULT:      -6.8      2.368      2.979
REMARK  9 active torsions:
REMARK  status: ('A' for Active; 'I' for Inactive)
REMARK       I    between atoms: C_1  and  N_10 
REMARK    1  A    between atoms: C_1  and  C_22 
REMARK    2  A    between atoms: C_2  and  C_19 
REMARK    3  A    between atoms: C_2  and  C_17 
REMARK    4  A    between atoms: C_3  and  C_17 
REMARK    5  A    between atoms: C_9  and  C_23 
REMARK    6  A    between atoms: N_10  and  C_17 
REMARK    7  A    between atoms: N_11  and  C_22 
REMARK    8  A    between atoms: S_18  and  C_19 
REMARK    9  A    between atoms: C_22  and  C_23 
ROOT
HETATM    1  C           1     -21.563  -6.537  -5.269  0.00  0.00     0.278 C 
ENDROOT
BRANCH   1   2
HETATM    2  C           1     -20.991  -7.928  -5.144  0.00  0.00     0.249 C 
HETATM    3  N           1     -19.645  -8.131  -5.300  0.00  0.00    -0.345 N 
HETATM    4  H           1     -19.036  -7.349  -5.501  0.00  0.00     0.163 HD
HETATM    5  O           1     -21.719  -8.861  -4.905  0.00  0.00    -0.271 OA
BRANCH   3   6
HETATM    6  C           1     -19.095  -9.468  -5.180  0.00  0.00     0.186 C 
BRANCH   6   7
HETATM    7  C           1     -17.859  -9.590  -6.062  0.00  0.00     0.046 C 
BRANCH   7   8
HETATM    8  C           1     -17.513 -11.061  -6.250  0.00  0.00     0.076 C 
BRANCH   8   9
HETATM    9  S           1     -15.758 -11.324  -5.869  0.00  0.00    -0.173 SA
HETATM   10  C           1     -15.690 -13.052  -6.419  0.00  0.00     0.089 C 
ENDBRANCH   8   9
ENDBRANCH   7   8
ENDBRANCH   6   7
BRANCH   6  11
HETATM   11  C           1     -18.714  -9.725  -3.743  0.00  0.00     0.196 C 
HETATM   12  O           1     -17.688  -9.197  -3.265  0.00  0.00    -0.646 OA
HETATM   13  O           1     -19.426 -10.466  -3.031  0.00  0.00    -0.646 OA
ENDBRANCH   6  11
ENDBRANCH   3   6
ENDBRANCH   1   2
BRANCH   1  14
HETATM   14  N           1     -21.491  -5.847  -3.938  0.00  0.00    -0.066 N 
HETATM   15  H           1     -22.407  -5.387  -3.734  0.00  0.00     0.275 HD
HETATM   16  H           1     -21.280  -6.548  -3.194  0.00  0.00     0.275 HD
HETATM   17  H           1     -20.736  -5.124  -3.962  0.00  0.00     0.275 HD
ENDBRANCH   1  14
BRANCH   1  18
HETATM   18  C           1     -20.760  -5.747  -6.294  0.00  0.00     0.083 C 
BRANCH  18  19
HETATM   19  C           1     -21.694  -5.046  -7.228  0.00  0.00    -0.028 A 
HETATM   20  C           1     -21.407  -4.654  -8.565  0.00  0.00    -0.002 A 
HETATM   21  C           1     -22.551  -4.034  -9.067  0.00  0.00     0.042 A 
HETATM   22  C           1     -20.278  -4.769  -9.398  0.00  0.00     0.014 A 
HETATM   23  C           1     -22.624  -3.521 -10.368  0.00  0.00     0.030 A 
HETATM   24  N           1     -23.495  -4.054  -8.064  0.00  0.00    -0.365 N 
HETATM   25  C           1     -21.490  -3.646 -11.176  0.00  0.00     0.002 A 
HETATM   26  C           1     -20.333  -4.260 -10.701  0.00  0.00     0.001 A 
HETATM   27  C           1     -22.987  -4.663  -6.948  0.00  0.00     0.096 A 
HETATM   28  H           1     -24.464  -3.658  -8.144  0.00  0.00     0.165 HD
ENDBRANCH  18  19
ENDBRANCH   1  18
TORSDOF 9
ENDMDL
MODEL 6
REMARK VINA RESULT:      -6.6      3.320      8.053
REMARK  9 active torsions:
REMARK  status: ('A' for Active; 'I' for Inactive)
REMARK       I    between atoms: C_1  and  N_10 
REMARK    1  A    between atoms: C_1  and  C_22 
REMARK    2  A    between atoms: C_2  and  C_19 
REMARK    3  A    between atoms: C_2  and  C_17 
REMARK    4  A    between atoms: C_3  and  C_17 
REMARK    5  A    between atoms: C_9  and  C_23 
REMARK    6  A    between atoms: N_10  and  C_17 
REMARK    7  A    between atoms: N_11  and  C_22 
REMARK    8  A    between atoms: S_18  and  C_19 
REMARK    9  A    between atoms: C_22  and  C_23 
ROOT
HETATM    1  C           1     -21.137  -8.361  -5.084  0.00  0.00     0.278 C 
ENDROOT
BRANCH   1   2
HETATM    2  C           1     -20.683  -7.325  -6.083  0.00  0.00     0.249 C 
HETATM    3  N           1     -21.556  -6.362  -6.514  0.00  0.00    -0.345 N 
HETATM    4  H           1     -22.505  -6.347  -6.164  0.00  0.00     0.163 HD
HETATM    5  O           1     -19.550  -7.344  -6.500  0.00  0.00    -0.271 OA
BRANCH   3   6
HETATM    6  C           1     -21.120  -5.366  -7.474  0.00  0.00     0.186 C 
BRANCH   6   7
HETATM    7  C           1     -22.286  -4.448  -7.820  0.00  0.00     0.046 C 
BRANCH   7   8
HETATM    8  C           1     -22.173  -4.010  -9.273  0.00  0.00     0.076 C 
BRANCH   8   9
HETATM    9  S           1     -23.538  -4.728 -10.231  0.00  0.00    -0.173 SA
HETATM   10  C           1     -24.713  -3.374  -9.950  0.00  0.00     0.089 C 
ENDBRANCH   8   9
ENDBRANCH   7   8
ENDBRANCH   6   7
BRANCH   6  11
HETATM   11  C           1     -20.001  -4.551  -6.875  0.00  0.00     0.196 C 
HETATM   12  O           1     -19.033  -4.201  -7.586  0.00  0.00    -0.646 OA
HETATM   13  O           1     -20.041  -4.224  -5.670  0.00  0.00    -0.646 OA
ENDBRANCH   6  11
ENDBRANCH   3   6
ENDBRANCH   1   2
BRANCH   1  14
HETATM   14  N           1     -20.950  -9.732  -5.667  0.00  0.00    -0.066 N 
HETATM   15  H           1     -19.968  -9.834  -6.009  0.00  0.00     0.275 HD
HETATM   16  H           1     -21.139 -10.450  -4.933  0.00  0.00     0.275 HD
HETATM   17  H           1     -21.612  -9.864  -6.464  0.00  0.00     0.275 HD
ENDBRANCH   1  14
BRANCH   1  18
HETATM   18  C           1     -20.313  -8.235  -3.810  0.00  0.00     0.083 C 
BRANCH  18  19
HETATM   19  C           1     -21.129  -7.565  -2.751  0.00  0.00    -0.028 A 
HETATM   20  C           1     -21.737  -8.200  -1.632  0.00  0.00    -0.002 A 
HETATM   21  C           1     -22.398  -7.209  -0.906  0.00  0.00     0.042 A 
HETATM   22  C           1     -21.787  -9.528  -1.168  0.00  0.00     0.014 A 
HETATM   23  C           1     -23.111  -7.481   0.269  0.00  0.00     0.030 A 
HETATM   24  N           1     -22.193  -6.019  -1.567  0.00  0.00    -0.365 N 
HETATM   25  C           1     -23.146  -8.807   0.710  0.00  0.00     0.002 A 
HETATM   26  C           1     -22.496  -9.817   0.005  0.00  0.00     0.001 A 
HETATM   27  C           1     -21.428  -6.222  -2.684  0.00  0.00     0.096 A 
HETATM   28  H           1     -22.571  -5.088  -1.259  0.00  0.00     0.165 HD
ENDBRANCH  18  19
ENDBRANCH   1  18
TORSDOF 9
ENDMDL
MODEL 7
REMARK VINA RESULT:      -6.6      1.645      2.361
REMARK  9 active torsions:
REMARK  status: ('A' for Active; 'I' for Inactive)
REMARK       I    between atoms: C_1  and  N_10 
REMARK    1  A    between atoms: C_1  and  C_22 
REMARK    2  A    between atoms: C_2  and  C_19 
REMARK    3  A    between atoms: C_2  and  C_17 
REMARK    4  A    between atoms: C_3  and  C_17 
REMARK    5  A    between atoms: C_9  and  C_23 
REMARK    6  A    between atoms: N_10  and  C_17 
REMARK    7  A    between atoms: N_11  and  C_22 
REMARK    8  A    between atoms: S_18  and  C_19 
REMARK    9  A    between atoms: C_22  and  C_23 
ROOT
HETATM    1  C           1     -20.345  -5.558  -5.910  0.00  0.00     0.278 C 
ENDROOT
BRANCH   1   2
HETATM    2  C           1     -21.377  -6.162  -4.990  0.00  0.00     0.249 C 
HETATM    3  N           1     -20.980  -6.826  -3.859  0.00  0.00    -0.345 N 
HETATM    4  H           1     -19.996  -6.911  -3.642  0.00  0.00     0.163 HD
HETATM    5  O           1     -22.552  -6.060  -5.250  0.00  0.00    -0.271 OA
BRANCH   3   6
HETATM    6  C           1     -21.972  -7.407  -2.975  0.00  0.00     0.186 C 
BRANCH   6   7
HETATM    7  C           1     -21.472  -8.752  -2.464  0.00  0.00     0.046 C 
BRANCH   7   8
HETATM    8  C           1     -19.950  -8.776  -2.499  0.00  0.00     0.076 C 
BRANCH   8   9
HETATM    9  S           1     -19.361 -10.450  -2.123  0.00  0.00    -0.173 SA
HETATM   10  C           1     -20.349 -10.677  -0.617  0.00  0.00     0.089 C 
ENDBRANCH   8   9
ENDBRANCH   7   8
ENDBRANCH   6   7
BRANCH   6  11
HETATM   11  C           1     -22.204  -6.481  -1.806  0.00  0.00     0.196 C 
HETATM   12  O           1     -21.878  -5.277  -1.888  0.00  0.00    -0.646 OA
HETATM   13  O           1     -22.725  -6.918  -0.757  0.00  0.00    -0.646 OA
ENDBRANCH   6  11
ENDBRANCH   3   6
ENDBRANCH   1   2
BRANCH   1  14
HETATM   14  N           1     -20.082  -6.496  -7.051  0.00  0.00    -0.066 N 
HETATM   15  H           1     -19.606  -5.980  -7.824  0.00  0.00     0.275 HD
HETATM   16  H           1     -19.471  -7.277  -6.725  0.00  0.00     0.275 HD
HETATM   17  H           1     -20.989  -6.884  -7.398  0.00  0.00     0.275 HD
ENDBRANCH   1  14
BRANCH   1  18
HETATM   18  C           1     -20.863  -4.232  -6.453  0.00  0.00     0.083 C 
BRANCH  18  19
HETATM   19  C           1     -20.872  -4.274  -7.948  0.00  0.00    -0.028 A 
HETATM   20  C           1     -22.027  -4.316  -8.779  0.00  0.00    -0.002 A 
HETATM   21  C           1     -21.581  -4.346 -10.101  0.00  0.00     0.042 A 
HETATM   22  C           1     -23.412  -4.330  -8.530  0.00  0.00     0.014 A 
HETATM   23  C           1     -22.457  -4.390 -11.193  0.00  0.00     0.030 A 
HETATM   24  N           1     -20.205  -4.323 -10.064  0.00  0.00    -0.365 N 
HETATM   25  C           1     -23.828  -4.404 -10.921  0.00  0.00     0.002 A 
HETATM   26  C           1     -24.301  -4.374  -9.611  0.00  0.00     0.001 A 
HETATM   27  C           1     -19.766  -4.280  -8.767  0.00  0.00     0.096 A 
HETATM   28  H           1     -19.581  -4.338 -10.909  0.00  0.00     0.165 HD
ENDBRANCH  18  19
ENDBRANCH   1  18
TORSDOF 9
ENDMDL
MODEL 8
REMARK VINA RESULT:      -6.6      1.759      2.140
REMARK  9 active torsions:
REMARK  status: ('A' for Active; 'I' for Inactive)
REMARK       I    between atoms: C_1  and  N_10 
REMARK    1  A    between atoms: C_1  and  C_22 
REMARK    2  A    between atoms: C_2  and  C_19 
REMARK    3  A    between atoms: C_2  and  C_17 
REMARK    4  A    between atoms: C_3  and  C_17 
REMARK    5  A    between atoms: C_9  and  C_23 
REMARK    6  A    between atoms: N_10  and  C_17 
REMARK    7  A    between atoms: N_11  and  C_22 
REMARK    8  A    between atoms: S_18  and  C_19 
REMARK    9  A    between atoms: C_22  and  C_23 
ROOT
HETATM    1  C           1     -20.546  -5.920  -5.869  0.00  0.00     0.278 C 
ENDROOT
BRANCH   1   2
HETATM    2  C           1     -21.474  -6.540  -4.854  0.00  0.00     0.249 C 
HETATM    3  N           1     -20.960  -7.233  -3.790  0.00  0.00    -0.345 N 
HETATM    4  H           1     -19.959  -7.328  -3.686  0.00  0.00     0.163 HD
HETATM    5  O           1     -22.670  -6.425  -4.979  0.00  0.00    -0.271 OA
BRANCH   3   6
HETATM    6  C           1     -21.852  -7.829  -2.814  0.00  0.00     0.186 C 
BRANCH   6   7
HETATM    7  C           1     -21.293  -9.174  -2.368  0.00  0.00     0.046 C 
BRANCH   7   8
HETATM    8  C           1     -22.092 -10.296  -3.014  0.00  0.00     0.076 C 
BRANCH   8   9
HETATM    9  S           1     -22.465 -11.567  -1.773  0.00  0.00    -0.173 SA
HETATM   10  C           1     -23.382 -10.481  -0.644  0.00  0.00     0.089 C 
ENDBRANCH   8   9
ENDBRANCH   7   8
ENDBRANCH   6   7
BRANCH   6  11
HETATM   11  C           1     -21.972  -6.914  -1.620  0.00  0.00     0.196 C 
HETATM   12  O           1     -21.684  -7.335  -0.479  0.00  0.00    -0.646 OA
HETATM   13  O           1     -22.359  -5.735  -1.772  0.00  0.00    -0.646 OA
ENDBRANCH   6  11
ENDBRANCH   3   6
ENDBRANCH   1   2
BRANCH   1  14
HETATM   14  N           1     -20.674  -6.649  -7.174  0.00  0.00    -0.066 N 
HETATM   15  H           1     -20.598  -7.677  -7.008  0.00  0.00     0.275 HD
HETATM   16  H           1     -21.601  -6.433  -7.603  0.00  0.00     0.275 HD
HETATM   17  H           1     -19.911  -6.343  -7.819  0.00  0.00     0.275 HD
ENDBRANCH   1  14
BRANCH   1  18
HETATM   18  C           1     -20.916  -4.456  -6.068  0.00  0.00     0.083 C 
BRANCH  18  19
HETATM   19  C           1     -21.854  -4.330  -7.226  0.00  0.00    -0.028 A 
HETATM   20  C           1     -21.485  -4.174  -8.592  0.00  0.00    -0.002 A 
HETATM   21  C           1     -22.666  -4.096  -9.330  0.00  0.00     0.042 A 
HETATM   22  C           1     -20.254  -4.093  -9.270  0.00  0.00     0.014 A 
HETATM   23  C           1     -22.678  -3.940 -10.722  0.00  0.00     0.030 A 
HETATM   24  N           1     -23.709  -4.201  -8.437  0.00  0.00    -0.365 N 
HETATM   25  C           1     -21.444  -3.861 -11.374  0.00  0.00     0.002 A 
HETATM   26  C           1     -20.249  -3.936 -10.661  0.00  0.00     0.001 A 
HETATM   27  C           1     -23.229  -4.342  -7.162  0.00  0.00     0.096 A 
HETATM   28  H           1     -24.726  -4.175  -8.696  0.00  0.00     0.165 HD
ENDBRANCH  18  19
ENDBRANCH   1  18
TORSDOF 9
ENDMDL
MODEL 9
REMARK VINA RESULT:      -6.5      2.592      3.509
REMARK  9 active torsions:
REMARK  status: ('A' for Active; 'I' for Inactive)
REMARK       I    between atoms: C_1  and  N_10 
REMARK    1  A    between atoms: C_1  and  C_22 
REMARK    2  A    between atoms: C_2  and  C_19 
REMARK    3  A    between atoms: C_2  and  C_17 
REMARK    4  A    between atoms: C_3  and  C_17 
REMARK    5  A    between atoms: C_9  and  C_23 
REMARK    6  A    between atoms: N_10  and  C_17 
REMARK    7  A    between atoms: N_11  and  C_22 
REMARK    8  A    between atoms: S_18  and  C_19 
REMARK    9  A    between atoms: C_22  and  C_23 
ROOT
HETATM    1  C           1     -19.886  -8.424  -3.747  0.00  0.00     0.278 C 
ENDROOT
BRANCH   1   2
HETATM    2  C           1     -20.858  -8.932  -2.711  0.00  0.00     0.249 C 
HETATM    3  N           1     -20.831  -8.425  -1.439  0.00  0.00    -0.345 N 
HETATM    4  H           1     -20.157  -7.710  -1.195  0.00  0.00     0.163 HD
HETATM    5  O           1     -21.662  -9.785  -3.003  0.00  0.00    -0.271 OA
BRANCH   3   6
HETATM    6  C           1     -21.765  -8.912  -0.443  0.00  0.00     0.186 C 
BRANCH   6   7
HETATM    7  C           1     -21.003  -9.331   0.808  0.00  0.00     0.046 C 
BRANCH   7   8
HETATM    8  C           1     -20.632 -10.804   0.707  0.00  0.00     0.076 C 
BRANCH   8   9
HETATM    9  S           1     -22.101 -11.770   0.257  0.00  0.00    -0.173 SA
HETATM   10  C           1     -21.244 -12.945  -0.828  0.00  0.00     0.089 C 
ENDBRANCH   8   9
ENDBRANCH   7   8
ENDBRANCH   6   7
BRANCH   6  11
HETATM   11  C           1     -22.742  -7.817  -0.093  0.00  0.00     0.196 C 
HETATM   12  O           1     -23.536  -7.969   0.860  0.00  0.00    -0.646 OA
HETATM   13  O           1     -22.755  -6.756  -0.755  0.00  0.00    -0.646 OA
ENDBRANCH   6  11
ENDBRANCH   3   6
ENDBRANCH   1   2
BRANCH   1  14
HETATM   14  N           1     -18.637  -9.255  -3.709  0.00  0.00    -0.066 N 
HETATM   15  H           1     -18.682  -9.916  -2.902  0.00  0.00     0.275 HD
HETATM   16  H           1     -18.554  -9.797  -4.598  0.00  0.00     0.275 HD
HETATM   17  H           1     -17.807  -8.630  -3.602  0.00  0.00     0.275 HD
ENDBRANCH   1  14
BRANCH   1  18
HETATM   18  C           1     -20.519  -8.522  -5.129  0.00  0.00     0.083 C 
BRANCH  18  19
HETATM   19  C           1     -21.232  -7.245  -5.444  0.00  0.00    -0.028 A 
HETATM   20  C           1     -20.747  -6.197  -6.275  0.00  0.00    -0.002 A 
HETATM   21  C           1     -21.725  -5.202  -6.294  0.00  0.00     0.042 A 
HETATM   22  C           1     -19.566  -6.000  -7.014  0.00  0.00     0.014 A 
HETATM   23  C           1     -21.580  -4.014  -7.020  0.00  0.00     0.030 A 
HETATM   24  N           1     -22.762  -5.640  -5.502  0.00  0.00    -0.365 N 
HETATM   25  C           1     -20.398  -3.841  -7.747  0.00  0.00     0.002 A 
HETATM   26  C           1     -19.404  -4.817  -7.746  0.00  0.00     0.001 A 
HETATM   27  C           1     -22.474  -6.874  -4.982  0.00  0.00     0.096 A 
HETATM   28  H           1     -23.647  -5.103  -5.320  0.00  0.00     0.165 HD
ENDBRANCH  18  19
ENDBRANCH   1  18
TORSDOF 9
ENDMDL
