MODEL 1
REMARK VINA RESULT:      -5.6      0.000      0.000
REMARK  9 active torsions:
REMARK  status: ('A' for Active; 'I' for Inactive)
REMARK    1  A    between atoms: C_1  and  O_15 
REMARK    2  A    between atoms: C_1  and  C_2 
REMARK    3  A    between atoms: C_2  and  C_3 
REMARK    4  A    between atoms: C_2  and  N_14 
REMARK       I    between atoms: C_6  and  N_14 
REMARK    5  A    between atoms: C_6  and  C_7 
REMARK    6  A    between atoms: C_7  and  C_8 
REMARK    7  A    between atoms: C_7  and  N_17 
REMARK    8  A    between atoms: C_8  and  C_12 
REMARK    9  A    between atoms: S_11  and  C_12 
ROOT
HETATM    1  C           1     -21.625  -4.750  -7.925  0.00  0.00     0.249 C 
HETATM    2  H           1     -22.264  -5.956  -9.481  0.00  0.00     0.163 HD
HETATM    3  O           1     -21.486  -3.610  -7.548  0.00  0.00    -0.271 OA
HETATM    4  N           1     -22.148  -5.001  -9.165  0.00  0.00    -0.343 N 
ENDROOT
BRANCH   1   5
HETATM    5  C           1     -21.221  -5.895  -7.029  0.00  0.00     0.275 C 
BRANCH   5   6
HETATM    6  C           1     -21.409  -5.491  -5.573  0.00  0.00     0.053 C 
BRANCH   6   7
HETATM    7  C           1     -22.238  -6.548  -4.855  0.00  0.00     0.076 C 
BRANCH   7   8
HETATM    8  S           1     -21.289  -7.218  -3.461  0.00  0.00    -0.173 SA
HETATM    9  C           1     -22.090  -6.217  -2.176  0.00  0.00     0.089 C 
ENDBRANCH   7   8
ENDBRANCH   6   7
ENDBRANCH   5   6
BRANCH   5  10
HETATM   10  N           1     -19.780  -6.234  -7.272  0.00  0.00    -0.066 N 
HETATM   11  H           1     -19.321  -6.475  -6.365  0.00  0.00     0.275 HD
HETATM   12  H           1     -19.720  -7.050  -7.921  0.00  0.00     0.275 HD
HETATM   13  H           1     -19.297  -5.412  -7.700  0.00  0.00     0.275 HD
ENDBRANCH   5  10
ENDBRANCH   1   5
BRANCH   4  14
HETATM   14  C           1     -22.536  -3.900 -10.025  0.00  0.00     0.209 C 
BRANCH  14  15
HETATM   15  C           1     -21.831  -4.035 -11.369  0.00  0.00     0.200 C 
BRANCH  15  16
HETATM   16  O           1     -22.733  -4.529 -12.322  0.00  0.00    -0.398 OA
HETATM   17  H           1     -22.881  -3.837 -12.943  0.00  0.00     0.209 HD
ENDBRANCH  15  16
ENDBRANCH  14  15
BRANCH  14  18
HETATM   18  C           1     -24.030  -3.929 -10.235  0.00  0.00     0.198 C 
HETATM   19  O           1     -24.689  -4.937  -9.900  0.00  0.00    -0.646 OA
HETATM   20  O           1     -24.608  -2.944 -10.742  0.00  0.00    -0.646 OA
ENDBRANCH  14  18
ENDBRANCH   4  14
TORSDOF 9
ENDMDL
MODEL 2
REMARK VINA RESULT:      -4.8      1.741      2.043
REMARK  9 active torsions:
REMARK  status: ('A' for Active; 'I' for Inactive)
REMARK    1  A    between atoms: C_1  and  O_15 
REMARK    2  A    between atoms: C_1  and  C_2 
REMARK    3  A    between atoms: C_2  and  C_3 
REMARK    4  A    between atoms: C_2  and  N_14 
REMARK       I    between atoms: C_6  and  N_14 
REMARK    5  A    between atoms: C_6  and  C_7 
REMARK    6  A    between atoms: C_7  and  C_8 
REMARK    7  A    between atoms: C_7  and  N_17 
REMARK    8  A    between atoms: C_8  and  C_12 
REMARK    9  A    between atoms: S_11  and  C_12 
ROOT
HETATM    1  C           1     -21.885  -4.243  -7.448  0.00  0.00     0.249 C 
HETATM    2  H           1     -23.370  -5.293  -8.436  0.00  0.00     0.163 HD
HETATM    3  O           1     -21.138  -3.294  -7.503  0.00  0.00    -0.271 OA
HETATM    4  N           1     -22.746  -4.498  -8.482  0.00  0.00    -0.343 N 
ENDROOT
BRANCH   1   5
HETATM    5  C           1     -21.867  -5.147  -6.240  0.00  0.00     0.275 C 
BRANCH   5   6
HETATM    6  C           1     -21.027  -6.381  -6.542  0.00  0.00     0.053 C 
BRANCH   6   7
HETATM    7  C           1     -21.405  -7.500  -5.580  0.00  0.00     0.076 C 
BRANCH   7   8
HETATM    8  S           1     -19.899  -8.313  -4.976  0.00  0.00    -0.173 SA
HETATM    9  C           1     -20.515 -10.014  -5.132  0.00  0.00     0.089 C 
ENDBRANCH   7   8
ENDBRANCH   6   7
ENDBRANCH   5   6
BRANCH   5  10
HETATM   10  N           1     -23.269  -5.564  -5.909  0.00  0.00    -0.066 N 
HETATM   11  H           1     -23.760  -4.780  -5.424  0.00  0.00     0.275 HD
HETATM   12  H           1     -23.778  -5.804  -6.788  0.00  0.00     0.275 HD
HETATM   13  H           1     -23.244  -6.400  -5.281  0.00  0.00     0.275 HD
ENDBRANCH   5  10
ENDBRANCH   1   5
BRANCH   4  14
HETATM   14  C           1     -22.762  -3.628  -9.642  0.00  0.00     0.209 C 
BRANCH  14  15
HETATM   15  C           1     -21.916  -4.245 -10.748  0.00  0.00     0.200 C 
BRANCH  15  16
HETATM   16  O           1     -21.739  -3.310 -11.778  0.00  0.00    -0.398 OA
HETATM   17  H           1     -21.864  -3.770 -12.590  0.00  0.00     0.209 HD
ENDBRANCH  15  16
ENDBRANCH  14  15
BRANCH  14  18
HETATM   18  C           1     -24.182  -3.464 -10.127  0.00  0.00     0.198 C 
HETATM   19  O           1     -25.017  -2.859  -9.420  0.00  0.00    -0.646 OA
HETATM   20  O           1     -24.522  -3.933 -11.234  0.00  0.00    -0.646 OA
ENDBRANCH  14  18
ENDBRANCH   4  14
TORSDOF 9
ENDMDL
MODEL 3
REMARK VINA RESULT:      -4.7      3.999      6.920
REMARK  9 active torsions:
REMARK  status: ('A' for Active; 'I' for Inactive)
REMARK    1  A    between atoms: C_1  and  O_15 
REMARK    2  A    between atoms: C_1  and  C_2 
REMARK    3  A    between atoms: C_2  and  C_3 
REMARK    4  A    between atoms: C_2  and  N_14 
REMARK       I    between atoms: C_6  and  N_14 
REMARK    5  A    between atoms: C_6  and  C_7 
REMARK    6  A    between atoms: C_7  and  C_8 
REMARK    7  A    between atoms: C_7  and  N_17 
REMARK    8  A    between atoms: C_8  and  C_12 
REMARK    9  A    between atoms: S_11  and  C_12 
ROOT
HETATM    1  C           1     -21.467  -5.442  -5.745  0.00  0.00     0.249 C 
HETATM    2  H           1     -23.060  -6.359  -4.794  0.00  0.00     0.163 HD
HETATM    3  O           1     -20.301  -5.140  -5.655  0.00  0.00    -0.271 OA
HETATM    4  N           1     -22.083  -6.106  -4.719  0.00  0.00    -0.343 N 
ENDROOT
BRANCH   1   5
HETATM    5  C           1     -22.243  -5.088  -6.990  0.00  0.00     0.275 C 
BRANCH   5   6
HETATM    6  C           1     -21.504  -4.000  -7.757  0.00  0.00     0.053 C 
BRANCH   6   7
HETATM    7  C           1     -21.240  -4.472  -9.181  0.00  0.00     0.076 C 
BRANCH   7   8
HETATM    8  S           1     -22.348  -3.600 -10.324  0.00  0.00    -0.173 SA
HETATM    9  C           1     -23.580  -4.927 -10.456  0.00  0.00     0.089 C 
ENDBRANCH   7   8
ENDBRANCH   6   7
ENDBRANCH   5   6
BRANCH   5  10
HETATM   10  N           1     -23.605  -4.591  -6.603  0.00  0.00    -0.066 N 
HETATM   11  H           1     -24.164  -4.400  -7.465  0.00  0.00     0.275 HD
HETATM   12  H           1     -24.090  -5.315  -6.028  0.00  0.00     0.275 HD
HETATM   13  H           1     -23.509  -3.710  -6.048  0.00  0.00     0.275 HD
ENDBRANCH   5  10
ENDBRANCH   1   5
BRANCH   4  14
HETATM   14  C           1     -21.336  -6.446  -3.523  0.00  0.00     0.209 C 
BRANCH  14  15
HETATM   15  C           1     -22.168  -6.107  -2.293  0.00  0.00     0.200 C 
BRANCH  15  16
HETATM   16  O           1     -22.179  -7.203  -1.419  0.00  0.00    -0.398 OA
HETATM   17  H           1     -21.313  -7.571  -1.430  0.00  0.00     0.209 HD
ENDBRANCH  15  16
ENDBRANCH  14  15
BRANCH  14  18
HETATM   18  C           1     -21.025  -7.923  -3.529  0.00  0.00     0.198 C 
HETATM   19  O           1     -19.986  -8.344  -2.976  0.00  0.00    -0.646 OA
HETATM   20  O           1     -21.806  -8.724  -4.086  0.00  0.00    -0.646 OA
ENDBRANCH  14  18
ENDBRANCH   4  14
TORSDOF 9
ENDMDL
MODEL 4
REMARK VINA RESULT:      -4.7      3.055      4.601
REMARK  9 active torsions:
REMARK  status: ('A' for Active; 'I' for Inactive)
REMARK    1  A    between atoms: C_1  and  O_15 
REMARK    2  A    between atoms: C_1  and  C_2 
REMARK    3  A    between atoms: C_2  and  C_3 
REMARK    4  A    between atoms: C_2  and  N_14 
REMARK       I    between atoms: C_6  and  N_14 
REMARK    5  A    between atoms: C_6  and  C_7 
REMARK    6  A    between atoms: C_7  and  C_8 
REMARK    7  A    between atoms: C_7  and  N_17 
REMARK    8  A    between atoms: C_8  and  C_12 
REMARK    9  A    between atoms: S_11  and  C_12 
ROOT
HETATM    1  C           1     -21.513  -6.654  -4.540  0.00  0.00     0.249 C 
HETATM    2  H           1     -21.016  -4.660  -4.788  0.00  0.00     0.163 HD
HETATM    3  O           1     -21.855  -7.667  -5.103  0.00  0.00    -0.271 OA
HETATM    4  N           1     -21.302  -5.508  -5.260  0.00  0.00    -0.343 N 
ENDROOT
BRANCH   1   5
HETATM    5  C           1     -21.320  -6.651  -3.043  0.00  0.00     0.275 C 
BRANCH   5   6
HETATM    6  C           1     -21.293  -8.086  -2.533  0.00  0.00     0.053 C 
BRANCH   6   7
HETATM    7  C           1     -21.003  -8.088  -1.037  0.00  0.00     0.076 C 
BRANCH   7   8
HETATM    8  S           1     -22.091  -9.282  -0.211  0.00  0.00    -0.173 SA
HETATM    9  C           1     -23.157  -8.053   0.596  0.00  0.00     0.089 C 
ENDBRANCH   7   8
ENDBRANCH   6   7
ENDBRANCH   5   6
BRANCH   5  10
HETATM   10  N           1     -22.453  -5.911  -2.396  0.00  0.00    -0.066 N 
HETATM   11  H           1     -22.374  -5.995  -1.357  0.00  0.00     0.275 HD
HETATM   12  H           1     -22.411  -4.904  -2.668  0.00  0.00     0.275 HD
HETATM   13  H           1     -23.361  -6.321  -2.711  0.00  0.00     0.275 HD
ENDBRANCH   5  10
ENDBRANCH   1   5
BRANCH   4  14
HETATM   14  C           1     -21.488  -5.512  -6.698  0.00  0.00     0.209 C 
BRANCH  14  15
HETATM   15  C           1     -22.591  -4.529  -7.068  0.00  0.00     0.200 C 
BRANCH  15  16
HETATM   16  O           1     -22.020  -3.313  -7.469  0.00  0.00    -0.398 OA
HETATM   17  H           1     -22.053  -2.736  -6.726  0.00  0.00     0.209 HD
ENDBRANCH  15  16
ENDBRANCH  14  15
BRANCH  14  18
HETATM   18  C           1     -20.201  -5.101  -7.372  0.00  0.00     0.198 C 
HETATM   19  O           1     -19.266  -4.623  -6.694  0.00  0.00    -0.646 OA
HETATM   20  O           1     -20.071  -5.240  -8.607  0.00  0.00    -0.646 OA
ENDBRANCH  14  18
ENDBRANCH   4  14
TORSDOF 9
ENDMDL
MODEL 5
REMARK VINA RESULT:      -4.4      3.658      6.472
REMARK  9 active torsions:
REMARK  status: ('A' for Active; 'I' for Inactive)
REMARK    1  A    between atoms: C_1  and  O_15 
REMARK    2  A    between atoms: C_1  and  C_2 
REMARK    3  A    between atoms: C_2  and  C_3 
REMARK    4  A    between atoms: C_2  and  N_14 
REMARK       I    between atoms: C_6  and  N_14 
REMARK    5  A    between atoms: C_6  and  C_7 
REMARK    6  A    between atoms: C_7  and  C_8 
REMARK    7  A    between atoms: C_7  and  N_17 
REMARK    8  A    between atoms: C_8  and  C_12 
REMARK    9  A    between atoms: S_11  and  C_12 
ROOT
HETATM    1  C           1     -21.632  -5.451  -5.922  0.00  0.00     0.249 C 
HETATM    2  H           1     -19.960  -6.423  -5.185  0.00  0.00     0.163 HD
HETATM    3  O           1     -22.838  -5.392  -5.890  0.00  0.00    -0.271 OA
HETATM    4  N           1     -20.970  -6.373  -5.157  0.00  0.00    -0.343 N 
ENDROOT
BRANCH   1   5
HETATM    5  C           1     -20.854  -4.508  -6.808  0.00  0.00     0.275 C 
BRANCH   5   6
HETATM    6  C           1     -21.805  -3.829  -7.785  0.00  0.00     0.053 C 
BRANCH   6   7
HETATM    7  C           1     -21.971  -4.702  -9.022  0.00  0.00     0.076 C 
BRANCH   7   8
HETATM    8  S           1     -22.203  -3.647 -10.481  0.00  0.00    -0.173 SA
HETATM    9  C           1     -20.517  -3.833 -11.129  0.00  0.00     0.089 C 
ENDBRANCH   7   8
ENDBRANCH   6   7
ENDBRANCH   5   6
BRANCH   5  10
HETATM   10  N           1     -19.819  -5.280  -7.572  0.00  0.00    -0.066 N 
HETATM   11  H           1     -20.028  -6.302  -7.505  0.00  0.00     0.275 HD
HETATM   12  H           1     -19.834  -4.986  -8.573  0.00  0.00     0.275 HD
HETATM   13  H           1     -18.875  -5.090  -7.166  0.00  0.00     0.275 HD
ENDBRANCH   5  10
ENDBRANCH   1   5
BRANCH   4  14
HETATM   14  C           1     -21.718  -7.278  -4.306  0.00  0.00     0.209 C 
BRANCH  14  15
HETATM   15  C           1     -21.144  -8.683  -4.434  0.00  0.00     0.200 C 
BRANCH  15  16
HETATM   16  O           1     -21.085  -9.043  -5.788  0.00  0.00    -0.398 OA
HETATM   17  H           1     -21.134  -8.245  -6.286  0.00  0.00     0.209 HD
ENDBRANCH  15  16
ENDBRANCH  14  15
BRANCH  14  18
HETATM   18  C           1     -21.614  -6.821  -2.872  0.00  0.00     0.198 C 
HETATM   19  O           1     -20.763  -7.334  -2.112  0.00  0.00    -0.646 OA
HETATM   20  O           1     -22.378  -5.929  -2.443  0.00  0.00    -0.646 OA
ENDBRANCH  14  18
ENDBRANCH   4  14
TORSDOF 9
ENDMDL
MODEL 6
REMARK VINA RESULT:      -4.3      2.119      3.076
REMARK  9 active torsions:
REMARK  status: ('A' for Active; 'I' for Inactive)
REMARK    1  A    between atoms: C_1  and  O_15 
REMARK    2  A    between atoms: C_1  and  C_2 
REMARK    3  A    between atoms: C_2  and  C_3 
REMARK    4  A    between atoms: C_2  and  N_14 
REMARK       I    between atoms: C_6  and  N_14 
REMARK    5  A    between atoms: C_6  and  C_7 
REMARK    6  A    between atoms: C_7  and  C_8 
REMARK    7  A    between atoms: C_7  and  N_17 
REMARK    8  A    between atoms: C_8  and  C_12 
REMARK    9  A    between atoms: S_11  and  C_12 
ROOT
HETATM    1  C           1     -21.244  -5.520  -5.532  0.00  0.00     0.249 C 
HETATM    2  H           1     -22.484  -6.043  -7.105  0.00  0.00     0.163 HD
HETATM    3  O           1     -20.395  -4.747  -5.154  0.00  0.00    -0.271 OA
HETATM    4  N           1     -21.774  -5.395  -6.788  0.00  0.00    -0.343 N 
ENDROOT
BRANCH   1   5
HETATM    5  C           1     -21.718  -6.624  -4.619  0.00  0.00     0.275 C 
BRANCH   5   6
HETATM    6  C           1     -21.448  -6.237  -3.172  0.00  0.00     0.053 C 
BRANCH   6   7
HETATM    7  C           1     -21.417  -7.491  -2.307  0.00  0.00     0.076 C 
BRANCH   7   8
HETATM    8  S           1     -22.295  -7.176  -0.751  0.00  0.00    -0.173 SA
HETATM    9  C           1     -22.581  -8.918  -0.328  0.00  0.00     0.089 C 
ENDBRANCH   7   8
ENDBRANCH   6   7
ENDBRANCH   5   6
BRANCH   5  10
HETATM   10  N           1     -20.983  -7.891  -4.944  0.00  0.00    -0.066 N 
HETATM   11  H           1     -21.268  -8.225  -5.893  0.00  0.00     0.275 HD
HETATM   12  H           1     -19.955  -7.710  -4.933  0.00  0.00     0.275 HD
HETATM   13  H           1     -21.218  -8.621  -4.234  0.00  0.00     0.275 HD
ENDBRANCH   5  10
ENDBRANCH   1   5
BRANCH   4  14
HETATM   14  C           1     -21.317  -4.334  -7.665  0.00  0.00     0.209 C 
BRANCH  14  15
HETATM   15  C           1     -20.083  -4.802  -8.426  0.00  0.00     0.200 C 
BRANCH  15  16
HETATM   16  O           1     -18.932  -4.292  -7.809  0.00  0.00    -0.398 OA
HETATM   17  H           1     -19.205  -3.562  -7.280  0.00  0.00     0.209 HD
ENDBRANCH  15  16
ENDBRANCH  14  15
BRANCH  14  18
HETATM   18  C           1     -22.411  -3.986  -8.644  0.00  0.00     0.198 C 
HETATM   19  O           1     -23.609  -4.125  -8.318  0.00  0.00    -0.646 OA
HETATM   20  O           1     -22.118  -3.558  -9.782  0.00  0.00    -0.646 OA
ENDBRANCH  14  18
ENDBRANCH   4  14
TORSDOF 9
ENDMDL
MODEL 7
REMARK VINA RESULT:      -4.2      2.846      4.302
REMARK  9 active torsions:
REMARK  status: ('A' for Active; 'I' for Inactive)
REMARK    1  A    between atoms: C_1  and  O_15 
REMARK    2  A    between atoms: C_1  and  C_2 
REMARK    3  A    between atoms: C_2  and  C_3 
REMARK    4  A    between atoms: C_2  and  N_14 
REMARK       I    between atoms: C_6  and  N_14 
REMARK    5  A    between atoms: C_6  and  C_7 
REMARK    6  A    between atoms: C_7  and  C_8 
REMARK    7  A    between atoms: C_7  and  N_17 
REMARK    8  A    between atoms: C_8  and  C_12 
REMARK    9  A    between atoms: S_11  and  C_12 
ROOT
HETATM    1  C           1     -21.282  -6.799  -5.275  0.00  0.00     0.249 C 
HETATM    2  H           1     -21.486  -4.740  -5.218  0.00  0.00     0.163 HD
HETATM    3  O           1     -21.249  -7.772  -5.991  0.00  0.00    -0.271 OA
HETATM    4  N           1     -21.458  -5.555  -5.818  0.00  0.00    -0.343 N 
ENDROOT
BRANCH   1   5
HETATM    5  C           1     -21.129  -6.956  -3.782  0.00  0.00     0.275 C 
BRANCH   5   6
HETATM    6  C           1     -21.268  -8.426  -3.409  0.00  0.00     0.053 C 
BRANCH   6   7
HETATM    7  C           1     -20.306  -8.757  -2.275  0.00  0.00     0.076 C 
BRANCH   7   8
HETATM    8  S           1     -19.328 -10.220  -2.719  0.00  0.00    -0.173 SA
HETATM    9  C           1     -18.344  -9.415  -4.015  0.00  0.00     0.089 C 
ENDBRANCH   7   8
ENDBRANCH   6   7
ENDBRANCH   5   6
BRANCH   5  10
HETATM   10  N           1     -22.192  -6.160  -3.085  0.00  0.00    -0.066 N 
HETATM   11  H           1     -21.757  -5.335  -2.613  0.00  0.00     0.275 HD
HETATM   12  H           1     -22.895  -5.831  -3.783  0.00  0.00     0.275 HD
HETATM   13  H           1     -22.664  -6.761  -2.371  0.00  0.00     0.275 HD
ENDBRANCH   5  10
ENDBRANCH   1   5
BRANCH   4  14
HETATM   14  C           1     -21.605  -5.405  -7.253  0.00  0.00     0.209 C 
BRANCH  14  15
HETATM   15  C           1     -22.733  -4.424  -7.546  0.00  0.00     0.200 C 
BRANCH  15  16
HETATM   16  O           1     -22.203  -3.259  -8.118  0.00  0.00    -0.398 OA
HETATM   17  H           1     -22.117  -3.422  -9.041  0.00  0.00     0.209 HD
ENDBRANCH  15  16
ENDBRANCH  14  15
BRANCH  14  18
HETATM   18  C           1     -20.317  -4.880  -7.837  0.00  0.00     0.198 C 
HETATM   19  O           1     -20.095  -4.994  -9.063  0.00  0.00    -0.646 OA
HETATM   20  O           1     -19.473  -4.331  -7.097  0.00  0.00    -0.646 OA
ENDBRANCH  14  18
ENDBRANCH   4  14
TORSDOF 9
ENDMDL
MODEL 8
REMARK VINA RESULT:      -4.1      5.095      8.067
REMARK  9 active torsions:
REMARK  status: ('A' for Active; 'I' for Inactive)
REMARK    1  A    between atoms: C_1  and  O_15 
REMARK    2  A    between atoms: C_1  and  C_2 
REMARK    3  A    between atoms: C_2  and  C_3 
REMARK    4  A    between atoms: C_2  and  N_14 
REMARK       I    between atoms: C_6  and  N_14 
REMARK    5  A    between atoms: C_6  and  C_7 
REMARK    6  A    between atoms: C_7  and  C_8 
REMARK    7  A    between atoms: C_7  and  N_17 
REMARK    8  A    between atoms: C_8  and  C_12 
REMARK    9  A    between atoms: S_11  and  C_12 
ROOT
HETATM    1  C           1     -20.982  -8.407  -3.827  0.00  0.00     0.249 C 
HETATM    2  H           1     -20.044  -7.471  -2.237  0.00  0.00     0.163 HD
HETATM    3  O           1     -21.875  -9.154  -4.150  0.00  0.00    -0.271 OA
HETATM    4  N           1     -20.792  -8.096  -2.507  0.00  0.00    -0.343 N 
ENDROOT
BRANCH   1   5
HETATM    5  C           1     -20.075  -7.818  -4.880  0.00  0.00     0.275 C 
BRANCH   5   6
HETATM    6  C           1     -20.905  -7.021  -5.877  0.00  0.00     0.053 C 
BRANCH   6   7
HETATM    7  C           1     -21.105  -5.604  -5.355  0.00  0.00     0.076 C 
BRANCH   7   8
HETATM    8  S           1     -20.761  -4.415  -6.682  0.00  0.00    -0.173 SA
HETATM    9  C           1     -22.437  -4.408  -7.381  0.00  0.00     0.089 C 
ENDBRANCH   7   8
ENDBRANCH   6   7
ENDBRANCH   5   6
BRANCH   5  10
HETATM   10  N           1     -19.358  -8.924  -5.596  0.00  0.00    -0.066 N 
HETATM   11  H           1     -19.334  -9.774  -4.989  0.00  0.00     0.275 HD
HETATM   12  H           1     -19.858  -9.144  -6.486  0.00  0.00     0.275 HD
HETATM   13  H           1     -18.380  -8.622  -5.811  0.00  0.00     0.275 HD
ENDBRANCH   5  10
ENDBRANCH   1   5
BRANCH   4  14
HETATM   14  C           1     -21.664  -8.664  -1.497  0.00  0.00     0.209 C 
BRANCH  14  15
HETATM   15  C           1     -20.864  -9.611  -0.613  0.00  0.00     0.200 C 
BRANCH  15  16
HETATM   16  O           1     -21.743 -10.424   0.117  0.00  0.00    -0.398 OA
HETATM   17  H           1     -22.265 -10.895  -0.510  0.00  0.00     0.209 HD
ENDBRANCH  15  16
ENDBRANCH  14  15
BRANCH  14  18
HETATM   18  C           1     -22.242  -7.555  -0.653  0.00  0.00     0.198 C 
HETATM   19  O           1     -22.360  -7.706   0.583  0.00  0.00    -0.646 OA
HETATM   20  O           1     -22.603  -6.484  -1.189  0.00  0.00    -0.646 OA
ENDBRANCH  14  18
ENDBRANCH   4  14
TORSDOF 9
ENDMDL
MODEL 9
REMARK VINA RESULT:      -4.1      2.740      3.821
REMARK  9 active torsions:
REMARK  status: ('A' for Active; 'I' for Inactive)
REMARK    1  A    between atoms: C_1  and  O_15 
REMARK    2  A    between atoms: C_1  and  C_2 
REMARK    3  A    between atoms: C_2  and  C_3 
REMARK    4  A    between atoms: C_2  and  N_14 
REMARK       I    between atoms: C_6  and  N_14 
REMARK    5  A    between atoms: C_6  and  C_7 
REMARK    6  A    between atoms: C_7  and  C_8 
REMARK    7  A    between atoms: C_7  and  N_17 
REMARK    8  A    between atoms: C_8  and  C_12 
REMARK    9  A    between atoms: S_11  and  C_12 
ROOT
HETATM    1  C           1     -21.377  -6.631  -4.788  0.00  0.00     0.249 C 
HETATM    2  H           1     -20.925  -6.915  -6.787  0.00  0.00     0.163 HD
HETATM    3  O           1     -21.612  -5.810  -3.932  0.00  0.00    -0.271 OA
HETATM    4  N           1     -21.122  -6.228  -6.071  0.00  0.00    -0.343 N 
ENDROOT
BRANCH   1   5
HETATM    5  C           1     -21.365  -8.099  -4.441  0.00  0.00     0.275 C 
BRANCH   5   6
HETATM    6  C           1     -20.244  -8.378  -3.449  0.00  0.00     0.053 C 
BRANCH   6   7
HETATM    7  C           1     -20.793  -9.173  -2.271  0.00  0.00     0.076 C 
BRANCH   7   8
HETATM    8  S           1     -21.441  -8.031  -1.019  0.00  0.00    -0.173 SA
HETATM    9  C           1     -22.692  -9.163  -0.347  0.00  0.00     0.089 C 
ENDBRANCH   7   8
ENDBRANCH   6   7
ENDBRANCH   5   6
BRANCH   5  10
HETATM   10  N           1     -21.143  -8.904  -5.687  0.00  0.00    -0.066 N 
HETATM   11  H           1     -20.974  -8.260  -6.492  0.00  0.00     0.275 HD
HETATM   12  H           1     -20.313  -9.525  -5.557  0.00  0.00     0.275 HD
HETATM   13  H           1     -21.988  -9.488  -5.879  0.00  0.00     0.275 HD
ENDBRANCH   5  10
ENDBRANCH   1   5
BRANCH   4  14
HETATM   14  C           1     -21.133  -4.817  -6.404  0.00  0.00     0.209 C 
BRANCH  14  15
HETATM   15  C           1     -19.925  -4.492  -7.273  0.00  0.00     0.200 C 
BRANCH  15  16
HETATM   16  O           1     -19.884  -5.371  -8.364  0.00  0.00    -0.398 OA
HETATM   17  H           1     -18.982  -5.442  -8.625  0.00  0.00     0.209 HD
ENDBRANCH  15  16
ENDBRANCH  14  15
BRANCH  14  18
HETATM   18  C           1     -22.399  -4.488  -7.157  0.00  0.00     0.198 C 
HETATM   19  O           1     -22.334  -4.040  -8.323  0.00  0.00    -0.646 OA
HETATM   20  O           1     -23.512  -4.665  -6.616  0.00  0.00    -0.646 OA
ENDBRANCH  14  18
ENDBRANCH   4  14
TORSDOF 9
ENDMDL
