MODEL 1
REMARK VINA RESULT:      -7.2      0.000      0.000
REMARK  11 active torsions:
REMARK  status: ('A' for Active; 'I' for Inactive)
REMARK    1  A    between atoms: C_2  and  C_4 
REMARK    2  A    between atoms: C_4  and  C_5 
REMARK    3  A    between atoms: C_5  and  C_6 
REMARK    4  A    between atoms: C_5  and  N_9 
REMARK       I    between atoms: N_9  and  C_10 
REMARK    5  A    between atoms: C_10  and  C_11 
REMARK    6  A    between atoms: C_11  and  C_12 
REMARK    7  A    between atoms: C_11  and  N_24 
REMARK    8  A    between atoms: C_12  and  C_13 
REMARK    9  A    between atoms: C_16  and  O_17 
REMARK   10  A    between atoms: O_17  and  P_18 
REMARK   11  A    between atoms: P_18  and  O_19 
ROOT
HETATM    1  C           1     -21.174  -6.275  -5.036  0.00  0.00     0.278 C 
ENDROOT
BRANCH   1   2
HETATM    2  C           1     -20.544  -7.644  -5.100  0.00  0.00     0.249 C 
HETATM    3  N           1     -21.041  -8.663  -4.333  0.00  0.00    -0.344 N 
HETATM    4  H           1     -21.832  -8.499  -3.723  0.00  0.00     0.163 HD
HETATM    5  O           1     -19.599  -7.841  -5.826  0.00  0.00    -0.271 OA
BRANCH   3   6
HETATM    6  C           1     -20.435  -9.979  -4.394  0.00  0.00     0.195 C 
BRANCH   6   7
HETATM    7  C           1     -20.324 -10.553  -2.987  0.00  0.00     0.149 C 
BRANCH   7   8
HETATM    8  C           1     -21.004  -9.627  -2.011  0.00  0.00     0.175 C 
HETATM    9  O           1     -22.220  -9.770  -1.756  0.00  0.00    -0.648 OA
HETATM   10  O           1     -20.353  -8.716  -1.455  0.00  0.00    -0.648 OA
ENDBRANCH   7   8
ENDBRANCH   6   7
BRANCH   6  11
HETATM   11  C           1     -21.292 -10.888  -5.241  0.00  0.00     0.197 C 
HETATM   12  O           1     -21.181 -10.870  -6.486  0.00  0.00    -0.646 OA
HETATM   13  O           1     -22.111 -11.661  -4.697  0.00  0.00    -0.646 OA
ENDBRANCH   6  11
ENDBRANCH   3   6
ENDBRANCH   1   2
BRANCH   1  14
HETATM   14  C           1     -20.239  -5.254  -5.671  0.00  0.00     0.081 C 
BRANCH  14  15
HETATM   15  C           1     -20.800  -4.813  -6.986  0.00  0.00    -0.056 A 
HETATM   16  C           1     -20.076  -5.020  -8.159  0.00  0.00     0.010 A 
HETATM   17  C           1     -20.599  -4.608  -9.384  0.00  0.00     0.038 A 
HETATM   18  C           1     -21.848  -3.990  -9.437  0.00  0.00     0.081 A 
HETATM   19  C           1     -22.574  -3.783  -8.264  0.00  0.00     0.038 A 
HETATM   20  C           1     -22.050  -4.195  -7.038  0.00  0.00     0.010 A 
BRANCH  18  21
HETATM   21  O           1     -22.356  -3.590 -10.628  0.00  0.00    -0.247 OA
BRANCH  21  22
HETATM   22  P           1     -23.718  -4.287 -11.144  0.00  0.00     0.411 P 
HETATM   23  O           1     -23.992  -5.494 -10.332  0.00  0.00    -0.624 OA
HETATM   24  O           1     -24.843  -3.335 -11.009  0.00  0.00    -0.624 OA
BRANCH  22  25
HETATM   25  O           1     -23.554  -4.709 -12.695  0.00  0.00    -0.300 OA
HETATM   26  H           1     -24.410  -4.998 -12.961  0.00  0.00     0.223 HD
ENDBRANCH  22  25
ENDBRANCH  21  22
ENDBRANCH  18  21
ENDBRANCH  14  15
ENDBRANCH   1  14
BRANCH   1  27
HETATM   27  N           1     -21.420  -5.904  -3.603  0.00  0.00    -0.066 N 
HETATM   28  H           1     -20.569  -6.118  -3.036  0.00  0.00     0.275 HD
HETATM   29  H           1     -21.633  -4.883  -3.539  0.00  0.00     0.275 HD
HETATM   30  H           1     -22.230  -6.453  -3.236  0.00  0.00     0.275 HD
ENDBRANCH   1  27
TORSDOF 11
ENDMDL
MODEL 2
REMARK VINA RESULT:      -7.2     13.190     14.532
REMARK  11 active torsions:
REMARK  status: ('A' for Active; 'I' for Inactive)
REMARK    1  A    between atoms: C_2  and  C_4 
REMARK    2  A    between atoms: C_4  and  C_5 
REMARK    3  A    between atoms: C_5  and  C_6 
REMARK    4  A    between atoms: C_5  and  N_9 
REMARK       I    between atoms: N_9  and  C_10 
REMARK    5  A    between atoms: C_10  and  C_11 
REMARK    6  A    between atoms: C_11  and  C_12 
REMARK    7  A    between atoms: C_11  and  N_24 
REMARK    8  A    between atoms: C_12  and  C_13 
REMARK    9  A    between atoms: C_16  and  O_17 
REMARK   10  A    between atoms: O_17  and  P_18 
REMARK   11  A    between atoms: P_18  and  O_19 
ROOT
HETATM    1  C           1     -33.788  -4.922 -15.444  0.00  0.00     0.278 C 
ENDROOT
BRANCH   1   2
HETATM    2  C           1     -34.245  -4.087 -14.273  0.00  0.00     0.249 C 
HETATM    3  N           1     -34.256  -4.623 -13.014  0.00  0.00    -0.344 N 
HETATM    4  H           1     -33.958  -5.579 -12.867  0.00  0.00     0.163 HD
HETATM    5  O           1     -34.603  -2.947 -14.447  0.00  0.00    -0.271 OA
BRANCH   3   6
HETATM    6  C           1     -34.696  -3.821 -11.888  0.00  0.00     0.195 C 
BRANCH   6   7
HETATM    7  C           1     -35.040  -4.733 -10.717  0.00  0.00     0.149 C 
BRANCH   7   8
HETATM    8  C           1     -34.429  -6.094 -10.944  0.00  0.00     0.175 C 
HETATM    9  O           1     -33.186  -6.233 -10.923  0.00  0.00    -0.648 OA
HETATM   10  O           1     -35.165  -7.083 -11.152  0.00  0.00    -0.648 OA
ENDBRANCH   7   8
ENDBRANCH   6   7
BRANCH   6  11
HETATM   11  C           1     -33.592  -2.877 -11.481  0.00  0.00     0.197 C 
HETATM   12  O           1     -33.867  -1.712 -11.120  0.00  0.00    -0.646 OA
HETATM   13  O           1     -32.402  -3.259 -11.505  0.00  0.00    -0.646 OA
ENDBRANCH   6  11
ENDBRANCH   3   6
ENDBRANCH   1   2
BRANCH   1  14
HETATM   14  C           1     -33.270  -4.009 -16.548  0.00  0.00     0.081 C 
BRANCH  14  15
HETATM   15  C           1     -31.941  -4.508 -17.025  0.00  0.00    -0.056 A 
HETATM   16  C           1     -30.998  -3.611 -17.524  0.00  0.00     0.010 A 
HETATM   17  C           1     -29.761  -4.075 -17.969  0.00  0.00     0.038 A 
HETATM   18  C           1     -29.466  -5.438 -17.915  0.00  0.00     0.081 A 
HETATM   19  C           1     -30.411  -6.336 -17.416  0.00  0.00     0.038 A 
HETATM   20  C           1     -31.648  -5.870 -16.972  0.00  0.00     0.010 A 
BRANCH  18  21
HETATM   21  O           1     -28.265  -5.889 -18.348  0.00  0.00    -0.247 OA
BRANCH  21  22
HETATM   22  P           1     -27.079  -6.050 -17.263  0.00  0.00     0.411 P 
HETATM   23  O           1     -25.809  -6.343 -17.962  0.00  0.00    -0.624 OA
HETATM   24  O           1     -26.941  -4.793 -16.493  0.00  0.00    -0.624 OA
BRANCH  22  25
HETATM   25  O           1     -27.432  -7.262 -16.256  0.00  0.00    -0.300 OA
HETATM   26  H           1     -26.681  -7.337 -15.692  0.00  0.00     0.223 HD
ENDBRANCH  22  25
ENDBRANCH  21  22
ENDBRANCH  18  21
ENDBRANCH  14  15
ENDBRANCH   1  14
BRANCH   1  27
HETATM   27  N           1     -34.940  -5.729 -15.963  0.00  0.00    -0.066 N 
HETATM   28  H           1     -35.632  -5.095 -16.421  0.00  0.00     0.275 HD
HETATM   29  H           1     -34.592  -6.426 -16.659  0.00  0.00     0.275 HD
HETATM   30  H           1     -35.399  -6.230 -15.169  0.00  0.00     0.275 HD
ENDBRANCH   1  27
TORSDOF 11
ENDMDL
MODEL 3
REMARK VINA RESULT:      -7.0      1.680      2.293
REMARK  11 active torsions:
REMARK  status: ('A' for Active; 'I' for Inactive)
REMARK    1  A    between atoms: C_2  and  C_4 
REMARK    2  A    between atoms: C_4  and  C_5 
REMARK    3  A    between atoms: C_5  and  C_6 
REMARK    4  A    between atoms: C_5  and  N_9 
REMARK       I    between atoms: N_9  and  C_10 
REMARK    5  A    between atoms: C_10  and  C_11 
REMARK    6  A    between atoms: C_11  and  C_12 
REMARK    7  A    between atoms: C_11  and  N_24 
REMARK    8  A    between atoms: C_12  and  C_13 
REMARK    9  A    between atoms: C_16  and  O_17 
REMARK   10  A    between atoms: O_17  and  P_18 
REMARK   11  A    between atoms: P_18  and  O_19 
ROOT
HETATM    1  C           1     -20.390  -7.573  -5.302  0.00  0.00     0.278 C 
ENDROOT
BRANCH   1   2
HETATM    2  C           1     -20.125  -8.241  -3.975  0.00  0.00     0.249 C 
HETATM    3  N           1     -21.121  -8.321  -3.038  0.00  0.00    -0.344 N 
HETATM    4  H           1     -22.035  -7.932  -3.235  0.00  0.00     0.163 HD
HETATM    5  O           1     -19.035  -8.703  -3.738  0.00  0.00    -0.271 OA
BRANCH   3   6
HETATM    6  C           1     -20.866  -8.962  -1.763  0.00  0.00     0.195 C 
BRANCH   6   7
HETATM    7  C           1     -21.020  -7.942  -0.641  0.00  0.00     0.149 C 
BRANCH   7   8
HETATM    8  C           1     -22.351  -7.244  -0.776  0.00  0.00     0.175 C 
HETATM    9  O           1     -23.308  -7.575  -0.042  0.00  0.00    -0.648 OA
HETATM   10  O           1     -22.497  -6.334  -1.620  0.00  0.00    -0.648 OA
ENDBRANCH   7   8
ENDBRANCH   6   7
BRANCH   6  11
HETATM   11  C           1     -21.853 -10.085  -1.559  0.00  0.00     0.197 C 
HETATM   12  O           1     -22.646 -10.393  -2.476  0.00  0.00    -0.646 OA
HETATM   13  O           1     -21.878 -10.707  -0.475  0.00  0.00    -0.646 OA
ENDBRANCH   6  11
ENDBRANCH   3   6
ENDBRANCH   1   2
BRANCH   1  14
HETATM   14  C           1     -20.782  -6.120  -5.071  0.00  0.00     0.081 C 
BRANCH  14  15
HETATM   15  C           1     -21.071  -5.465  -6.386  0.00  0.00    -0.056 A 
HETATM   16  C           1     -20.128  -5.514  -7.412  0.00  0.00     0.010 A 
HETATM   17  C           1     -20.397  -4.904  -8.636  0.00  0.00     0.038 A 
HETATM   18  C           1     -21.610  -4.245  -8.836  0.00  0.00     0.081 A 
HETATM   19  C           1     -22.555  -4.197  -7.810  0.00  0.00     0.038 A 
HETATM   20  C           1     -22.285  -4.807  -6.585  0.00  0.00     0.010 A 
BRANCH  18  21
HETATM   21  O           1     -21.872  -3.652 -10.026  0.00  0.00    -0.247 OA
BRANCH  21  22
HETATM   22  P           1     -23.175  -4.139 -10.846  0.00  0.00     0.411 P 
HETATM   23  O           1     -23.696  -5.387 -10.246  0.00  0.00    -0.624 OA
HETATM   24  O           1     -24.217  -3.089 -10.786  0.00  0.00    -0.624 OA
BRANCH  22  25
HETATM   25  O           1     -22.772  -4.410 -12.387  0.00  0.00    -0.300 OA
HETATM   26  H           1     -22.245  -5.189 -12.368  0.00  0.00     0.223 HD
ENDBRANCH  22  25
ENDBRANCH  21  22
ENDBRANCH  18  21
ENDBRANCH  14  15
ENDBRANCH   1  14
BRANCH   1  27
HETATM   27  N           1     -21.507  -8.286  -6.006  0.00  0.00    -0.066 N 
HETATM   28  H           1     -21.162  -9.203  -6.368  0.00  0.00     0.275 HD
HETATM   29  H           1     -22.293  -8.449  -5.336  0.00  0.00     0.275 HD
HETATM   30  H           1     -21.844  -7.701  -6.803  0.00  0.00     0.275 HD
ENDBRANCH   1  27
TORSDOF 11
ENDMDL
MODEL 4
REMARK VINA RESULT:      -6.9     11.800     14.261
REMARK  11 active torsions:
REMARK  status: ('A' for Active; 'I' for Inactive)
REMARK    1  A    between atoms: C_2  and  C_4 
REMARK    2  A    between atoms: C_4  and  C_5 
REMARK    3  A    between atoms: C_5  and  C_6 
REMARK    4  A    between atoms: C_5  and  N_9 
REMARK       I    between atoms: N_9  and  C_10 
REMARK    5  A    between atoms: C_10  and  C_11 
REMARK    6  A    between atoms: C_11  and  C_12 
REMARK    7  A    between atoms: C_11  and  N_24 
REMARK    8  A    between atoms: C_12  and  C_13 
REMARK    9  A    between atoms: C_16  and  O_17 
REMARK   10  A    between atoms: O_17  and  P_18 
REMARK   11  A    between atoms: P_18  and  O_19 
ROOT
HETATM    1  C           1     -32.836  -4.687 -16.909  0.00  0.00     0.278 C 
ENDROOT
BRANCH   1   2
HETATM    2  C           1     -33.685  -4.602 -15.664  0.00  0.00     0.249 C 
HETATM    3  N           1     -33.146  -4.123 -14.501  0.00  0.00    -0.344 N 
HETATM    4  H           1     -32.179  -3.825 -14.474  0.00  0.00     0.163 HD
HETATM    5  O           1     -34.839  -4.957 -15.694  0.00  0.00    -0.271 OA
BRANCH   3   6
HETATM    6  C           1     -33.962  -4.040 -13.304  0.00  0.00     0.195 C 
BRANCH   6   7
HETATM    7  C           1     -33.120  -4.410 -12.089  0.00  0.00     0.149 C 
BRANCH   7   8
HETATM    8  C           1     -33.902  -5.348 -11.203  0.00  0.00     0.175 C 
HETATM    9  O           1     -35.033  -5.017 -10.785  0.00  0.00    -0.648 OA
HETATM   10  O           1     -33.419  -6.457 -10.887  0.00  0.00    -0.648 OA
ENDBRANCH   7   8
ENDBRANCH   6   7
BRANCH   6  11
HETATM   11  C           1     -34.480  -2.632 -13.145  0.00  0.00     0.197 C 
HETATM   12  O           1     -35.074  -2.074 -14.094  0.00  0.00    -0.646 OA
HETATM   13  O           1     -34.317  -2.023 -12.066  0.00  0.00    -0.646 OA
ENDBRANCH   6  11
ENDBRANCH   3   6
ENDBRANCH   1   2
BRANCH   1  14
HETATM   14  C           1     -32.129  -6.036 -16.950  0.00  0.00     0.081 C 
BRANCH  14  15
HETATM   15  C           1     -30.650  -5.828 -16.849  0.00  0.00    -0.056 A 
HETATM   16  C           1     -29.858  -5.879 -17.995  0.00  0.00     0.010 A 
HETATM   17  C           1     -28.480  -5.686 -17.901  0.00  0.00     0.038 A 
HETATM   18  C           1     -27.894  -5.439 -16.660  0.00  0.00     0.081 A 
HETATM   19  C           1     -28.686  -5.387 -15.512  0.00  0.00     0.038 A 
HETATM   20  C           1     -30.064  -5.582 -15.607  0.00  0.00     0.010 A 
BRANCH  18  21
HETATM   21  O           1     -26.555  -5.251 -16.568  0.00  0.00    -0.247 OA
BRANCH  21  22
HETATM   22  P           1     -25.656  -6.467 -15.999  0.00  0.00     0.411 P 
HETATM   23  O           1     -26.539  -7.577 -15.579  0.00  0.00    -0.624 OA
HETATM   24  O           1     -24.737  -6.939 -17.059  0.00  0.00    -0.624 OA
BRANCH  22  25
HETATM   25  O           1     -24.796  -5.954 -14.731  0.00  0.00    -0.300 OA
HETATM   26  H           1     -25.410  -5.482 -14.195  0.00  0.00     0.223 HD
ENDBRANCH  22  25
ENDBRANCH  21  22
ENDBRANCH  18  21
ENDBRANCH  14  15
ENDBRANCH   1  14
BRANCH   1  27
HETATM   27  N           1     -31.815  -3.589 -16.895  0.00  0.00    -0.066 N 
HETATM   28  H           1     -32.085  -2.852 -17.585  0.00  0.00     0.275 HD
HETATM   29  H           1     -31.768  -3.169 -15.939  0.00  0.00     0.275 HD
HETATM   30  H           1     -30.880  -3.979 -17.150  0.00  0.00     0.275 HD
ENDBRANCH   1  27
TORSDOF 11
ENDMDL
MODEL 5
REMARK VINA RESULT:      -6.3     12.084     16.017
REMARK  11 active torsions:
REMARK  status: ('A' for Active; 'I' for Inactive)
REMARK    1  A    between atoms: C_2  and  C_4 
REMARK    2  A    between atoms: C_4  and  C_5 
REMARK    3  A    between atoms: C_5  and  C_6 
REMARK    4  A    between atoms: C_5  and  N_9 
REMARK       I    between atoms: N_9  and  C_10 
REMARK    5  A    between atoms: C_10  and  C_11 
REMARK    6  A    between atoms: C_11  and  C_12 
REMARK    7  A    between atoms: C_11  and  N_24 
REMARK    8  A    between atoms: C_12  and  C_13 
REMARK    9  A    between atoms: C_16  and  O_17 
REMARK   10  A    between atoms: O_17  and  P_18 
REMARK   11  A    between atoms: P_18  and  O_19 
ROOT
HETATM    1  C           1     -32.844  -3.901 -17.331  0.00  0.00     0.278 C 
ENDROOT
BRANCH   1   2
HETATM    2  C           1     -33.862  -3.376 -16.349  0.00  0.00     0.249 C 
HETATM    3  N           1     -34.468  -2.169 -16.572  0.00  0.00    -0.344 N 
HETATM    4  H           1     -34.233  -1.628 -17.395  0.00  0.00     0.163 HD
HETATM    5  O           1     -34.142  -4.020 -15.367  0.00  0.00    -0.271 OA
BRANCH   3   6
HETATM    6  C           1     -35.447  -1.664 -15.629  0.00  0.00     0.195 C 
BRANCH   6   7
HETATM    7  C           1     -34.822  -0.553 -14.795  0.00  0.00     0.149 C 
BRANCH   7   8
HETATM    8  C           1     -35.147  -0.774 -13.338  0.00  0.00     0.175 C 
HETATM    9  O           1     -34.809   0.077 -12.486  0.00  0.00    -0.648 OA
HETATM   10  O           1     -35.754  -1.806 -12.982  0.00  0.00    -0.648 OA
ENDBRANCH   7   8
ENDBRANCH   6   7
BRANCH   6  11
HETATM   11  C           1     -36.636  -1.119 -16.381  0.00  0.00     0.197 C 
HETATM   12  O           1     -37.753  -1.056 -15.823  0.00  0.00    -0.646 OA
HETATM   13  O           1     -36.504  -0.731 -17.562  0.00  0.00    -0.646 OA
ENDBRANCH   6  11
ENDBRANCH   3   6
ENDBRANCH   1   2
BRANCH   1  14
HETATM   14  C           1     -32.354  -5.269 -16.873  0.00  0.00     0.081 C 
BRANCH  14  15
HETATM   15  C           1     -30.858  -5.272 -16.821  0.00  0.00    -0.056 A 
HETATM   16  C           1     -30.202  -5.141 -15.597  0.00  0.00     0.010 A 
HETATM   17  C           1     -28.808  -5.143 -15.549  0.00  0.00     0.038 A 
HETATM   18  C           1     -28.070  -5.277 -16.724  0.00  0.00     0.081 A 
HETATM   19  C           1     -28.725  -5.408 -17.949  0.00  0.00     0.038 A 
HETATM   20  C           1     -30.120  -5.405 -17.997  0.00  0.00     0.010 A 
BRANCH  18  21
HETATM   21  O           1     -26.715  -5.278 -16.677  0.00  0.00    -0.247 OA
BRANCH  21  22
HETATM   22  P           1     -25.981  -6.552 -16.009  0.00  0.00     0.411 P 
HETATM   23  O           1     -25.131  -6.097 -14.887  0.00  0.00    -0.624 OA
HETATM   24  O           1     -27.000  -7.501 -15.504  0.00  0.00    -0.624 OA
BRANCH  22  25
HETATM   25  O           1     -25.064  -7.288 -17.116  0.00  0.00    -0.300 OA
HETATM   26  H           1     -24.427  -7.774 -16.621  0.00  0.00     0.223 HD
ENDBRANCH  22  25
ENDBRANCH  21  22
ENDBRANCH  18  21
ENDBRANCH  14  15
ENDBRANCH   1  14
BRANCH   1  27
HETATM   27  N           1     -31.683  -2.953 -17.402  0.00  0.00    -0.066 N 
HETATM   28  H           1     -31.536  -2.656 -18.393  0.00  0.00     0.275 HD
HETATM   29  H           1     -31.882  -2.114 -16.813  0.00  0.00     0.275 HD
HETATM   30  H           1     -30.823  -3.430 -17.050  0.00  0.00     0.275 HD
ENDBRANCH   1  27
TORSDOF 11
ENDMDL
MODEL 6
REMARK VINA RESULT:      -6.3      1.801      2.975
REMARK  11 active torsions:
REMARK  status: ('A' for Active; 'I' for Inactive)
REMARK    1  A    between atoms: C_2  and  C_4 
REMARK    2  A    between atoms: C_4  and  C_5 
REMARK    3  A    between atoms: C_5  and  C_6 
REMARK    4  A    between atoms: C_5  and  N_9 
REMARK       I    between atoms: N_9  and  C_10 
REMARK    5  A    between atoms: C_10  and  C_11 
REMARK    6  A    between atoms: C_11  and  C_12 
REMARK    7  A    between atoms: C_11  and  N_24 
REMARK    8  A    between atoms: C_12  and  C_13 
REMARK    9  A    between atoms: C_16  and  O_17 
REMARK   10  A    between atoms: O_17  and  P_18 
REMARK   11  A    between atoms: P_18  and  O_19 
ROOT
HETATM    1  C           1     -20.652  -7.479  -4.887  0.00  0.00     0.278 C 
ENDROOT
BRANCH   1   2
HETATM    2  C           1     -21.308  -8.196  -3.733  0.00  0.00     0.249 C 
HETATM    3  N           1     -21.021  -7.828  -2.446  0.00  0.00    -0.344 N 
HETATM    4  H           1     -20.369  -7.074  -2.268  0.00  0.00     0.163 HD
HETATM    5  O           1     -22.084  -9.097  -3.944  0.00  0.00    -0.271 OA
BRANCH   3   6
HETATM    6  C           1     -21.650  -8.518  -1.337  0.00  0.00     0.195 C 
BRANCH   6   7
HETATM    7  C           1     -20.577  -9.077  -0.411  0.00  0.00     0.149 C 
BRANCH   7   8
HETATM    8  C           1     -20.415 -10.556  -0.665  0.00  0.00     0.175 C 
HETATM    9  O           1     -20.944 -11.080  -1.669  0.00  0.00    -0.648 OA
HETATM   10  O           1     -19.752 -11.257   0.129  0.00  0.00    -0.648 OA
ENDBRANCH   7   8
ENDBRANCH   6   7
BRANCH   6  11
HETATM   11  C           1     -22.518  -7.550  -0.571  0.00  0.00     0.197 C 
HETATM   12  O           1     -23.154  -7.941   0.433  0.00  0.00    -0.646 OA
HETATM   13  O           1     -22.601  -6.358  -0.938  0.00  0.00    -0.646 OA
ENDBRANCH   6  11
ENDBRANCH   3   6
ENDBRANCH   1   2
BRANCH   1  14
HETATM   14  C           1     -20.950  -5.988  -4.794  0.00  0.00     0.081 C 
BRANCH  14  15
HETATM   15  C           1     -21.041  -5.410  -6.172  0.00  0.00    -0.056 A 
HETATM   16  C           1     -19.948  -5.484  -7.034  0.00  0.00     0.010 A 
HETATM   17  C           1     -20.033  -4.945  -8.317  0.00  0.00     0.038 A 
HETATM   18  C           1     -21.213  -4.333  -8.740  0.00  0.00     0.081 A 
HETATM   19  C           1     -22.308  -4.259  -7.877  0.00  0.00     0.038 A 
HETATM   20  C           1     -22.222  -4.798  -6.593  0.00  0.00     0.010 A 
BRANCH  18  21
HETATM   21  O           1     -21.296  -3.809  -9.987  0.00  0.00    -0.247 OA
BRANCH  21  22
HETATM   22  P           1     -22.636  -4.096 -10.842  0.00  0.00     0.411 P 
HETATM   23  O           1     -23.314  -5.297 -10.306  0.00  0.00    -0.624 OA
HETATM   24  O           1     -23.543  -2.931 -10.746  0.00  0.00    -0.624 OA
BRANCH  22  25
HETATM   25  O           1     -22.244  -4.346 -12.389  0.00  0.00    -0.300 OA
HETATM   26  H           1     -22.891  -4.949 -12.711  0.00  0.00     0.223 HD
ENDBRANCH  22  25
ENDBRANCH  21  22
ENDBRANCH  18  21
ENDBRANCH  14  15
ENDBRANCH   1  14
BRANCH   1  27
HETATM   27  N           1     -21.190  -8.016  -6.180  0.00  0.00    -0.066 N 
HETATM   28  H           1     -21.010  -7.328  -6.945  0.00  0.00     0.275 HD
HETATM   29  H           1     -20.716  -8.920  -6.406  0.00  0.00     0.275 HD
HETATM   30  H           1     -22.219  -8.175  -6.089  0.00  0.00     0.275 HD
ENDBRANCH   1  27
TORSDOF 11
ENDMDL
MODEL 7
REMARK VINA RESULT:      -6.2      1.856      2.253
REMARK  11 active torsions:
REMARK  status: ('A' for Active; 'I' for Inactive)
REMARK    1  A    between atoms: C_2  and  C_4 
REMARK    2  A    between atoms: C_4  and  C_5 
REMARK    3  A    between atoms: C_5  and  C_6 
REMARK    4  A    between atoms: C_5  and  N_9 
REMARK       I    between atoms: N_9  and  C_10 
REMARK    5  A    between atoms: C_10  and  C_11 
REMARK    6  A    between atoms: C_11  and  C_12 
REMARK    7  A    between atoms: C_11  and  N_24 
REMARK    8  A    between atoms: C_12  and  C_13 
REMARK    9  A    between atoms: C_16  and  O_17 
REMARK   10  A    between atoms: O_17  and  P_18 
REMARK   11  A    between atoms: P_18  and  O_19 
ROOT
HETATM    1  C           1     -20.416  -7.124  -5.461  0.00  0.00     0.278 C 
ENDROOT
BRANCH   1   2
HETATM    2  C           1     -20.328  -7.732  -4.083  0.00  0.00     0.249 C 
HETATM    3  N           1     -19.626  -8.891  -3.890  0.00  0.00    -0.344 N 
HETATM    4  H           1     -19.165  -9.341  -4.672  0.00  0.00     0.163 HD
HETATM    5  O           1     -20.878  -7.197  -3.150  0.00  0.00    -0.271 OA
BRANCH   3   6
HETATM    6  C           1     -19.541  -9.476  -2.565  0.00  0.00     0.195 C 
BRANCH   6   7
HETATM    7  C           1     -20.594 -10.567  -2.423  0.00  0.00     0.149 C 
BRANCH   7   8
HETATM    8  C           1     -21.443 -10.291  -1.207  0.00  0.00     0.175 C 
HETATM    9  O           1     -21.168 -10.836  -0.115  0.00  0.00    -0.648 OA
HETATM   10  O           1     -22.422  -9.518  -1.290  0.00  0.00    -0.648 OA
ENDBRANCH   7   8
ENDBRANCH   6   7
BRANCH   6  11
HETATM   11  C           1     -18.169 -10.073  -2.367  0.00  0.00     0.197 C 
HETATM   12  O           1     -18.031 -11.103  -1.671  0.00  0.00    -0.646 OA
HETATM   13  O           1     -17.172  -9.539  -2.898  0.00  0.00    -0.646 OA
ENDBRANCH   6  11
ENDBRANCH   3   6
ENDBRANCH   1   2
BRANCH   1  14
HETATM   14  C           1     -20.784  -5.651  -5.344  0.00  0.00     0.081 C 
BRANCH  14  15
HETATM   15  C           1     -21.201  -5.133  -6.686  0.00  0.00    -0.056 A 
HETATM   16  C           1     -20.307  -5.166  -7.755  0.00  0.00     0.010 A 
HETATM   17  C           1     -20.696  -4.683  -9.004  0.00  0.00     0.038 A 
HETATM   18  C           1     -21.979  -4.167  -9.185  0.00  0.00     0.081 A 
HETATM   19  C           1     -22.873  -4.133  -8.114  0.00  0.00     0.038 A 
HETATM   20  C           1     -22.484  -4.616  -6.865  0.00  0.00     0.010 A 
BRANCH  18  21
HETATM   21  O           1     -22.356  -3.696 -10.398  0.00  0.00    -0.247 OA
BRANCH  21  22
HETATM   22  P           1     -23.688  -4.315 -11.070  0.00  0.00     0.411 P 
HETATM   23  O           1     -24.068  -5.555 -10.359  0.00  0.00    -0.624 OA
HETATM   24  O           1     -24.791  -3.332 -10.974  0.00  0.00    -0.624 OA
BRANCH  22  25
HETATM   25  O           1     -23.401  -4.651 -12.624  0.00  0.00    -0.300 OA
HETATM   26  H           1     -22.468  -4.573 -12.723  0.00  0.00     0.223 HD
ENDBRANCH  22  25
ENDBRANCH  21  22
ENDBRANCH  18  21
ENDBRANCH  14  15
ENDBRANCH   1  14
BRANCH   1  27
HETATM   27  N           1     -21.467  -7.840  -6.256  0.00  0.00    -0.066 N 
HETATM   28  H           1     -22.092  -8.372  -5.610  0.00  0.00     0.275 HD
HETATM   29  H           1     -22.033  -7.144  -6.793  0.00  0.00     0.275 HD
HETATM   30  H           1     -21.009  -8.503  -6.921  0.00  0.00     0.275 HD
ENDBRANCH   1  27
TORSDOF 11
ENDMDL
MODEL 8
REMARK VINA RESULT:      -6.0      3.368      4.932
REMARK  11 active torsions:
REMARK  status: ('A' for Active; 'I' for Inactive)
REMARK    1  A    between atoms: C_2  and  C_4 
REMARK    2  A    between atoms: C_4  and  C_5 
REMARK    3  A    between atoms: C_5  and  C_6 
REMARK    4  A    between atoms: C_5  and  N_9 
REMARK       I    between atoms: N_9  and  C_10 
REMARK    5  A    between atoms: C_10  and  C_11 
REMARK    6  A    between atoms: C_11  and  C_12 
REMARK    7  A    between atoms: C_11  and  N_24 
REMARK    8  A    between atoms: C_12  and  C_13 
REMARK    9  A    between atoms: C_16  and  O_17 
REMARK   10  A    between atoms: O_17  and  P_18 
REMARK   11  A    between atoms: P_18  and  O_19 
ROOT
HETATM    1  C           1     -19.989 -10.140  -2.878  0.00  0.00     0.278 C 
ENDROOT
BRANCH   1   2
HETATM    2  C           1     -20.670 -10.384  -1.553  0.00  0.00     0.249 C 
HETATM    3  N           1     -21.991 -10.065  -1.394  0.00  0.00    -0.344 N 
HETATM    4  H           1     -22.513  -9.666  -2.164  0.00  0.00     0.163 HD
HETATM    5  O           1     -20.048 -10.859  -0.633  0.00  0.00    -0.271 OA
BRANCH   3   6
HETATM    6  C           1     -22.645 -10.300  -0.121  0.00  0.00     0.195 C 
BRANCH   6   7
HETATM    7  C           1     -23.433  -9.059   0.281  0.00  0.00     0.149 C 
BRANCH   7   8
HETATM    8  C           1     -22.550  -7.842   0.163  0.00  0.00     0.175 C 
HETATM    9  O           1     -21.538  -7.730   0.890  0.00  0.00    -0.648 OA
HETATM   10  O           1     -22.829  -6.945  -0.661  0.00  0.00    -0.648 OA
ENDBRANCH   7   8
ENDBRANCH   6   7
BRANCH   6  11
HETATM   11  C           1     -23.586 -11.473  -0.247  0.00  0.00     0.197 C 
HETATM   12  O           1     -23.581 -12.373   0.621  0.00  0.00    -0.646 OA
HETATM   13  O           1     -24.370 -11.544  -1.217  0.00  0.00    -0.646 OA
ENDBRANCH   6  11
ENDBRANCH   3   6
ENDBRANCH   1   2
BRANCH   1  14
HETATM   14  C           1     -21.040  -9.864  -3.946  0.00  0.00     0.081 C 
BRANCH  14  15
HETATM   15  C           1     -20.889  -8.460  -4.442  0.00  0.00    -0.056 A 
HETATM   16  C           1     -21.731  -7.457  -3.964  0.00  0.00     0.010 A 
HETATM   17  C           1     -21.591  -6.149  -4.428  0.00  0.00     0.038 A 
HETATM   18  C           1     -20.608  -5.844  -5.369  0.00  0.00     0.081 A 
HETATM   19  C           1     -19.766  -6.848  -5.848  0.00  0.00     0.038 A 
HETATM   20  C           1     -19.907  -8.156  -5.384  0.00  0.00     0.010 A 
BRANCH  18  21
HETATM   21  O           1     -20.472  -4.573  -5.820  0.00  0.00    -0.247 OA
BRANCH  21  22
HETATM   22  P           1     -20.902  -4.260  -7.345  0.00  0.00     0.411 P 
HETATM   23  O           1     -19.691  -3.989  -8.151  0.00  0.00    -0.624 OA
HETATM   24  O           1     -21.619  -5.427  -7.906  0.00  0.00    -0.624 OA
BRANCH  22  25
HETATM   25  O           1     -21.871  -2.968  -7.377  0.00  0.00    -0.300 OA
HETATM   26  H           1     -21.402  -2.299  -6.909  0.00  0.00     0.223 HD
ENDBRANCH  22  25
ENDBRANCH  21  22
ENDBRANCH  18  21
ENDBRANCH  14  15
ENDBRANCH   1  14
BRANCH   1  27
HETATM   27  N           1     -19.193 -11.352  -3.262  0.00  0.00    -0.066 N 
HETATM   28  H           1     -18.174 -11.150  -3.152  0.00  0.00     0.275 HD
HETATM   29  H           1     -19.458 -12.153  -2.644  0.00  0.00     0.275 HD
HETATM   30  H           1     -19.395 -11.600  -4.257  0.00  0.00     0.275 HD
ENDBRANCH   1  27
TORSDOF 11
ENDMDL
MODEL 9
REMARK VINA RESULT:      -6.0      1.913      2.603
REMARK  11 active torsions:
REMARK  status: ('A' for Active; 'I' for Inactive)
REMARK    1  A    between atoms: C_2  and  C_4 
REMARK    2  A    between atoms: C_4  and  C_5 
REMARK    3  A    between atoms: C_5  and  C_6 
REMARK    4  A    between atoms: C_5  and  N_9 
REMARK       I    between atoms: N_9  and  C_10 
REMARK    5  A    between atoms: C_10  and  C_11 
REMARK    6  A    between atoms: C_11  and  C_12 
REMARK    7  A    between atoms: C_11  and  N_24 
REMARK    8  A    between atoms: C_12  and  C_13 
REMARK    9  A    between atoms: C_16  and  O_17 
REMARK   10  A    between atoms: O_17  and  P_18 
REMARK   11  A    between atoms: P_18  and  O_19 
ROOT
HETATM    1  C           1     -20.019  -8.392  -5.140  0.00  0.00     0.278 C 
ENDROOT
BRANCH   1   2
HETATM    2  C           1     -19.396  -9.138  -3.985  0.00  0.00     0.249 C 
HETATM    3  N           1     -20.193  -9.709  -3.030  0.00  0.00    -0.344 N 
HETATM    4  H           1     -21.200  -9.632  -3.098  0.00  0.00     0.163 HD
HETATM    5  O           1     -18.194  -9.229  -3.903  0.00  0.00    -0.271 OA
BRANCH   3   6
HETATM    6  C           1     -19.594 -10.426  -1.921  0.00  0.00     0.195 C 
BRANCH   6   7
HETATM    7  C           1     -20.437 -10.219  -0.668  0.00  0.00     0.149 C 
BRANCH   7   8
HETATM    8  C           1     -21.482  -9.164  -0.934  0.00  0.00     0.175 C 
HETATM    9  O           1     -21.160  -7.955  -0.951  0.00  0.00    -0.648 OA
HETATM   10  O           1     -22.669  -9.496  -1.138  0.00  0.00    -0.648 OA
ENDBRANCH   7   8
ENDBRANCH   6   7
BRANCH   6  11
HETATM   11  C           1     -19.534 -11.898  -2.247  0.00  0.00     0.197 C 
HETATM   12  O           1     -18.427 -12.456  -2.413  0.00  0.00    -0.646 OA
HETATM   13  O           1     -20.589 -12.560  -2.350  0.00  0.00    -0.646 OA
ENDBRANCH   6  11
ENDBRANCH   3   6
ENDBRANCH   1   2
BRANCH   1  14
HETATM   14  C           1     -20.587  -7.069  -4.643  0.00  0.00     0.081 C 
BRANCH  14  15
HETATM   15  C           1     -20.906  -6.192  -5.814  0.00  0.00    -0.056 A 
HETATM   16  C           1     -19.940  -5.952  -6.790  0.00  0.00     0.010 A 
HETATM   17  C           1     -20.238  -5.134  -7.880  0.00  0.00     0.038 A 
HETATM   18  C           1     -21.503  -4.558  -7.995  0.00  0.00     0.081 A 
HETATM   19  C           1     -22.470  -4.799  -7.018  0.00  0.00     0.038 A 
HETATM   20  C           1     -22.172  -5.616  -5.928  0.00  0.00     0.010 A 
BRANCH  18  21
HETATM   21  O           1     -21.792  -3.764  -9.054  0.00  0.00    -0.247 OA
BRANCH  21  22
HETATM   22  P           1     -23.241  -3.923  -9.748  0.00  0.00     0.411 P 
HETATM   23  O           1     -23.319  -3.042 -10.934  0.00  0.00    -0.624 OA
HETATM   24  O           1     -23.438  -5.330 -10.163  0.00  0.00    -0.624 OA
BRANCH  22  25
HETATM   25  O           1     -24.392  -3.508  -8.693  0.00  0.00    -0.300 OA
HETATM   26  H           1     -23.936  -3.344  -7.886  0.00  0.00     0.223 HD
ENDBRANCH  22  25
ENDBRANCH  21  22
ENDBRANCH  18  21
ENDBRANCH  14  15
ENDBRANCH   1  14
BRANCH   1  27
HETATM   27  N           1     -21.122  -9.219  -5.732  0.00  0.00    -0.066 N 
HETATM   28  H           1     -20.773 -10.187  -5.914  0.00  0.00     0.275 HD
HETATM   29  H           1     -21.925  -9.258  -5.065  0.00  0.00     0.275 HD
HETATM   30  H           1     -21.436  -8.787  -6.630  0.00  0.00     0.275 HD
ENDBRANCH   1  27
TORSDOF 11
ENDMDL
