MODEL 1
REMARK VINA RESULT:      -6.3      0.000      0.000
REMARK  7 active torsions:
REMARK  status: ('A' for Active; 'I' for Inactive)
REMARK    1  A    between atoms: C_4  and  C_15 
REMARK    2  A    between atoms: N_7  and  C_20 
REMARK       I    between atoms: C_9  and  N_19 
REMARK    3  A    between atoms: C_9  and  C_20 
REMARK    4  A    between atoms: C_13  and  C_15 
REMARK    5  A    between atoms: C_15  and  N_19 
REMARK    6  A    between atoms: C_17  and  C_20 
REMARK    7  A    between atoms: C_17  and  C_18 
ROOT
HETATM    1  H           1     -22.339  -5.683  -9.272  0.00  0.00     0.163 HD
HETATM    2  O           1     -21.567  -3.388  -7.278  0.00  0.00    -0.271 OA
HETATM    3  C           1     -21.681  -4.517  -7.694  0.00  0.00     0.249 C 
HETATM    4  N           1     -22.243  -4.739  -8.923  0.00  0.00    -0.344 N 
ENDROOT
BRANCH   3   5
HETATM    5  C           1     -21.204  -5.681  -6.861  0.00  0.00     0.284 C 
BRANCH   5   6
HETATM    6  N           1     -19.964  -6.260  -7.476  0.00  0.00    -0.066 N 
HETATM    7  H           1     -19.746  -7.176  -7.022  0.00  0.00     0.275 HD
HETATM    8  H           1     -19.165  -5.602  -7.335  0.00  0.00     0.275 HD
HETATM    9  H           1     -20.119  -6.406  -8.499  0.00  0.00     0.275 HD
ENDBRANCH   5   6
BRANCH   5  10
HETATM   10  C           1     -20.893  -5.202  -5.449  0.00  0.00     0.155 C 
BRANCH  10  11
HETATM   11  C           1     -21.225  -6.293  -4.462  0.00  0.00     0.175 C 
HETATM   12  O           1     -20.751  -7.439  -4.614  0.00  0.00    -0.648 OA
HETATM   13  O           1     -21.977  -6.051  -3.492  0.00  0.00    -0.648 OA
ENDBRANCH  10  11
ENDBRANCH   5  10
ENDBRANCH   3   5
BRANCH   4  14
HETATM   14  C           1     -22.701  -3.620  -9.724  0.00  0.00     0.189 C 
BRANCH  14  15
HETATM   15  C           1     -24.158  -3.812 -10.067  0.00  0.00     0.197 C 
HETATM   16  O           1     -24.741  -4.870  -9.747  0.00  0.00    -0.646 OA
HETATM   17  O           1     -24.782  -2.913 -10.671  0.00  0.00    -0.646 OA
ENDBRANCH  14  15
BRANCH  14  18
HETATM   18  C           1     -21.882  -3.545 -11.006  0.00  0.00     0.010 C 
HETATM   19  C           1     -20.399  -3.603 -10.664  0.00  0.00     0.012 C 
HETATM   20  C           1     -22.243  -4.719 -11.907  0.00  0.00     0.012 C 
ENDBRANCH  14  18
ENDBRANCH   4  14
TORSDOF 7
ENDMDL
MODEL 2
REMARK VINA RESULT:      -5.7      1.805      5.428
REMARK  7 active torsions:
REMARK  status: ('A' for Active; 'I' for Inactive)
REMARK    1  A    between atoms: C_4  and  C_15 
REMARK    2  A    between atoms: N_7  and  C_20 
REMARK       I    between atoms: C_9  and  N_19 
REMARK    3  A    between atoms: C_9  and  C_20 
REMARK    4  A    between atoms: C_13  and  C_15 
REMARK    5  A    between atoms: C_15  and  N_19 
REMARK    6  A    between atoms: C_17  and  C_20 
REMARK    7  A    between atoms: C_17  and  C_18 
ROOT
HETATM    1  H           1     -22.452  -4.281  -8.280  0.00  0.00     0.163 HD
HETATM    2  O           1     -20.046  -4.879 -10.202  0.00  0.00    -0.271 OA
HETATM    3  C           1     -21.125  -4.457  -9.858  0.00  0.00     0.249 C 
HETATM    4  N           1     -21.549  -4.634  -8.568  0.00  0.00    -0.344 N 
ENDROOT
BRANCH   3   5
HETATM    5  C           1     -22.005  -3.736 -10.850  0.00  0.00     0.284 C 
BRANCH   5   6
HETATM    6  N           1     -22.574  -4.725 -11.824  0.00  0.00    -0.066 N 
HETATM    7  H           1     -22.257  -4.483 -12.790  0.00  0.00     0.275 HD
HETATM    8  H           1     -23.618  -4.694 -11.782  0.00  0.00     0.275 HD
HETATM    9  H           1     -22.243  -5.685 -11.578  0.00  0.00     0.275 HD
ENDBRANCH   5   6
BRANCH   5  10
HETATM   10  C           1     -23.141  -3.041 -10.110  0.00  0.00     0.155 C 
BRANCH  10  11
HETATM   11  C           1     -24.440  -3.749 -10.404  0.00  0.00     0.175 C 
HETATM   12  O           1     -25.256  -3.250 -11.209  0.00  0.00    -0.648 OA
HETATM   13  O           1     -24.702  -4.834  -9.841  0.00  0.00    -0.648 OA
ENDBRANCH  10  11
ENDBRANCH   5  10
ENDBRANCH   3   5
BRANCH   4  14
HETATM   14  C           1     -20.704  -5.327  -7.616  0.00  0.00     0.189 C 
BRANCH  14  15
HETATM   15  C           1     -21.567  -6.108  -6.654  0.00  0.00     0.197 C 
HETATM   16  O           1     -22.543  -5.556  -6.102  0.00  0.00    -0.646 OA
HETATM   17  O           1     -21.306  -7.305  -6.410  0.00  0.00    -0.646 OA
ENDBRANCH  14  15
BRANCH  14  18
HETATM   18  C           1     -19.872  -4.313  -6.843  0.00  0.00     0.010 C 
HETATM   19  C           1     -19.935  -4.632  -5.356  0.00  0.00     0.012 C 
HETATM   20  C           1     -18.425  -4.378  -7.317  0.00  0.00     0.012 C 
ENDBRANCH  14  18
ENDBRANCH   4  14
TORSDOF 7
ENDMDL
MODEL 3
REMARK VINA RESULT:      -5.6     13.375     15.243
REMARK  7 active torsions:
REMARK  status: ('A' for Active; 'I' for Inactive)
REMARK    1  A    between atoms: C_4  and  C_15 
REMARK    2  A    between atoms: N_7  and  C_20 
REMARK       I    between atoms: C_9  and  N_19 
REMARK    3  A    between atoms: C_9  and  C_20 
REMARK    4  A    between atoms: C_13  and  C_15 
REMARK    5  A    between atoms: C_15  and  N_19 
REMARK    6  A    between atoms: C_17  and  C_20 
REMARK    7  A    between atoms: C_17  and  C_18 
ROOT
HETATM    1  H           1     -36.763  -1.998 -11.135  0.00  0.00     0.163 HD
HETATM    2  O           1     -35.776   0.980 -11.147  0.00  0.00    -0.271 OA
HETATM    3  C           1     -36.475   0.034 -10.869  0.00  0.00     0.249 C 
HETATM    4  N           1     -36.178  -1.206 -11.368  0.00  0.00    -0.344 N 
ENDROOT
BRANCH   3   5
HETATM    5  C           1     -37.674   0.220  -9.972  0.00  0.00     0.284 C 
BRANCH   5   6
HETATM    6  N           1     -37.799  -0.962  -9.055  0.00  0.00    -0.066 N 
HETATM    7  H           1     -38.402  -1.687  -9.504  0.00  0.00     0.275 HD
HETATM    8  H           1     -38.231  -0.659  -8.153  0.00  0.00     0.275 HD
HETATM    9  H           1     -36.851  -1.361  -8.871  0.00  0.00     0.275 HD
ENDBRANCH   5   6
BRANCH   5  10
HETATM   10  C           1     -37.499   1.487  -9.145  0.00  0.00     0.155 C 
BRANCH  10  11
HETATM   11  C           1     -36.902   1.135  -7.805  0.00  0.00     0.175 C 
HETATM   12  O           1     -37.549   1.348  -6.756  0.00  0.00    -0.648 OA
HETATM   13  O           1     -35.760   0.631  -7.742  0.00  0.00    -0.648 OA
ENDBRANCH  10  11
ENDBRANCH   5  10
ENDBRANCH   3   5
BRANCH   4  14
HETATM   14  C           1     -35.026  -1.384 -12.230  0.00  0.00     0.189 C 
BRANCH  14  15
HETATM   15  C           1     -35.483  -1.477 -13.665  0.00  0.00     0.197 C 
HETATM   16  O           1     -36.484  -0.832 -14.045  0.00  0.00    -0.646 OA
HETATM   17  O           1     -34.860  -2.198 -14.474  0.00  0.00    -0.646 OA
ENDBRANCH  14  15
BRANCH  14  18
HETATM   18  C           1     -34.298  -2.665 -11.844  0.00  0.00     0.010 C 
HETATM   19  C           1     -33.205  -2.342 -10.834  0.00  0.00     0.012 C 
HETATM   20  C           1     -35.288  -3.645 -11.228  0.00  0.00     0.012 C 
ENDBRANCH  14  18
ENDBRANCH   4  14
TORSDOF 7
ENDMDL
MODEL 4
REMARK VINA RESULT:      -5.5      4.194      8.115
REMARK  7 active torsions:
REMARK  status: ('A' for Active; 'I' for Inactive)
REMARK    1  A    between atoms: C_4  and  C_15 
REMARK    2  A    between atoms: N_7  and  C_20 
REMARK       I    between atoms: C_9  and  N_19 
REMARK    3  A    between atoms: C_9  and  C_20 
REMARK    4  A    between atoms: C_13  and  C_15 
REMARK    5  A    between atoms: C_15  and  N_19 
REMARK    6  A    between atoms: C_17  and  C_20 
REMARK    7  A    between atoms: C_17  and  C_18 
ROOT
HETATM    1  H           1     -22.325  -7.987  -3.230  0.00  0.00     0.163 HD
HETATM    2  O           1     -19.336  -8.916  -3.025  0.00  0.00    -0.271 OA
HETATM    3  C           1     -20.318  -8.409  -3.512  0.00  0.00     0.249 C 
HETATM    4  N           1     -21.502  -8.411  -2.823  0.00  0.00    -0.344 N 
ENDROOT
BRANCH   3   5
HETATM    5  C           1     -20.242  -7.773  -4.878  0.00  0.00     0.284 C 
BRANCH   5   6
HETATM    6  N           1     -21.213  -8.451  -5.800  0.00  0.00    -0.066 N 
HETATM    7  H           1     -21.236  -7.946  -6.714  0.00  0.00     0.275 HD
HETATM    8  H           1     -22.166  -8.440  -5.371  0.00  0.00     0.275 HD
HETATM    9  H           1     -20.911  -9.440  -5.955  0.00  0.00     0.275 HD
ENDBRANCH   5   6
BRANCH   5  10
HETATM   10  C           1     -20.593  -6.295  -4.771  0.00  0.00     0.155 C 
BRANCH  10  11
HETATM   11  C           1     -21.907  -6.037  -5.468  0.00  0.00     0.175 C 
HETATM   12  O           1     -22.983  -6.308  -4.893  0.00  0.00    -0.648 OA
HETATM   13  O           1     -21.919  -5.554  -6.621  0.00  0.00    -0.648 OA
ENDBRANCH  10  11
ENDBRANCH   5  10
ENDBRANCH   3   5
BRANCH   4  14
HETATM   14  C           1     -21.575  -9.022  -1.510  0.00  0.00     0.189 C 
BRANCH  14  15
HETATM   15  C           1     -22.307 -10.339  -1.610  0.00  0.00     0.197 C 
HETATM   16  O           1     -21.775 -11.306  -2.198  0.00  0.00    -0.646 OA
HETATM   17  O           1     -23.443 -10.463  -1.104  0.00  0.00    -0.646 OA
ENDBRANCH  14  15
BRANCH  14  18
HETATM   18  C           1     -22.324  -8.096  -0.561  0.00  0.00     0.010 C 
HETATM   19  C           1     -21.635  -8.099   0.798  0.00  0.00     0.012 C 
HETATM   20  C           1     -22.324  -6.682  -1.128  0.00  0.00     0.012 C 
ENDBRANCH  14  18
ENDBRANCH   4  14
TORSDOF 7
ENDMDL
MODEL 5
REMARK VINA RESULT:      -5.5      2.223      6.605
REMARK  7 active torsions:
REMARK  status: ('A' for Active; 'I' for Inactive)
REMARK    1  A    between atoms: C_4  and  C_15 
REMARK    2  A    between atoms: N_7  and  C_20 
REMARK       I    between atoms: C_9  and  N_19 
REMARK    3  A    between atoms: C_9  and  C_20 
REMARK    4  A    between atoms: C_13  and  C_15 
REMARK    5  A    between atoms: C_15  and  N_19 
REMARK    6  A    between atoms: C_17  and  C_20 
REMARK    7  A    between atoms: C_17  and  C_18 
ROOT
HETATM    1  H           1     -19.756  -6.830  -4.694  0.00  0.00     0.163 HD
HETATM    2  O           1     -22.589  -5.811  -5.576  0.00  0.00    -0.271 OA
HETATM    3  C           1     -21.384  -5.897  -5.568  0.00  0.00     0.249 C 
HETATM    4  N           1     -20.765  -6.758  -4.702  0.00  0.00    -0.344 N 
ENDROOT
BRANCH   3   5
HETATM    5  C           1     -20.561  -5.055  -6.512  0.00  0.00     0.284 C 
BRANCH   5   6
HETATM    6  N           1     -19.946  -5.936  -7.559  0.00  0.00    -0.066 N 
HETATM    7  H           1     -20.663  -6.166  -8.284  0.00  0.00     0.275 HD
HETATM    8  H           1     -19.603  -6.818  -7.116  0.00  0.00     0.275 HD
HETATM    9  H           1     -19.145  -5.436  -8.007  0.00  0.00     0.275 HD
ENDBRANCH   5   6
BRANCH   5  10
HETATM   10  C           1     -21.456  -4.020  -7.181  0.00  0.00     0.155 C 
BRANCH  10  11
HETATM   11  C           1     -21.505  -4.282  -8.666  0.00  0.00     0.175 C 
HETATM   12  O           1     -22.466  -4.910  -9.160  0.00  0.00    -0.648 OA
HETATM   13  O           1     -20.582  -3.870  -9.404  0.00  0.00    -0.648 OA
ENDBRANCH  10  11
ENDBRANCH   5  10
ENDBRANCH   3   5
BRANCH   4  14
HETATM   14  C           1     -21.555  -7.567  -3.794  0.00  0.00     0.189 C 
BRANCH  14  15
HETATM   15  C           1     -21.603  -6.901  -2.441  0.00  0.00     0.197 C 
HETATM   16  O           1     -22.332  -5.902  -2.261  0.00  0.00    -0.646 OA
HETATM   17  O           1     -20.915  -7.350  -1.499  0.00  0.00    -0.646 OA
ENDBRANCH  14  15
BRANCH  14  18
HETATM   18  C           1     -20.922  -8.945  -3.661  0.00  0.00     0.010 C 
HETATM   19  C           1     -21.971 -10.014  -3.938  0.00  0.00     0.012 C 
HETATM   20  C           1     -19.783  -9.078  -4.663  0.00  0.00     0.012 C 
ENDBRANCH  14  18
ENDBRANCH   4  14
TORSDOF 7
ENDMDL
MODEL 6
REMARK VINA RESULT:      -5.3     18.662     20.615
REMARK  7 active torsions:
REMARK  status: ('A' for Active; 'I' for Inactive)
REMARK    1  A    between atoms: C_4  and  C_15 
REMARK    2  A    between atoms: N_7  and  C_20 
REMARK       I    between atoms: C_9  and  N_19 
REMARK    3  A    between atoms: C_9  and  C_20 
REMARK    4  A    between atoms: C_13  and  C_15 
REMARK    5  A    between atoms: C_15  and  N_19 
REMARK    6  A    between atoms: C_17  and  C_20 
REMARK    7  A    between atoms: C_17  and  C_18 
ROOT
HETATM    1  H           1     -11.989   7.107 -20.771  0.00  0.00     0.163 HD
HETATM    2  O           1      -9.143   8.399 -20.501  0.00  0.00    -0.271 OA
HETATM    3  C           1      -9.970   7.521 -20.580  0.00  0.00     0.249 C 
HETATM    4  N           1     -11.296   7.841 -20.706  0.00  0.00    -0.344 N 
ENDROOT
BRANCH   3   5
HETATM    5  C           1      -9.543   6.075 -20.539  0.00  0.00     0.284 C 
BRANCH   5   6
HETATM    6  N           1      -9.241   5.683 -19.123  0.00  0.00    -0.066 N 
HETATM    7  H           1      -8.314   6.077 -18.844  0.00  0.00     0.275 HD
HETATM    8  H           1      -9.214   4.641 -19.047  0.00  0.00     0.275 HD
HETATM    9  H           1      -9.984   6.060 -18.492  0.00  0.00     0.275 HD
ENDBRANCH   5   6
BRANCH   5  10
HETATM   10  C           1     -10.666   5.198 -21.079  0.00  0.00     0.155 C 
BRANCH  10  11
HETATM   11  C           1     -11.327   4.468 -19.937  0.00  0.00     0.175 C 
HETATM   12  O           1     -11.159   3.237 -19.800  0.00  0.00    -0.648 OA
HETATM   13  O           1     -12.045   5.094 -19.126  0.00  0.00    -0.648 OA
ENDBRANCH  10  11
ENDBRANCH   5  10
ENDBRANCH   3   5
BRANCH   4  14
HETATM   14  C           1     -11.707   9.231 -20.744  0.00  0.00     0.189 C 
BRANCH  14  15
HETATM   15  C           1     -12.503   9.554 -19.504  0.00  0.00     0.197 C 
HETATM   16  O           1     -13.572  10.196 -19.597  0.00  0.00    -0.646 OA
HETATM   17  O           1     -12.095   9.178 -18.384  0.00  0.00    -0.646 OA
ENDBRANCH  14  15
BRANCH  14  18
HETATM   18  C           1     -12.567   9.471 -21.978  0.00  0.00     0.010 C 
HETATM   19  C           1     -11.899  10.512 -22.867  0.00  0.00     0.012 C 
HETATM   20  C           1     -12.723   8.167 -22.749  0.00  0.00     0.012 C 
ENDBRANCH  14  18
ENDBRANCH   4  14
TORSDOF 7
ENDMDL
MODEL 7
REMARK VINA RESULT:      -5.3     17.953     20.300
REMARK  7 active torsions:
REMARK  status: ('A' for Active; 'I' for Inactive)
REMARK    1  A    between atoms: C_4  and  C_15 
REMARK    2  A    between atoms: N_7  and  C_20 
REMARK       I    between atoms: C_9  and  N_19 
REMARK    3  A    between atoms: C_9  and  C_20 
REMARK    4  A    between atoms: C_13  and  C_15 
REMARK    5  A    between atoms: C_15  and  N_19 
REMARK    6  A    between atoms: C_17  and  C_20 
REMARK    7  A    between atoms: C_17  and  C_18 
ROOT
HETATM    1  H           1     -12.196   6.733 -19.831  0.00  0.00     0.163 HD
HETATM    2  O           1     -12.880   6.902 -22.888  0.00  0.00    -0.271 OA
HETATM    3  C           1     -12.487   7.274 -21.808  0.00  0.00     0.249 C 
HETATM    4  N           1     -12.525   6.422 -20.735  0.00  0.00    -0.344 N 
ENDROOT
BRANCH   3   5
HETATM    5  C           1     -11.953   8.675 -21.639  0.00  0.00     0.284 C 
BRANCH   5   6
HETATM    6  N           1     -11.928   9.028 -20.181  0.00  0.00    -0.066 N 
HETATM    7  H           1     -12.274  10.006 -20.054  0.00  0.00     0.275 HD
HETATM    8  H           1     -10.950   8.955 -19.821  0.00  0.00     0.275 HD
HETATM    9  H           1     -12.545   8.369 -19.654  0.00  0.00     0.275 HD
ENDBRANCH   5   6
BRANCH   5  10
HETATM   10  C           1     -10.540   8.752 -22.203  0.00  0.00     0.155 C 
BRANCH  10  11
HETATM   11  C           1      -9.547   8.797 -21.068  0.00  0.00     0.175 C 
HETATM   12  O           1      -9.182   7.738 -20.513  0.00  0.00    -0.648 OA
HETATM   13  O           1      -9.088   9.895 -20.682  0.00  0.00    -0.648 OA
ENDBRANCH  10  11
ENDBRANCH   5  10
ENDBRANCH   3   5
BRANCH   4  14
HETATM   14  C           1     -13.039   5.076 -20.897  0.00  0.00     0.189 C 
BRANCH  14  15
HETATM   15  C           1     -14.474   5.027 -20.433  0.00  0.00     0.197 C 
HETATM   16  O           1     -15.398   5.298 -21.230  0.00  0.00    -0.646 OA
HETATM   17  O           1     -14.738   4.714 -19.252  0.00  0.00    -0.646 OA
ENDBRANCH  14  15
BRANCH  14  18
HETATM   18  C           1     -12.202   4.112 -20.067  0.00  0.00     0.010 C 
HETATM   19  C           1     -11.802   2.919 -20.925  0.00  0.00     0.012 C 
HETATM   20  C           1     -10.951   4.824 -19.570  0.00  0.00     0.012 C 
ENDBRANCH  14  18
ENDBRANCH   4  14
TORSDOF 7
ENDMDL
MODEL 8
REMARK VINA RESULT:      -5.3      5.238      8.750
REMARK  7 active torsions:
REMARK  status: ('A' for Active; 'I' for Inactive)
REMARK    1  A    between atoms: C_4  and  C_15 
REMARK    2  A    between atoms: N_7  and  C_20 
REMARK       I    between atoms: C_9  and  N_19 
REMARK    3  A    between atoms: C_9  and  C_20 
REMARK    4  A    between atoms: C_13  and  C_15 
REMARK    5  A    between atoms: C_15  and  N_19 
REMARK    6  A    between atoms: C_17  and  C_20 
REMARK    7  A    between atoms: C_17  and  C_18 
ROOT
HETATM    1  H           1     -22.324  -8.707  -2.786  0.00  0.00     0.163 HD
HETATM    2  O           1     -19.930 -10.587  -2.027  0.00  0.00    -0.271 OA
HETATM    3  C           1     -20.607  -9.860  -2.715  0.00  0.00     0.249 C 
HETATM    4  N           1     -21.757  -9.315  -2.210  0.00  0.00    -0.344 N 
ENDROOT
BRANCH   3   5
HETATM    5  C           1     -20.186  -9.555  -4.132  0.00  0.00     0.284 C 
BRANCH   5   6
HETATM    6  N           1     -21.201 -10.113  -5.085  0.00  0.00    -0.066 N 
HETATM    7  H           1     -21.182 -11.156  -5.041  0.00  0.00     0.275 HD
HETATM    8  H           1     -20.975  -9.801  -6.057  0.00  0.00     0.275 HD
HETATM    9  H           1     -22.152  -9.769  -4.821  0.00  0.00     0.275 HD
ENDBRANCH   5   6
BRANCH   5  10
HETATM   10  C           1     -20.090  -8.046  -4.319  0.00  0.00     0.155 C 
BRANCH  10  11
HETATM   11  C           1     -21.203  -7.579  -5.224  0.00  0.00     0.175 C 
HETATM   12  O           1     -22.333  -7.331  -4.751  0.00  0.00    -0.648 OA
HETATM   13  O           1     -20.995  -7.441  -6.450  0.00  0.00    -0.648 OA
ENDBRANCH  10  11
ENDBRANCH   5  10
ENDBRANCH   3   5
BRANCH   4  14
HETATM   14  C           1     -22.162  -9.609  -0.849  0.00  0.00     0.189 C 
BRANCH  14  15
HETATM   15  C           1     -23.371 -10.512  -0.869  0.00  0.00     0.197 C 
HETATM   16  O           1     -23.581 -11.253  -1.853  0.00  0.00    -0.646 OA
HETATM   17  O           1     -24.161 -10.519   0.099  0.00  0.00    -0.646 OA
ENDBRANCH  14  15
BRANCH  14  18
HETATM   18  C           1     -22.508  -8.311  -0.132  0.00  0.00     0.010 C 
HETATM   19  C           1     -21.657  -8.183   1.125  0.00  0.00     0.012 C 
HETATM   20  C           1     -22.233  -7.132  -1.056  0.00  0.00     0.012 C 
ENDBRANCH  14  18
ENDBRANCH   4  14
TORSDOF 7
ENDMDL
MODEL 9
REMARK VINA RESULT:      -5.3     17.912     19.987
REMARK  7 active torsions:
REMARK  status: ('A' for Active; 'I' for Inactive)
REMARK    1  A    between atoms: C_4  and  C_15 
REMARK    2  A    between atoms: N_7  and  C_20 
REMARK       I    between atoms: C_9  and  N_19 
REMARK    3  A    between atoms: C_9  and  C_20 
REMARK    4  A    between atoms: C_13  and  C_15 
REMARK    5  A    between atoms: C_15  and  N_19 
REMARK    6  A    between atoms: C_17  and  C_20 
REMARK    7  A    between atoms: C_17  and  C_18 
ROOT
HETATM    1  H           1     -11.673   6.545 -21.625  0.00  0.00     0.163 HD
HETATM    2  O           1      -9.695   5.473 -19.438  0.00  0.00    -0.271 OA
HETATM    3  C           1     -10.447   5.432 -20.383  0.00  0.00     0.249 C 
HETATM    4  N           1     -11.043   6.580 -20.834  0.00  0.00    -0.344 N 
ENDROOT
BRANCH   3   5
HETATM    5  C           1     -10.730   4.117 -21.066  0.00  0.00     0.284 C 
BRANCH   5   6
HETATM    6  N           1     -10.889   3.041 -20.032  0.00  0.00    -0.066 N 
HETATM    7  H           1      -9.956   2.624 -19.817  0.00  0.00     0.275 HD
HETATM    8  H           1     -11.527   2.299 -20.397  0.00  0.00     0.275 HD
HETATM    9  H           1     -11.295   3.454 -19.161  0.00  0.00     0.275 HD
ENDBRANCH   5   6
BRANCH   5  10
HETATM   10  C           1     -12.012   4.231 -21.880  0.00  0.00     0.155 C 
BRANCH  10  11
HETATM   11  C           1     -13.147   3.584 -21.125  0.00  0.00     0.175 C 
HETATM   12  O           1     -13.496   2.416 -21.401  0.00  0.00    -0.648 OA
HETATM   13  O           1     -13.739   4.217 -20.224  0.00  0.00    -0.648 OA
ENDBRANCH  10  11
ENDBRANCH   5  10
ENDBRANCH   3   5
BRANCH   4  14
HETATM   14  C           1     -10.772   7.844 -20.177  0.00  0.00     0.189 C 
BRANCH  14  15
HETATM   15  C           1     -11.992   8.279 -19.403  0.00  0.00     0.197 C 
HETATM   16  O           1     -11.954   9.318 -18.709  0.00  0.00    -0.646 OA
HETATM   17  O           1     -13.041   7.602 -19.456  0.00  0.00    -0.646 OA
ENDBRANCH  14  15
BRANCH  14  18
HETATM   18  C           1     -10.432   8.896 -21.224  0.00  0.00     0.010 C 
HETATM   19  C           1      -8.920   9.062 -21.305  0.00  0.00     0.012 C 
HETATM   20  C           1     -10.968   8.454 -22.580  0.00  0.00     0.012 C 
ENDBRANCH  14  18
ENDBRANCH   4  14
TORSDOF 7
ENDMDL
