MODEL 1
REMARK VINA RESULT:      -7.7      0.000      0.000
REMARK  9 active torsions:
REMARK  status: ('A' for Active; 'I' for Inactive)
REMARK    1  A    between atoms: C_2  and  C_4 
REMARK    2  A    between atoms: C_2  and  C_3 
REMARK    3  A    between atoms: C_4  and  C_19 
REMARK    4  A    between atoms: C_7  and  C_9 
REMARK    5  A    between atoms: C_9  and  C_26 
REMARK    6  A    between atoms: C_9  and  N_11 
REMARK       I    between atoms: N_11  and  C_29 
REMARK    7  A    between atoms: C_19  and  C_29 
REMARK    8  A    between atoms: C_19  and  N_25 
REMARK    9  A    between atoms: C_26  and  C_27 
ROOT
HETATM    1  C           1     -20.249  -7.229  -5.436  0.00  0.00     0.190 C 
ENDROOT
BRANCH   1   2
HETATM    2  C           1     -19.202  -8.307  -5.295  0.00  0.00     0.197 C 
HETATM    3  O           1     -18.597  -8.727  -6.305  0.00  0.00    -0.646 OA
HETATM    4  O           1     -18.941  -8.781  -4.169  0.00  0.00    -0.646 OA
ENDBRANCH   1   2
BRANCH   1   5
HETATM    5  C           1     -21.584  -7.745  -4.918  0.00  0.00     0.077 C 
BRANCH   5   6
HETATM    6  C           1     -21.816  -7.229  -3.533  0.00  0.00    -0.028 A 
HETATM    7  C           1     -21.886  -8.011  -2.347  0.00  0.00    -0.002 A 
HETATM    8  C           1     -22.115  -7.132  -1.288  0.00  0.00     0.042 A 
HETATM    9  C           1     -21.776  -9.387  -2.073  0.00  0.00     0.014 A 
HETATM   10  C           1     -22.239  -7.563   0.039  0.00  0.00     0.030 A 
HETATM   11  N           1     -22.181  -5.865  -1.821  0.00  0.00    -0.365 N 
HETATM   12  C           1     -22.126  -8.935   0.286  0.00  0.00     0.002 A 
HETATM   13  C           1     -21.897  -9.835  -0.753  0.00  0.00     0.001 A 
HETATM   14  H           1     -22.345  -4.987  -1.267  0.00  0.00     0.165 HD
HETATM   15  C           1     -22.002  -5.911  -3.178  0.00  0.00     0.096 A 
ENDBRANCH   5   6
ENDBRANCH   1   5
BRANCH   1  16
HETATM   16  N           1     -20.381  -6.864  -6.833  0.00  0.00    -0.344 N 
HETATM   17  H           1     -20.454  -7.585  -7.539  0.00  0.00     0.163 HD
HETATM   18  C           1     -20.409  -5.545  -7.197  0.00  0.00     0.249 C 
HETATM   19  O           1     -19.379  -4.969  -7.458  0.00  0.00    -0.271 OA
BRANCH  18  20
HETATM   20  C           1     -21.724  -4.810  -7.271  0.00  0.00     0.275 C 
BRANCH  20  21
HETATM   21  C           1     -22.218  -4.794  -8.712  0.00  0.00     0.053 C 
BRANCH  21  22
HETATM   22  C           1     -23.552  -4.065  -8.784  0.00  0.00     0.115 C 
BRANCH  22  23
HETATM   23  C           1     -23.761  -3.532 -10.180  0.00  0.00     0.172 C 
HETATM   24  O           1     -24.913  -3.254 -10.577  0.00  0.00    -0.648 OA
HETATM   25  O           1     -22.783  -3.370 -10.941  0.00  0.00    -0.648 OA
ENDBRANCH  22  23
ENDBRANCH  21  22
ENDBRANCH  20  21
BRANCH  20  26
HETATM   26  N           1     -21.537  -3.400  -6.793  0.00  0.00    -0.066 N 
HETATM   27  H           1     -21.652  -2.742  -7.595  0.00  0.00     0.275 HD
HETATM   28  H           1     -22.251  -3.184  -6.061  0.00  0.00     0.275 HD
HETATM   29  H           1     -20.579  -3.294  -6.389  0.00  0.00     0.275 HD
ENDBRANCH  20  26
ENDBRANCH  18  20
ENDBRANCH   1  16
TORSDOF 9
ENDMDL
MODEL 2
REMARK VINA RESULT:      -7.5      1.985      3.036
REMARK  9 active torsions:
REMARK  status: ('A' for Active; 'I' for Inactive)
REMARK    1  A    between atoms: C_2  and  C_4 
REMARK    2  A    between atoms: C_2  and  C_3 
REMARK    3  A    between atoms: C_4  and  C_19 
REMARK    4  A    between atoms: C_7  and  C_9 
REMARK    5  A    between atoms: C_9  and  C_26 
REMARK    6  A    between atoms: C_9  and  N_11 
REMARK       I    between atoms: N_11  and  C_29 
REMARK    7  A    between atoms: C_19  and  C_29 
REMARK    8  A    between atoms: C_19  and  N_25 
REMARK    9  A    between atoms: C_26  and  C_27 
ROOT
HETATM    1  C           1     -20.568  -5.227  -6.188  0.00  0.00     0.190 C 
ENDROOT
BRANCH   1   2
HETATM    2  C           1     -19.493  -5.304  -7.244  0.00  0.00     0.197 C 
HETATM    3  O           1     -18.668  -4.372  -7.366  0.00  0.00    -0.646 OA
HETATM    4  O           1     -19.427  -6.299  -7.997  0.00  0.00    -0.646 OA
ENDBRANCH   1   2
BRANCH   1   5
HETATM    5  C           1     -21.303  -6.558  -6.113  0.00  0.00     0.077 C 
BRANCH   5   6
HETATM    6  C           1     -20.787  -7.350  -4.953  0.00  0.00    -0.028 A 
HETATM    7  C           1     -21.193  -7.212  -3.596  0.00  0.00    -0.002 A 
HETATM    8  C           1     -20.463  -8.139  -2.853  0.00  0.00     0.042 A 
HETATM    9  C           1     -22.114  -6.382  -2.929  0.00  0.00     0.014 A 
HETATM   10  C           1     -20.609  -8.280  -1.467  0.00  0.00     0.030 A 
HETATM   11  N           1     -19.646  -8.811  -3.734  0.00  0.00    -0.365 N 
HETATM   12  C           1     -21.530  -7.446  -0.827  0.00  0.00     0.002 A 
HETATM   13  C           1     -22.273  -6.511  -1.544  0.00  0.00     0.001 A 
HETATM   14  H           1     -18.975  -9.575  -3.469  0.00  0.00     0.165 HD
HETATM   15  C           1     -19.835  -8.342  -5.007  0.00  0.00     0.096 A 
ENDBRANCH   5   6
ENDBRANCH   1   5
BRANCH   1  16
HETATM   16  N           1     -21.507  -4.176  -6.530  0.00  0.00    -0.344 N 
HETATM   17  H           1     -21.260  -3.207  -6.374  0.00  0.00     0.163 HD
HETATM   18  C           1     -22.726  -4.494  -7.065  0.00  0.00     0.249 C 
HETATM   19  O           1     -23.672  -4.686  -6.338  0.00  0.00    -0.271 OA
BRANCH  18  20
HETATM   20  C           1     -22.888  -4.606  -8.560  0.00  0.00     0.275 C 
BRANCH  20  21
HETATM   21  C           1     -21.902  -3.672  -9.251  0.00  0.00     0.053 C 
BRANCH  21  22
HETATM   22  C           1     -21.236  -4.401 -10.409  0.00  0.00     0.115 C 
BRANCH  22  23
HETATM   23  C           1     -22.037  -4.184 -11.669  0.00  0.00     0.172 C 
HETATM   24  O           1     -21.591  -3.446 -12.573  0.00  0.00    -0.648 OA
HETATM   25  O           1     -23.147  -4.742 -11.809  0.00  0.00    -0.648 OA
ENDBRANCH  22  23
ENDBRANCH  21  22
ENDBRANCH  20  21
BRANCH  20  26
HETATM   26  N           1     -24.288  -4.224  -8.942  0.00  0.00    -0.066 N 
HETATM   27  H           1     -24.964  -4.872  -8.480  0.00  0.00     0.275 HD
HETATM   28  H           1     -24.477  -3.244  -8.631  0.00  0.00     0.275 HD
HETATM   29  H           1     -24.396  -4.289  -9.979  0.00  0.00     0.275 HD
ENDBRANCH  20  26
ENDBRANCH  18  20
ENDBRANCH   1  16
TORSDOF 9
ENDMDL
MODEL 3
REMARK VINA RESULT:      -7.5      2.857      8.034
REMARK  9 active torsions:
REMARK  status: ('A' for Active; 'I' for Inactive)
REMARK    1  A    between atoms: C_2  and  C_4 
REMARK    2  A    between atoms: C_2  and  C_3 
REMARK    3  A    between atoms: C_4  and  C_19 
REMARK    4  A    between atoms: C_7  and  C_9 
REMARK    5  A    between atoms: C_9  and  C_26 
REMARK    6  A    between atoms: C_9  and  N_11 
REMARK       I    between atoms: N_11  and  C_29 
REMARK    7  A    between atoms: C_19  and  C_29 
REMARK    8  A    between atoms: C_19  and  N_25 
REMARK    9  A    between atoms: C_26  and  C_27 
ROOT
HETATM    1  C           1     -21.917  -6.678  -5.432  0.00  0.00     0.190 C 
ENDROOT
BRANCH   1   2
HETATM    2  C           1     -20.976  -7.847  -5.276  0.00  0.00     0.197 C 
HETATM    3  O           1     -21.432  -9.003  -5.140  0.00  0.00    -0.646 OA
HETATM    4  O           1     -19.740  -7.660  -5.282  0.00  0.00    -0.646 OA
ENDBRANCH   1   2
BRANCH   1   5
HETATM    5  C           1     -21.163  -5.493  -6.022  0.00  0.00     0.077 C 
BRANCH   5   6
HETATM    6  C           1     -21.960  -4.900  -7.141  0.00  0.00    -0.028 A 
HETATM    7  C           1     -21.486  -4.622  -8.453  0.00  0.00    -0.002 A 
HETATM    8  C           1     -22.552  -4.077  -9.168  0.00  0.00     0.042 A 
HETATM    9  C           1     -20.246  -4.782  -9.101  0.00  0.00     0.014 A 
HETATM   10  C           1     -22.441  -3.683 -10.508  0.00  0.00     0.030 A 
HETATM   11  N           1     -23.630  -4.030  -8.314  0.00  0.00    -0.365 N 
HETATM   12  C           1     -21.200  -3.852 -11.130  0.00  0.00     0.002 A 
HETATM   13  C           1     -20.118  -4.394 -10.439  0.00  0.00     0.001 A 
HETATM   14  H           1     -24.583  -3.666  -8.567  0.00  0.00     0.165 HD
HETATM   15  C           1     -23.283  -4.525  -7.085  0.00  0.00     0.096 A 
ENDBRANCH   5   6
ENDBRANCH   1   5
BRANCH   1  16
HETATM   16  N           1     -22.453  -6.312  -4.136  0.00  0.00    -0.344 N 
HETATM   17  H           1     -23.416  -6.013  -4.053  0.00  0.00     0.163 HD
HETATM   18  C           1     -21.656  -6.372  -3.024  0.00  0.00     0.249 C 
HETATM   19  O           1     -21.010  -5.407  -2.691  0.00  0.00    -0.271 OA
BRANCH  18  20
HETATM   20  C           1     -21.584  -7.644  -2.215  0.00  0.00     0.275 C 
BRANCH  20  21
HETATM   21  C           1     -21.997  -7.356  -0.777  0.00  0.00     0.053 C 
BRANCH  21  22
HETATM   22  C           1     -22.440  -8.648  -0.107  0.00  0.00     0.115 C 
BRANCH  22  23
HETATM   23  C           1     -21.281  -9.247   0.652  0.00  0.00     0.172 C 
HETATM   24  O           1     -20.653 -10.214   0.171  0.00  0.00    -0.648 OA
HETATM   25  O           1     -20.951  -8.776   1.762  0.00  0.00    -0.648 OA
ENDBRANCH  22  23
ENDBRANCH  21  22
ENDBRANCH  20  21
BRANCH  20  26
HETATM   26  N           1     -20.180  -8.171  -2.235  0.00  0.00    -0.066 N 
HETATM   27  H           1     -19.509  -7.372  -2.281  0.00  0.00     0.275 HD
HETATM   28  H           1     -20.004  -8.723  -1.365  0.00  0.00     0.275 HD
HETATM   29  H           1     -20.049  -8.784  -3.071  0.00  0.00     0.275 HD
ENDBRANCH  20  26
ENDBRANCH  18  20
ENDBRANCH   1  16
TORSDOF 9
ENDMDL
MODEL 4
REMARK VINA RESULT:      -7.5      2.189      2.850
REMARK  9 active torsions:
REMARK  status: ('A' for Active; 'I' for Inactive)
REMARK    1  A    between atoms: C_2  and  C_4 
REMARK    2  A    between atoms: C_2  and  C_3 
REMARK    3  A    between atoms: C_4  and  C_19 
REMARK    4  A    between atoms: C_7  and  C_9 
REMARK    5  A    between atoms: C_9  and  C_26 
REMARK    6  A    between atoms: C_9  and  N_11 
REMARK       I    between atoms: N_11  and  C_29 
REMARK    7  A    between atoms: C_19  and  C_29 
REMARK    8  A    between atoms: C_19  and  N_25 
REMARK    9  A    between atoms: C_26  and  C_27 
ROOT
HETATM    1  C           1     -21.248  -7.368  -5.497  0.00  0.00     0.190 C 
ENDROOT
BRANCH   1   2
HETATM    2  C           1     -22.088  -6.406  -4.693  0.00  0.00     0.197 C 
HETATM    3  O           1     -21.630  -5.900  -3.646  0.00  0.00    -0.646 OA
HETATM    4  O           1     -23.242  -6.115  -5.074  0.00  0.00    -0.646 OA
ENDBRANCH   1   2
BRANCH   1   5
HETATM    5  C           1     -20.404  -8.216  -4.554  0.00  0.00     0.077 C 
BRANCH   5   6
HETATM    6  C           1     -21.216  -9.372  -4.060  0.00  0.00    -0.028 A 
HETATM    7  C           1     -21.787  -9.504  -2.764  0.00  0.00    -0.002 A 
HETATM    8  C           1     -22.456 -10.727  -2.732  0.00  0.00     0.042 A 
HETATM    9  C           1     -21.796  -8.696  -1.612  0.00  0.00     0.014 A 
HETATM   10  C           1     -23.140 -11.185  -1.599  0.00  0.00     0.030 A 
HETATM   11  N           1     -22.293 -11.310  -3.968  0.00  0.00    -0.365 N 
HETATM   12  C           1     -23.136 -10.365  -0.467  0.00  0.00     0.002 A 
HETATM   13  C           1     -22.475  -9.139  -0.470  0.00  0.00     0.001 A 
HETATM   14  H           1     -22.685 -12.243  -4.250  0.00  0.00     0.165 HD
HETATM   15  C           1     -21.544 -10.500  -4.779  0.00  0.00     0.096 A 
ENDBRANCH   5   6
ENDBRANCH   1   5
BRANCH   1  16
HETATM   16  N           1     -20.377  -6.623  -6.385  0.00  0.00    -0.344 N 
HETATM   17  H           1     -19.557  -7.067  -6.779  0.00  0.00     0.163 HD
HETATM   18  C           1     -20.664  -5.320  -6.691  0.00  0.00     0.249 C 
HETATM   19  O           1     -20.224  -4.428  -6.005  0.00  0.00    -0.271 OA
BRANCH  18  20
HETATM   20  C           1     -21.529  -4.998  -7.883  0.00  0.00     0.275 C 
BRANCH  20  21
HETATM   21  C           1     -20.738  -4.150  -8.872  0.00  0.00     0.053 C 
BRANCH  21  22
HETATM   22  C           1     -21.148  -4.511 -10.293  0.00  0.00     0.115 C 
BRANCH  22  23
HETATM   23  C           1     -22.039  -3.429 -10.852  0.00  0.00     0.172 C 
HETATM   24  O           1     -23.235  -3.360 -10.497  0.00  0.00    -0.648 OA
HETATM   25  O           1     -21.581  -2.603 -11.670  0.00  0.00    -0.648 OA
ENDBRANCH  22  23
ENDBRANCH  21  22
ENDBRANCH  20  21
BRANCH  20  26
HETATM   26  N           1     -22.740  -4.237  -7.431  0.00  0.00    -0.066 N 
HETATM   27  H           1     -23.555  -4.489  -8.034  0.00  0.00     0.275 HD
HETATM   28  H           1     -22.954  -4.481  -6.438  0.00  0.00     0.275 HD
HETATM   29  H           1     -22.555  -3.211  -7.507  0.00  0.00     0.275 HD
ENDBRANCH  20  26
ENDBRANCH  18  20
ENDBRANCH   1  16
TORSDOF 9
ENDMDL
MODEL 5
REMARK VINA RESULT:      -7.2     14.223     16.113
REMARK  9 active torsions:
REMARK  status: ('A' for Active; 'I' for Inactive)
REMARK    1  A    between atoms: C_2  and  C_4 
REMARK    2  A    between atoms: C_2  and  C_3 
REMARK    3  A    between atoms: C_4  and  C_19 
REMARK    4  A    between atoms: C_7  and  C_9 
REMARK    5  A    between atoms: C_9  and  C_26 
REMARK    6  A    between atoms: C_9  and  N_11 
REMARK       I    between atoms: N_11  and  C_29 
REMARK    7  A    between atoms: C_19  and  C_29 
REMARK    8  A    between atoms: C_19  and  N_25 
REMARK    9  A    between atoms: C_26  and  C_27 
ROOT
HETATM    1  C           1     -35.358  -2.001 -11.746  0.00  0.00     0.190 C 
ENDROOT
BRANCH   1   2
HETATM    2  C           1     -36.348  -1.020 -11.164  0.00  0.00     0.197 C 
HETATM    3  O           1     -37.531  -1.015 -11.565  0.00  0.00    -0.646 OA
HETATM    4  O           1     -35.983  -0.214 -10.281  0.00  0.00    -0.646 OA
ENDBRANCH   1   2
BRANCH   1   5
HETATM    5  C           1     -34.305  -2.341 -10.700  0.00  0.00     0.077 C 
BRANCH   5   6
HETATM    6  C           1     -33.667  -3.651 -11.040  0.00  0.00    -0.028 A 
HETATM    7  C           1     -34.107  -4.935 -10.611  0.00  0.00    -0.002 A 
HETATM    8  C           1     -33.229  -5.873 -11.156  0.00  0.00     0.042 A 
HETATM    9  C           1     -35.170  -5.388  -9.807  0.00  0.00     0.014 A 
HETATM   10  C           1     -33.363  -7.249 -10.937  0.00  0.00     0.030 A 
HETATM   11  N           1     -32.295  -5.175 -11.888  0.00  0.00    -0.365 N 
HETATM   12  C           1     -34.427  -7.675 -10.136  0.00  0.00     0.002 A 
HETATM   13  C           1     -35.318  -6.761  -9.579  0.00  0.00     0.001 A 
HETATM   14  H           1     -31.500  -5.611 -12.419  0.00  0.00     0.165 HD
HETATM   15  C           1     -32.551  -3.831 -11.825  0.00  0.00     0.096 A 
ENDBRANCH   5   6
ENDBRANCH   1   5
BRANCH   1  16
HETATM   16  N           1     -34.716  -1.409 -12.903  0.00  0.00    -0.344 N 
HETATM   17  H           1     -33.859  -1.809 -13.265  0.00  0.00     0.163 HD
HETATM   18  C           1     -35.267  -0.311 -13.505  0.00  0.00     0.249 C 
HETATM   19  O           1     -34.953   0.799 -13.143  0.00  0.00    -0.271 OA
BRANCH  18  20
HETATM   20  C           1     -36.267  -0.485 -14.621  0.00  0.00     0.275 C 
BRANCH  20  21
HETATM   21  C           1     -35.588  -0.219 -15.959  0.00  0.00     0.053 C 
BRANCH  21  22
HETATM   22  C           1     -35.768  -1.425 -16.869  0.00  0.00     0.115 C 
BRANCH  22  23
HETATM   23  C           1     -34.656  -2.414 -16.622  0.00  0.00     0.172 C 
HETATM   24  O           1     -33.712  -2.510 -17.435  0.00  0.00    -0.648 OA
HETATM   25  O           1     -34.679  -3.139 -15.604  0.00  0.00    -0.648 OA
ENDBRANCH  22  23
ENDBRANCH  21  22
ENDBRANCH  20  21
BRANCH  20  26
HETATM   26  N           1     -37.398   0.483 -14.435  0.00  0.00    -0.066 N 
HETATM   27  H           1     -37.196   1.361 -14.964  0.00  0.00     0.275 HD
HETATM   28  H           1     -38.283   0.057 -14.793  0.00  0.00     0.275 HD
HETATM   29  H           1     -37.503   0.705 -13.419  0.00  0.00     0.275 HD
ENDBRANCH  20  26
ENDBRANCH  18  20
ENDBRANCH   1  16
TORSDOF 9
ENDMDL
MODEL 6
REMARK VINA RESULT:      -7.1      2.879      5.311
REMARK  9 active torsions:
REMARK  status: ('A' for Active; 'I' for Inactive)
REMARK    1  A    between atoms: C_2  and  C_4 
REMARK    2  A    between atoms: C_2  and  C_3 
REMARK    3  A    between atoms: C_4  and  C_19 
REMARK    4  A    between atoms: C_7  and  C_9 
REMARK    5  A    between atoms: C_9  and  C_26 
REMARK    6  A    between atoms: C_9  and  N_11 
REMARK       I    between atoms: N_11  and  C_29 
REMARK    7  A    between atoms: C_19  and  C_29 
REMARK    8  A    between atoms: C_19  and  N_25 
REMARK    9  A    between atoms: C_26  and  C_27 
ROOT
HETATM    1  C           1     -21.249  -8.635  -1.813  0.00  0.00     0.190 C 
ENDROOT
BRANCH   1   2
HETATM    2  C           1     -21.791  -8.613  -0.404  0.00  0.00     0.197 C 
HETATM    3  O           1     -23.015  -8.762  -0.203  0.00  0.00    -0.646 OA
HETATM    4  O           1     -21.015  -8.445   0.561  0.00  0.00    -0.646 OA
ENDBRANCH   1   2
BRANCH   1   5
HETATM    5  C           1     -20.045  -9.564  -1.880  0.00  0.00     0.077 C 
BRANCH   5   6
HETATM    6  C           1     -19.601  -9.706  -3.302  0.00  0.00    -0.028 A 
HETATM    7  C           1     -18.256  -9.713  -3.765  0.00  0.00    -0.002 A 
HETATM    8  C           1     -18.299  -9.866  -5.151  0.00  0.00     0.042 A 
HETATM    9  C           1     -17.003  -9.602  -3.134  0.00  0.00     0.014 A 
HETATM   10  C           1     -17.144  -9.915  -5.942  0.00  0.00     0.030 A 
HETATM   11  N           1     -19.626  -9.948  -5.508  0.00  0.00    -0.365 N 
HETATM   12  C           1     -15.911  -9.804  -5.292  0.00  0.00     0.002 A 
HETATM   13  C           1     -15.839  -9.650  -3.910  0.00  0.00     0.001 A 
HETATM   14  H           1     -19.978 -10.068  -6.491  0.00  0.00     0.165 HD
HETATM   15  C           1     -20.422  -9.853  -4.398  0.00  0.00     0.096 A 
ENDBRANCH   5   6
ENDBRANCH   1   5
BRANCH   1  16
HETATM   16  N           1     -20.848  -7.296  -2.197  0.00  0.00    -0.344 N 
HETATM   17  H           1     -19.935  -6.947  -1.935  0.00  0.00     0.163 HD
HETATM   18  C           1     -21.703  -6.504  -2.914  0.00  0.00     0.249 C 
HETATM   19  O           1     -22.480  -5.779  -2.340  0.00  0.00    -0.271 OA
BRANCH  18  20
HETATM   20  C           1     -21.676  -6.537  -4.423  0.00  0.00     0.275 C 
BRANCH  20  21
HETATM   21  C           1     -20.709  -5.478  -4.937  0.00  0.00     0.053 C 
BRANCH  21  22
HETATM   22  C           1     -20.499  -5.666  -6.433  0.00  0.00     0.115 C 
BRANCH  22  23
HETATM   23  C           1     -21.042  -4.469  -7.173  0.00  0.00     0.172 C 
HETATM   24  O           1     -20.258  -3.660  -7.715  0.00  0.00    -0.648 OA
HETATM   25  O           1     -22.277  -4.285  -7.243  0.00  0.00    -0.648 OA
ENDBRANCH  22  23
ENDBRANCH  21  22
ENDBRANCH  20  21
BRANCH  20  26
HETATM   26  N           1     -23.051  -6.256  -4.954  0.00  0.00    -0.066 N 
HETATM   27  H           1     -23.399  -7.090  -5.477  0.00  0.00     0.275 HD
HETATM   28  H           1     -23.696  -6.051  -4.157  0.00  0.00     0.275 HD
HETATM   29  H           1     -23.015  -5.432  -5.595  0.00  0.00     0.275 HD
ENDBRANCH  20  26
ENDBRANCH  18  20
ENDBRANCH   1  16
TORSDOF 9
ENDMDL
MODEL 7
REMARK VINA RESULT:      -7.0      2.740      7.973
REMARK  9 active torsions:
REMARK  status: ('A' for Active; 'I' for Inactive)
REMARK    1  A    between atoms: C_2  and  C_4 
REMARK    2  A    between atoms: C_2  and  C_3 
REMARK    3  A    between atoms: C_4  and  C_19 
REMARK    4  A    between atoms: C_7  and  C_9 
REMARK    5  A    between atoms: C_9  and  C_26 
REMARK    6  A    between atoms: C_9  and  N_11 
REMARK       I    between atoms: N_11  and  C_29 
REMARK    7  A    between atoms: C_19  and  C_29 
REMARK    8  A    between atoms: C_19  and  N_25 
REMARK    9  A    between atoms: C_26  and  C_27 
ROOT
HETATM    1  C           1     -21.708  -6.425  -5.417  0.00  0.00     0.190 C 
ENDROOT
BRANCH   1   2
HETATM    2  C           1     -20.844  -7.651  -5.586  0.00  0.00     0.197 C 
HETATM    3  O           1     -19.615  -7.584  -5.372  0.00  0.00    -0.646 OA
HETATM    4  O           1     -21.358  -8.733  -5.942  0.00  0.00    -0.646 OA
ENDBRANCH   1   2
BRANCH   1   5
HETATM    5  C           1     -20.834  -5.178  -5.457  0.00  0.00     0.077 C 
BRANCH   5   6
HETATM    6  C           1     -20.593  -4.782  -6.880  0.00  0.00    -0.028 A 
HETATM    7  C           1     -21.590  -4.445  -7.837  0.00  0.00    -0.002 A 
HETATM    8  C           1     -20.929  -4.142  -9.028  0.00  0.00     0.042 A 
HETATM    9  C           1     -22.995  -4.370  -7.803  0.00  0.00     0.014 A 
HETATM   10  C           1     -21.608  -3.764 -10.193  0.00  0.00     0.030 A 
HETATM   11  N           1     -19.581  -4.292  -8.793  0.00  0.00    -0.365 N 
HETATM   12  C           1     -23.003  -3.696 -10.135  0.00  0.00     0.002 A 
HETATM   13  C           1     -23.689  -3.994  -8.960  0.00  0.00     0.001 A 
HETATM   14  H           1     -18.825  -4.132  -9.504  0.00  0.00     0.165 HD
HETATM   15  C           1     -19.367  -4.679  -7.497  0.00  0.00     0.096 A 
ENDBRANCH   5   6
ENDBRANCH   1   5
BRANCH   1  16
HETATM   16  N           1     -22.396  -6.491  -4.142  0.00  0.00    -0.344 N 
HETATM   17  H           1     -23.402  -6.391  -4.106  0.00  0.00     0.163 HD
HETATM   18  C           1     -21.685  -6.690  -2.990  0.00  0.00     0.249 C 
HETATM   19  O           1     -21.263  -5.743  -2.369  0.00  0.00    -0.271 OA
BRANCH  18  20
HETATM   20  C           1     -21.427  -8.092  -2.495  0.00  0.00     0.275 C 
BRANCH  20  21
HETATM   21  C           1     -22.124  -8.295  -1.156  0.00  0.00     0.053 C 
BRANCH  21  22
HETATM   22  C           1     -21.274  -9.197  -0.272  0.00  0.00     0.115 C 
BRANCH  22  23
HETATM   23  C           1     -21.295  -8.680   1.145  0.00  0.00     0.172 C 
HETATM   24  O           1     -20.522  -9.167   1.999  0.00  0.00    -0.648 OA
HETATM   25  O           1     -22.085  -7.767   1.466  0.00  0.00    -0.648 OA
ENDBRANCH  22  23
ENDBRANCH  21  22
ENDBRANCH  20  21
BRANCH  20  26
HETATM   26  N           1     -19.950  -8.298  -2.325  0.00  0.00    -0.066 N 
HETATM   27  H           1     -19.781  -9.181  -1.795  0.00  0.00     0.275 HD
HETATM   28  H           1     -19.498  -8.365  -3.265  0.00  0.00     0.275 HD
HETATM   29  H           1     -19.544  -7.492  -1.799  0.00  0.00     0.275 HD
ENDBRANCH  20  26
ENDBRANCH  18  20
ENDBRANCH   1  16
TORSDOF 9
ENDMDL
MODEL 8
REMARK VINA RESULT:      -6.9     13.704     15.800
REMARK  9 active torsions:
REMARK  status: ('A' for Active; 'I' for Inactive)
REMARK    1  A    between atoms: C_2  and  C_4 
REMARK    2  A    between atoms: C_2  and  C_3 
REMARK    3  A    between atoms: C_4  and  C_19 
REMARK    4  A    between atoms: C_7  and  C_9 
REMARK    5  A    between atoms: C_9  and  C_26 
REMARK    6  A    between atoms: C_9  and  N_11 
REMARK       I    between atoms: N_11  and  C_29 
REMARK    7  A    between atoms: C_19  and  C_29 
REMARK    8  A    between atoms: C_19  and  N_25 
REMARK    9  A    between atoms: C_26  and  C_27 
ROOT
HETATM    1  C           1     -32.373  -4.297 -16.209  0.00  0.00     0.190 C 
ENDROOT
BRANCH   1   2
HETATM    2  C           1     -32.464  -3.295 -17.334  0.00  0.00     0.197 C 
HETATM    3  O           1     -31.441  -2.993 -17.985  0.00  0.00    -0.646 OA
HETATM    4  O           1     -33.561  -2.767 -17.614  0.00  0.00    -0.646 OA
ENDBRANCH   1   2
BRANCH   1   5
HETATM    5  C           1     -31.755  -5.589 -16.727  0.00  0.00     0.077 C 
BRANCH   5   6
HETATM    6  C           1     -30.309  -5.639 -16.347  0.00  0.00    -0.028 A 
HETATM    7  C           1     -29.216  -5.854 -17.232  0.00  0.00    -0.002 A 
HETATM    8  C           1     -28.053  -5.824 -16.464  0.00  0.00     0.042 A 
HETATM    9  C           1     -29.107  -6.072 -18.619  0.00  0.00     0.014 A 
HETATM   10  C           1     -26.778  -6.002 -17.015  0.00  0.00     0.030 A 
HETATM   11  N           1     -28.434  -5.599 -15.160  0.00  0.00    -0.365 N 
HETATM   12  C           1     -26.695  -6.217 -18.394  0.00  0.00     0.002 A 
HETATM   13  C           1     -27.840  -6.251 -19.186  0.00  0.00     0.001 A 
HETATM   14  H           1     -27.776  -5.524 -14.345  0.00  0.00     0.165 HD
HETATM   15  C           1     -29.797  -5.485 -15.079  0.00  0.00     0.096 A 
ENDBRANCH   5   6
ENDBRANCH   1   5
BRANCH   1  16
HETATM   16  N           1     -33.702  -4.569 -15.696  0.00  0.00    -0.344 N 
HETATM   17  H           1     -34.315  -5.204 -16.192  0.00  0.00     0.163 HD
HETATM   18  C           1     -34.127  -3.967 -14.543  0.00  0.00     0.249 C 
HETATM   19  O           1     -34.694  -2.901 -14.591  0.00  0.00    -0.271 OA
BRANCH  18  20
HETATM   20  C           1     -33.888  -4.635 -13.211  0.00  0.00     0.275 C 
BRANCH  20  21
HETATM   21  C           1     -34.733  -3.954 -12.142  0.00  0.00     0.053 C 
BRANCH  21  22
HETATM   22  C           1     -33.851  -3.575 -10.961  0.00  0.00     0.115 C 
BRANCH  22  23
HETATM   23  C           1     -33.948  -2.090 -10.714  0.00  0.00     0.172 C 
HETATM   24  O           1     -34.318  -1.327 -11.632  0.00  0.00    -0.648 OA
HETATM   25  O           1     -33.658  -1.622  -9.592  0.00  0.00    -0.648 OA
ENDBRANCH  22  23
ENDBRANCH  21  22
ENDBRANCH  20  21
BRANCH  20  26
HETATM   26  N           1     -32.437  -4.519 -12.847  0.00  0.00    -0.066 N 
HETATM   27  H           1     -31.889  -4.235 -13.689  0.00  0.00     0.275 HD
HETATM   28  H           1     -32.323  -3.799 -12.098  0.00  0.00     0.275 HD
HETATM   29  H           1     -32.090  -5.442 -12.500  0.00  0.00     0.275 HD
ENDBRANCH  20  26
ENDBRANCH  18  20
ENDBRANCH   1  16
TORSDOF 9
ENDMDL
MODEL 9
REMARK VINA RESULT:      -6.9      3.520      7.046
REMARK  9 active torsions:
REMARK  status: ('A' for Active; 'I' for Inactive)
REMARK    1  A    between atoms: C_2  and  C_4 
REMARK    2  A    between atoms: C_2  and  C_3 
REMARK    3  A    between atoms: C_4  and  C_19 
REMARK    4  A    between atoms: C_7  and  C_9 
REMARK    5  A    between atoms: C_9  and  C_26 
REMARK    6  A    between atoms: C_9  and  N_11 
REMARK       I    between atoms: N_11  and  C_29 
REMARK    7  A    between atoms: C_19  and  C_29 
REMARK    8  A    between atoms: C_19  and  N_25 
REMARK    9  A    between atoms: C_26  and  C_27 
ROOT
HETATM    1  C           1     -20.524  -9.648  -4.841  0.00  0.00     0.190 C 
ENDROOT
BRANCH   1   2
HETATM    2  C           1     -20.005 -10.565  -5.921  0.00  0.00     0.197 C 
HETATM    3  O           1     -18.790 -10.557  -6.217  0.00  0.00    -0.646 OA
HETATM    4  O           1     -20.789 -11.332  -6.521  0.00  0.00    -0.646 OA
ENDBRANCH   1   2
BRANCH   1   5
HETATM    5  C           1     -19.817  -8.303  -4.931  0.00  0.00     0.077 C 
BRANCH   5   6
HETATM    6  C           1     -20.813  -7.234  -5.252  0.00  0.00    -0.028 A 
HETATM    7  C           1     -20.645  -6.188  -6.202  0.00  0.00    -0.002 A 
HETATM    8  C           1     -21.811  -5.422  -6.180  0.00  0.00     0.042 A 
HETATM    9  C           1     -19.608  -5.819  -7.079  0.00  0.00     0.014 A 
HETATM   10  C           1     -21.993  -4.300  -6.998  0.00  0.00     0.030 A 
HETATM   11  N           1     -22.651  -5.990  -5.249  0.00  0.00    -0.365 N 
HETATM   12  C           1     -20.950  -3.953  -7.861  0.00  0.00     0.002 A 
HETATM   13  C           1     -19.774  -4.700  -7.903  0.00  0.00     0.001 A 
HETATM   14  H           1     -23.610  -5.635  -5.008  0.00  0.00     0.165 HD
HETATM   15  C           1     -22.057  -7.087  -4.682  0.00  0.00     0.096 A 
ENDBRANCH   5   6
ENDBRANCH   1   5
BRANCH   1  16
HETATM   16  N           1     -20.271 -10.241  -3.542  0.00  0.00    -0.344 N 
HETATM   17  H           1     -19.341 -10.207  -3.143  0.00  0.00     0.163 HD
HETATM   18  C           1     -21.289 -10.846  -2.855  0.00  0.00     0.249 C 
HETATM   19  O           1     -21.507 -12.024  -3.012  0.00  0.00    -0.271 OA
BRANCH  18  20
HETATM   20  C           1     -22.138 -10.041  -1.902  0.00  0.00     0.275 C 
BRANCH  20  21
HETATM   21  C           1     -21.286  -9.580  -0.727  0.00  0.00     0.053 C 
BRANCH  21  22
HETATM   22  C           1     -21.046  -8.080  -0.831  0.00  0.00     0.115 C 
BRANCH  22  23
HETATM   23  C           1     -22.343  -7.344  -0.603  0.00  0.00     0.172 C 
HETATM   24  O           1     -23.118  -7.712   0.306  0.00  0.00    -0.648 OA
HETATM   25  O           1     -22.644  -6.368  -1.323  0.00  0.00    -0.648 OA
ENDBRANCH  22  23
ENDBRANCH  21  22
ENDBRANCH  20  21
BRANCH  20  26
HETATM   26  N           1     -23.265 -10.893  -1.397  0.00  0.00    -0.066 N 
HETATM   27  H           1     -22.880 -11.689  -0.843  0.00  0.00     0.275 HD
HETATM   28  H           1     -23.891 -10.316  -0.789  0.00  0.00     0.275 HD
HETATM   29  H           1     -23.812 -11.264  -2.207  0.00  0.00     0.275 HD
ENDBRANCH  20  26
ENDBRANCH  18  20
ENDBRANCH   1  16
TORSDOF 9
ENDMDL
