MODEL 1
REMARK VINA RESULT:      -7.5      0.000      0.000
REMARK  8 active torsions:
REMARK  status: ('A' for Active; 'I' for Inactive)
REMARK    1  A    between atoms: C_2  and  C_3 
REMARK    2  A    between atoms: C_2  and  C_10 
REMARK    3  A    between atoms: C_2  and  N_20 
REMARK       I    between atoms: C_3  and  N_18 
REMARK    4  A    between atoms: C_8  and  C_11 
REMARK    5  A    between atoms: C_10  and  C_21 
REMARK    6  A    between atoms: C_11  and  C_12 
REMARK    7  A    between atoms: C_11  and  N_18 
REMARK    8  A    between atoms: C_12  and  C_17 
ROOT
HETATM    1  C           1     -35.137  -0.582 -11.937  0.00  0.00     0.278 C 
ENDROOT
BRANCH   1   2
HETATM    2  C           1     -35.016  -0.053 -13.344  0.00  0.00     0.249 C 
HETATM    3  O           1     -34.379   0.952 -13.559  0.00  0.00    -0.271 OA
HETATM    4  N           1     -35.625  -0.712 -14.378  0.00  0.00    -0.344 N 
HETATM    5  H           1     -36.157  -1.552 -14.198  0.00  0.00     0.163 HD
BRANCH   4   6
HETATM    6  C           1     -35.507  -0.203 -15.731  0.00  0.00     0.195 C 
BRANCH   6   7
HETATM    7  C           1     -36.536   0.880 -15.952  0.00  0.00     0.197 C 
HETATM    8  O           1     -36.169   2.047 -16.207  0.00  0.00    -0.646 OA
HETATM    9  O           1     -37.753   0.609 -15.879  0.00  0.00    -0.646 OA
ENDBRANCH   6   7
BRANCH   6  10
HETATM   10  C           1     -35.743  -1.335 -16.722  0.00  0.00     0.149 C 
BRANCH  10  11
HETATM   11  C           1     -34.668  -2.381 -16.556  0.00  0.00     0.175 C 
HETATM   12  O           1     -33.770  -2.497 -17.418  0.00  0.00    -0.648 OA
HETATM   13  O           1     -34.675  -3.132 -15.556  0.00  0.00    -0.648 OA
ENDBRANCH  10  11
ENDBRANCH   6  10
ENDBRANCH   4   6
ENDBRANCH   1   2
BRANCH   1  14
HETATM   14  C           1     -35.923  -1.886 -11.950  0.00  0.00     0.081 C 
BRANCH  14  15
HETATM   15  C           1     -35.001  -3.029 -11.654  0.00  0.00    -0.056 A 
HETATM   16  C           1     -33.674  -2.982 -12.081  0.00  0.00     0.007 A 
HETATM   17  C           1     -32.816  -4.045 -11.805  0.00  0.00     0.001 A 
HETATM   18  C           1     -33.284  -5.156 -11.104  0.00  0.00     0.000 A 
HETATM   19  C           1     -34.611  -5.203 -10.677  0.00  0.00     0.001 A 
HETATM   20  C           1     -35.470  -4.139 -10.952  0.00  0.00     0.007 A 
ENDBRANCH  14  15
ENDBRANCH   1  14
BRANCH   1  21
HETATM   21  N           1     -35.854   0.424 -11.085  0.00  0.00    -0.066 N 
HETATM   22  H           1     -36.544  -0.067 -10.473  0.00  0.00     0.275 HD
HETATM   23  H           1     -36.355   1.106 -11.697  0.00  0.00     0.275 HD
HETATM   24  H           1     -35.161   0.933 -10.491  0.00  0.00     0.275 HD
ENDBRANCH   1  21
TORSDOF 8
ENDMDL
MODEL 2
REMARK VINA RESULT:      -7.5      1.421      2.997
REMARK  8 active torsions:
REMARK  status: ('A' for Active; 'I' for Inactive)
REMARK    1  A    between atoms: C_2  and  C_3 
REMARK    2  A    between atoms: C_2  and  C_10 
REMARK    3  A    between atoms: C_2  and  N_20 
REMARK       I    between atoms: C_3  and  N_18 
REMARK    4  A    between atoms: C_8  and  C_11 
REMARK    5  A    between atoms: C_10  and  C_21 
REMARK    6  A    between atoms: C_11  and  C_12 
REMARK    7  A    between atoms: C_11  and  N_18 
REMARK    8  A    between atoms: C_12  and  C_17 
ROOT
HETATM    1  C           1     -35.957  -0.547 -11.050  0.00  0.00     0.278 C 
ENDROOT
BRANCH   1   2
HETATM    2  C           1     -36.445  -0.373 -12.467  0.00  0.00     0.249 C 
HETATM    3  O           1     -37.629  -0.415 -12.707  0.00  0.00    -0.271 OA
HETATM    4  N           1     -35.548  -0.165 -13.480  0.00  0.00    -0.344 N 
HETATM    5  H           1     -34.558  -0.129 -13.279  0.00  0.00     0.163 HD
BRANCH   4   6
HETATM    6  C           1     -36.019   0.002 -14.841  0.00  0.00     0.195 C 
BRANCH   6   7
HETATM    7  C           1     -35.531  -1.149 -15.687  0.00  0.00     0.197 C 
HETATM    8  O           1     -35.722  -1.141 -16.922  0.00  0.00    -0.646 OA
HETATM    9  O           1     -34.937  -2.109 -15.152  0.00  0.00    -0.646 OA
ENDBRANCH   6   7
BRANCH   6  10
HETATM   10  C           1     -35.481   1.310 -15.408  0.00  0.00     0.149 C 
BRANCH  10  11
HETATM   11  C           1     -36.566   2.001 -16.196  0.00  0.00     0.175 C 
HETATM   12  O           1     -36.300   3.023 -16.865  0.00  0.00    -0.648 OA
HETATM   13  O           1     -37.733   1.551 -16.181  0.00  0.00    -0.648 OA
ENDBRANCH  10  11
ENDBRANCH   6  10
ENDBRANCH   4   6
ENDBRANCH   1   2
BRANCH   1  14
HETATM   14  C           1     -36.323  -1.939 -10.553  0.00  0.00     0.081 C 
BRANCH  14  15
HETATM   15  C           1     -35.209  -2.891 -10.863  0.00  0.00    -0.056 A 
HETATM   16  C           1     -35.461  -4.261 -10.926  0.00  0.00     0.007 A 
HETATM   17  C           1     -34.423  -5.147 -11.214  0.00  0.00     0.001 A 
HETATM   18  C           1     -33.135  -4.663 -11.439  0.00  0.00     0.000 A 
HETATM   19  C           1     -32.884  -3.292 -11.376  0.00  0.00     0.001 A 
HETATM   20  C           1     -33.921  -2.406 -11.088  0.00  0.00     0.007 A 
ENDBRANCH  14  15
ENDBRANCH   1  14
BRANCH   1  21
HETATM   21  N           1     -36.599   0.483 -10.170  0.00  0.00    -0.066 N 
HETATM   22  H           1     -37.636   0.358 -10.188  0.00  0.00     0.275 HD
HETATM   23  H           1     -36.357   1.439 -10.516  0.00  0.00     0.275 HD
HETATM   24  H           1     -36.251   0.370  -9.191  0.00  0.00     0.275 HD
ENDBRANCH   1  21
TORSDOF 8
ENDMDL
MODEL 3
REMARK VINA RESULT:      -7.3     14.754     17.415
REMARK  8 active torsions:
REMARK  status: ('A' for Active; 'I' for Inactive)
REMARK    1  A    between atoms: C_2  and  C_3 
REMARK    2  A    between atoms: C_2  and  C_10 
REMARK    3  A    between atoms: C_2  and  N_20 
REMARK       I    between atoms: C_3  and  N_18 
REMARK    4  A    between atoms: C_8  and  C_11 
REMARK    5  A    between atoms: C_10  and  C_21 
REMARK    6  A    between atoms: C_11  and  C_12 
REMARK    7  A    between atoms: C_11  and  N_18 
REMARK    8  A    between atoms: C_12  and  C_17 
ROOT
HETATM    1  C           1     -22.286  -5.216  -6.769  0.00  0.00     0.278 C 
ENDROOT
BRANCH   1   2
HETATM    2  C           1     -21.408  -5.672  -5.630  0.00  0.00     0.249 C 
HETATM    3  O           1     -20.479  -4.987  -5.272  0.00  0.00    -0.271 OA
HETATM    4  N           1     -21.665  -6.861  -5.002  0.00  0.00    -0.344 N 
HETATM    5  H           1     -22.442  -7.434  -5.301  0.00  0.00     0.163 HD
BRANCH   4   6
HETATM    6  C           1     -20.821  -7.298  -3.907  0.00  0.00     0.195 C 
BRANCH   6   7
HETATM    7  C           1     -19.909  -8.403  -4.384  0.00  0.00     0.197 C 
HETATM    8  O           1     -19.095  -8.926  -3.594  0.00  0.00    -0.646 OA
HETATM    9  O           1     -19.968  -8.792  -5.570  0.00  0.00    -0.646 OA
ENDBRANCH   6   7
BRANCH   6  10
HETATM   10  C           1     -21.692  -7.817  -2.769  0.00  0.00     0.149 C 
BRANCH  10  11
HETATM   11  C           1     -22.117  -6.663  -1.895  0.00  0.00     0.175 C 
HETATM   12  O           1     -21.884  -5.488  -2.254  0.00  0.00    -0.648 OA
HETATM   13  O           1     -22.704  -6.881  -0.813  0.00  0.00    -0.648 OA
ENDBRANCH  10  11
ENDBRANCH   6  10
ENDBRANCH   4   6
ENDBRANCH   1   2
BRANCH   1  14
HETATM   14  C           1     -21.716  -3.938  -7.371  0.00  0.00     0.081 C 
BRANCH  14  15
HETATM   15  C           1     -21.661  -4.069  -8.862  0.00  0.00    -0.056 A 
HETATM   16  C           1     -20.428  -4.108  -9.513  0.00  0.00     0.007 A 
HETATM   17  C           1     -20.376  -4.229 -10.901  0.00  0.00     0.001 A 
HETATM   18  C           1     -21.557  -4.310 -11.638  0.00  0.00     0.000 A 
HETATM   19  C           1     -22.791  -4.271 -10.987  0.00  0.00     0.001 A 
HETATM   20  C           1     -22.842  -4.150  -9.599  0.00  0.00     0.007 A 
ENDBRANCH  14  15
ENDBRANCH   1  14
BRANCH   1  21
HETATM   21  N           1     -23.671  -4.953  -6.259  0.00  0.00    -0.066 N 
HETATM   22  H           1     -23.691  -4.032  -5.765  0.00  0.00     0.275 HD
HETATM   23  H           1     -23.948  -5.711  -5.594  0.00  0.00     0.275 HD
HETATM   24  H           1     -24.340  -4.933  -7.062  0.00  0.00     0.275 HD
ENDBRANCH   1  21
TORSDOF 8
ENDMDL
MODEL 4
REMARK VINA RESULT:      -7.3     13.472     15.355
REMARK  8 active torsions:
REMARK  status: ('A' for Active; 'I' for Inactive)
REMARK    1  A    between atoms: C_2  and  C_3 
REMARK    2  A    between atoms: C_2  and  C_10 
REMARK    3  A    between atoms: C_2  and  N_20 
REMARK       I    between atoms: C_3  and  N_18 
REMARK    4  A    between atoms: C_8  and  C_11 
REMARK    5  A    between atoms: C_10  and  C_21 
REMARK    6  A    between atoms: C_11  and  C_12 
REMARK    7  A    between atoms: C_11  and  N_18 
REMARK    8  A    between atoms: C_12  and  C_17 
ROOT
HETATM    1  C           1     -21.131  -5.746  -6.796  0.00  0.00     0.278 C 
ENDROOT
BRANCH   1   2
HETATM    2  C           1     -21.668  -4.610  -7.632  0.00  0.00     0.249 C 
HETATM    3  O           1     -21.565  -3.472  -7.240  0.00  0.00    -0.271 OA
HETATM    4  N           1     -22.268  -4.870  -8.835  0.00  0.00    -0.344 N 
HETATM    5  H           1     -22.353  -5.823  -9.162  0.00  0.00     0.163 HD
BRANCH   4   6
HETATM    6  C           1     -22.783  -3.778  -9.638  0.00  0.00     0.195 C 
BRANCH   6   7
HETATM    7  C           1     -24.291  -3.840  -9.663  0.00  0.00     0.197 C 
HETATM    8  O           1     -24.868  -4.933  -9.852  0.00  0.00    -0.646 OA
HETATM    9  O           1     -24.962  -2.799  -9.496  0.00  0.00    -0.646 OA
ENDBRANCH   6   7
BRANCH   6  10
HETATM   10  C           1     -22.247  -3.896 -11.059  0.00  0.00     0.149 C 
BRANCH  10  11
HETATM   11  C           1     -20.747  -3.742 -11.046  0.00  0.00     0.175 C 
HETATM   12  O           1     -20.229  -2.637 -11.319  0.00  0.00    -0.648 OA
HETATM   13  O           1     -20.020  -4.719 -10.761  0.00  0.00    -0.648 OA
ENDBRANCH  10  11
ENDBRANCH   6  10
ENDBRANCH   4   6
ENDBRANCH   1   2
BRANCH   1  14
HETATM   14  C           1     -20.871  -5.255  -5.378  0.00  0.00     0.081 C 
BRANCH  14  15
HETATM   15  C           1     -21.153  -6.360  -4.407  0.00  0.00    -0.056 A 
HETATM   16  C           1     -21.267  -7.673  -4.860  0.00  0.00     0.007 A 
HETATM   17  C           1     -21.530  -8.702  -3.955  0.00  0.00     0.001 A 
HETATM   18  C           1     -21.679  -8.417  -2.598  0.00  0.00     0.000 A 
HETATM   19  C           1     -21.564  -7.102  -2.145  0.00  0.00     0.001 A 
HETATM   20  C           1     -21.301  -6.073  -3.050  0.00  0.00     0.007 A 
ENDBRANCH  14  15
ENDBRANCH   1  14
BRANCH   1  21
HETATM   21  N           1     -19.850  -6.246  -7.395  0.00  0.00    -0.066 N 
HETATM   22  H           1     -20.032  -7.135  -7.913  0.00  0.00     0.275 HD
HETATM   23  H           1     -19.155  -6.421  -6.634  0.00  0.00     0.275 HD
HETATM   24  H           1     -19.471  -5.529  -8.054  0.00  0.00     0.275 HD
ENDBRANCH   1  21
TORSDOF 8
ENDMDL
MODEL 5
REMARK VINA RESULT:      -7.0     14.993     17.554
REMARK  8 active torsions:
REMARK  status: ('A' for Active; 'I' for Inactive)
REMARK    1  A    between atoms: C_2  and  C_3 
REMARK    2  A    between atoms: C_2  and  C_10 
REMARK    3  A    between atoms: C_2  and  N_20 
REMARK       I    between atoms: C_3  and  N_18 
REMARK    4  A    between atoms: C_8  and  C_11 
REMARK    5  A    between atoms: C_10  and  C_21 
REMARK    6  A    between atoms: C_11  and  C_12 
REMARK    7  A    between atoms: C_11  and  N_18 
REMARK    8  A    between atoms: C_12  and  C_17 
ROOT
HETATM    1  C           1     -21.018  -4.960  -6.310  0.00  0.00     0.278 C 
ENDROOT
BRANCH   1   2
HETATM    2  C           1     -21.721  -5.900  -5.362  0.00  0.00     0.249 C 
HETATM    3  O           1     -22.928  -5.965  -5.360  0.00  0.00    -0.271 OA
HETATM    4  N           1     -20.992  -6.680  -4.505  0.00  0.00    -0.344 N 
HETATM    5  H           1     -19.982  -6.625  -4.506  0.00  0.00     0.163 HD
BRANCH   4   6
HETATM    6  C           1     -21.668  -7.583  -3.594  0.00  0.00     0.195 C 
BRANCH   6   7
HETATM    7  C           1     -21.683  -6.982  -2.209  0.00  0.00     0.197 C 
HETATM    8  O           1     -22.325  -5.932  -1.991  0.00  0.00    -0.646 OA
HETATM    9  O           1     -21.053  -7.534  -1.282  0.00  0.00    -0.646 OA
ENDBRANCH   6   7
BRANCH   6  10
HETATM   10  C           1     -20.931  -8.916  -3.560  0.00  0.00     0.149 C 
BRANCH  10  11
HETATM   11  C           1     -20.217  -9.130  -4.871  0.00  0.00     0.175 C 
HETATM   12  O           1     -20.861  -9.485  -5.883  0.00  0.00    -0.648 OA
HETATM   13  O           1     -18.982  -8.953  -4.948  0.00  0.00    -0.648 OA
ENDBRANCH  10  11
ENDBRANCH   6  10
ENDBRANCH   4   6
ENDBRANCH   1   2
BRANCH   1  14
HETATM   14  C           1     -20.659  -5.703  -7.590  0.00  0.00     0.081 C 
BRANCH  14  15
HETATM   15  C           1     -21.066  -4.884  -8.775  0.00  0.00    -0.056 A 
HETATM   16  C           1     -20.147  -4.625  -9.792  0.00  0.00     0.007 A 
HETATM   17  C           1     -20.526  -3.862 -10.896  0.00  0.00     0.001 A 
HETATM   18  C           1     -21.823  -3.357 -10.983  0.00  0.00     0.000 A 
HETATM   19  C           1     -22.742  -3.616  -9.965  0.00  0.00     0.001 A 
HETATM   20  C           1     -22.363  -4.379  -8.861  0.00  0.00     0.007 A 
ENDBRANCH  14  15
ENDBRANCH   1  14
BRANCH   1  21
HETATM   21  N           1     -19.767  -4.443  -5.664  0.00  0.00    -0.066 N 
HETATM   22  H           1     -19.575  -4.986  -4.793  0.00  0.00     0.275 HD
HETATM   23  H           1     -19.889  -3.433  -5.425  0.00  0.00     0.275 HD
HETATM   24  H           1     -18.965  -4.549  -6.326  0.00  0.00     0.275 HD
ENDBRANCH   1  21
TORSDOF 8
ENDMDL
MODEL 6
REMARK VINA RESULT:      -6.7     15.425     18.013
REMARK  8 active torsions:
REMARK  status: ('A' for Active; 'I' for Inactive)
REMARK    1  A    between atoms: C_2  and  C_3 
REMARK    2  A    between atoms: C_2  and  C_10 
REMARK    3  A    between atoms: C_2  and  N_20 
REMARK       I    between atoms: C_3  and  N_18 
REMARK    4  A    between atoms: C_8  and  C_11 
REMARK    5  A    between atoms: C_10  and  C_21 
REMARK    6  A    between atoms: C_11  and  C_12 
REMARK    7  A    between atoms: C_11  and  N_18 
REMARK    8  A    between atoms: C_12  and  C_17 
ROOT
HETATM    1  C           1     -21.825  -6.107  -6.105  0.00  0.00     0.278 C 
ENDROOT
BRANCH   1   2
HETATM    2  C           1     -21.012  -6.969  -5.171  0.00  0.00     0.249 C 
HETATM    3  O           1     -19.844  -7.173  -5.402  0.00  0.00    -0.271 OA
HETATM    4  N           1     -21.597  -7.517  -4.061  0.00  0.00    -0.344 N 
HETATM    5  H           1     -22.575  -7.345  -3.868  0.00  0.00     0.163 HD
BRANCH   4   6
HETATM    6  C           1     -20.815  -8.345  -3.164  0.00  0.00     0.195 C 
BRANCH   6   7
HETATM    7  C           1     -21.517  -9.665  -2.958  0.00  0.00     0.197 C 
HETATM    8  O           1     -21.313 -10.326  -1.916  0.00  0.00    -0.646 OA
HETATM    9  O           1     -22.300 -10.099  -3.830  0.00  0.00    -0.646 OA
ENDBRANCH   6   7
BRANCH   6  10
HETATM   10  C           1     -20.663  -7.638  -1.823  0.00  0.00     0.149 C 
BRANCH  10  11
HETATM   11  C           1     -21.949  -6.927  -1.480  0.00  0.00     0.175 C 
HETATM   12  O           1     -22.742  -7.432  -0.655  0.00  0.00    -0.648 OA
HETATM   13  O           1     -22.222  -5.833  -2.020  0.00  0.00    -0.648 OA
ENDBRANCH  10  11
ENDBRANCH   6  10
ENDBRANCH   4   6
ENDBRANCH   1   2
BRANCH   1  14
HETATM   14  C           1     -21.057  -4.831  -6.418  0.00  0.00     0.081 C 
BRANCH  14  15
HETATM   15  C           1     -21.162  -4.529  -7.882  0.00  0.00    -0.056 A 
HETATM   16  C           1     -22.337  -3.984  -8.397  0.00  0.00     0.007 A 
HETATM   17  C           1     -22.436  -3.703  -9.760  0.00  0.00     0.001 A 
HETATM   18  C           1     -21.360  -3.969 -10.606  0.00  0.00     0.000 A 
HETATM   19  C           1     -20.185  -4.514 -10.090  0.00  0.00     0.001 A 
HETATM   20  C           1     -20.086  -4.795  -8.728  0.00  0.00     0.007 A 
ENDBRANCH  14  15
ENDBRANCH   1  14
BRANCH   1  21
HETATM   21  N           1     -23.130  -5.758  -5.453  0.00  0.00    -0.066 N 
HETATM   22  H           1     -23.409  -6.523  -4.799  0.00  0.00     0.275 HD
HETATM   23  H           1     -23.866  -5.641  -6.186  0.00  0.00     0.275 HD
HETATM   24  H           1     -23.025  -4.865  -4.921  0.00  0.00     0.275 HD
ENDBRANCH   1  21
TORSDOF 8
ENDMDL
MODEL 7
REMARK VINA RESULT:      -6.7      3.299      5.511
REMARK  8 active torsions:
REMARK  status: ('A' for Active; 'I' for Inactive)
REMARK    1  A    between atoms: C_2  and  C_3 
REMARK    2  A    between atoms: C_2  and  C_10 
REMARK    3  A    between atoms: C_2  and  N_20 
REMARK       I    between atoms: C_3  and  N_18 
REMARK    4  A    between atoms: C_8  and  C_11 
REMARK    5  A    between atoms: C_10  and  C_21 
REMARK    6  A    between atoms: C_11  and  C_12 
REMARK    7  A    between atoms: C_11  and  N_18 
REMARK    8  A    between atoms: C_12  and  C_17 
ROOT
HETATM    1  C           1     -36.525  -0.356 -11.975  0.00  0.00     0.278 C 
ENDROOT
BRANCH   1   2
HETATM    2  C           1     -35.362  -1.055 -12.633  0.00  0.00     0.249 C 
HETATM    3  O           1     -34.708  -0.480 -13.471  0.00  0.00    -0.271 OA
HETATM    4  N           1     -35.046  -2.339 -12.280  0.00  0.00    -0.344 N 
HETATM    5  H           1     -35.593  -2.820 -11.578  0.00  0.00     0.163 HD
BRANCH   4   6
HETATM    6  C           1     -33.927  -3.010 -12.913  0.00  0.00     0.195 C 
BRANCH   6   7
HETATM    7  C           1     -34.445  -4.067 -13.859  0.00  0.00     0.197 C 
HETATM    8  O           1     -35.023  -5.080 -13.408  0.00  0.00    -0.646 OA
HETATM    9  O           1     -34.294  -3.930 -15.091  0.00  0.00    -0.646 OA
ENDBRANCH   6   7
BRANCH   6  10
HETATM   10  C           1     -33.058  -3.666 -11.848  0.00  0.00     0.149 C 
BRANCH  10  11
HETATM   11  C           1     -33.810  -3.708 -10.541  0.00  0.00     0.175 C 
HETATM   12  O           1     -33.849  -2.694  -9.809  0.00  0.00    -0.648 OA
HETATM   13  O           1     -34.396  -4.755 -10.189  0.00  0.00    -0.648 OA
ENDBRANCH  10  11
ENDBRANCH   6  10
ENDBRANCH   4   6
ENDBRANCH   1   2
BRANCH   1  14
HETATM   14  C           1     -36.924  -1.110 -10.713  0.00  0.00     0.081 C 
BRANCH  14  15
HETATM   15  C           1     -37.082  -0.143  -9.581  0.00  0.00    -0.056 A 
HETATM   16  C           1     -37.922   0.961  -9.720  0.00  0.00     0.007 A 
HETATM   17  C           1     -38.070   1.862  -8.666  0.00  0.00     0.001 A 
HETATM   18  C           1     -37.377   1.660  -7.473  0.00  0.00     0.000 A 
HETATM   19  C           1     -36.537   0.555  -7.333  0.00  0.00     0.001 A 
HETATM   20  C           1     -36.389  -0.346  -8.387  0.00  0.00     0.007 A 
ENDBRANCH  14  15
ENDBRANCH   1  14
BRANCH   1  21
HETATM   21  N           1     -37.688  -0.319 -12.922  0.00  0.00    -0.066 N 
HETATM   22  H           1     -37.417  -0.776 -13.822  0.00  0.00     0.275 HD
HETATM   23  H           1     -37.959   0.674 -13.103  0.00  0.00     0.275 HD
HETATM   24  H           1     -38.496  -0.829 -12.501  0.00  0.00     0.275 HD
ENDBRANCH   1  21
TORSDOF 8
ENDMDL
MODEL 8
REMARK VINA RESULT:      -6.6     15.434     18.131
REMARK  8 active torsions:
REMARK  status: ('A' for Active; 'I' for Inactive)
REMARK    1  A    between atoms: C_2  and  C_3 
REMARK    2  A    between atoms: C_2  and  C_10 
REMARK    3  A    between atoms: C_2  and  N_20 
REMARK       I    between atoms: C_3  and  N_18 
REMARK    4  A    between atoms: C_8  and  C_11 
REMARK    5  A    between atoms: C_10  and  C_21 
REMARK    6  A    between atoms: C_11  and  C_12 
REMARK    7  A    between atoms: C_11  and  N_18 
REMARK    8  A    between atoms: C_12  and  C_17 
ROOT
HETATM    1  C           1     -21.551  -6.026  -6.394  0.00  0.00     0.278 C 
ENDROOT
BRANCH   1   2
HETATM    2  C           1     -20.437  -6.976  -6.029  0.00  0.00     0.249 C 
HETATM    3  O           1     -19.393  -6.943  -6.636  0.00  0.00    -0.271 OA
HETATM    4  N           1     -20.609  -7.874  -5.010  0.00  0.00    -0.344 N 
HETATM    5  H           1     -21.484  -7.901  -4.502  0.00  0.00     0.163 HD
BRANCH   4   6
HETATM    6  C           1     -19.539  -8.786  -4.660  0.00  0.00     0.195 C 
BRANCH   6   7
HETATM    7  C           1     -19.810 -10.139  -5.273  0.00  0.00     0.197 C 
HETATM    8  O           1     -18.994 -11.073  -5.111  0.00  0.00    -0.646 OA
HETATM    9  O           1     -20.847 -10.324  -5.944  0.00  0.00    -0.646 OA
ENDBRANCH   6   7
BRANCH   6  10
HETATM   10  C           1     -19.463  -8.924  -3.144  0.00  0.00     0.149 C 
BRANCH  10  11
HETATM   11  C           1     -20.750  -8.432  -2.530  0.00  0.00     0.175 C 
HETATM   12  O           1     -20.832  -7.258  -2.107  0.00  0.00    -0.648 OA
HETATM   13  O           1     -21.735  -9.198  -2.443  0.00  0.00    -0.648 OA
ENDBRANCH  10  11
ENDBRANCH   6  10
ENDBRANCH   4   6
ENDBRANCH   1   2
BRANCH   1  14
HETATM   14  C           1     -20.963  -4.671  -6.766  0.00  0.00     0.081 C 
BRANCH  14  15
HETATM   15  C           1     -21.204  -4.404  -8.220  0.00  0.00    -0.056 A 
HETATM   16  C           1     -20.172  -4.580  -9.141  0.00  0.00     0.007 A 
HETATM   17  C           1     -20.396  -4.331 -10.495  0.00  0.00     0.001 A 
HETATM   18  C           1     -21.652  -3.904 -10.927  0.00  0.00     0.000 A 
HETATM   19  C           1     -22.684  -3.728 -10.005  0.00  0.00     0.001 A 
HETATM   20  C           1     -22.460  -3.977  -8.651  0.00  0.00     0.007 A 
ENDBRANCH  14  15
ENDBRANCH   1  14
BRANCH   1  21
HETATM   21  N           1     -22.474  -5.865  -5.223  0.00  0.00    -0.066 N 
HETATM   22  H           1     -22.686  -4.851  -5.085  0.00  0.00     0.275 HD
HETATM   23  H           1     -22.018  -6.247  -4.364  0.00  0.00     0.275 HD
HETATM   24  H           1     -23.362  -6.385  -5.406  0.00  0.00     0.275 HD
ENDBRANCH   1  21
TORSDOF 8
ENDMDL
MODEL 9
REMARK VINA RESULT:      -6.5     16.600     19.241
REMARK  8 active torsions:
REMARK  status: ('A' for Active; 'I' for Inactive)
REMARK    1  A    between atoms: C_2  and  C_3 
REMARK    2  A    between atoms: C_2  and  C_10 
REMARK    3  A    between atoms: C_2  and  N_20 
REMARK       I    between atoms: C_3  and  N_18 
REMARK    4  A    between atoms: C_8  and  C_11 
REMARK    5  A    between atoms: C_10  and  C_21 
REMARK    6  A    between atoms: C_11  and  C_12 
REMARK    7  A    between atoms: C_11  and  N_18 
REMARK    8  A    between atoms: C_12  and  C_17 
ROOT
HETATM    1  C           1     -20.448  -7.870  -4.792  0.00  0.00     0.278 C 
ENDROOT
BRANCH   1   2
HETATM    2  C           1     -20.209  -8.523  -3.453  0.00  0.00     0.249 C 
HETATM    3  O           1     -19.110  -8.940  -3.173  0.00  0.00    -0.271 OA
HETATM    4  N           1     -21.236  -8.641  -2.556  0.00  0.00    -0.344 N 
HETATM    5  H           1     -22.155  -8.292  -2.791  0.00  0.00     0.163 HD
BRANCH   4   6
HETATM    6  C           1     -21.005  -9.269  -1.270  0.00  0.00     0.195 C 
BRANCH   6   7
HETATM    7  C           1     -22.016 -10.370  -1.059  0.00  0.00     0.197 C 
HETATM    8  O           1     -22.848 -10.634  -1.954  0.00  0.00    -0.646 OA
HETATM    9  O           1     -22.021 -11.017   0.010  0.00  0.00    -0.646 OA
ENDBRANCH   6   7
BRANCH   6  10
HETATM   10  C           1     -21.150  -8.231  -0.164  0.00  0.00     0.149 C 
BRANCH  10  11
HETATM   11  C           1     -22.480  -7.534  -0.300  0.00  0.00     0.175 C 
HETATM   12  O           1     -23.433  -7.854   0.444  0.00  0.00    -0.648 OA
HETATM   13  O           1     -22.631  -6.634  -1.155  0.00  0.00    -0.648 OA
ENDBRANCH  10  11
ENDBRANCH   6  10
ENDBRANCH   4   6
ENDBRANCH   1   2
BRANCH   1  14
HETATM   14  C           1     -21.334  -6.645  -4.609  0.00  0.00     0.081 C 
BRANCH  14  15
HETATM   15  C           1     -21.132  -5.704  -5.757  0.00  0.00    -0.056 A 
HETATM   16  C           1     -19.841  -5.362  -6.157  0.00  0.00     0.007 A 
HETATM   17  C           1     -19.651  -4.486  -7.225  0.00  0.00     0.001 A 
HETATM   18  C           1     -20.753  -3.953  -7.893  0.00  0.00     0.000 A 
HETATM   19  C           1     -22.045  -4.296  -7.493  0.00  0.00     0.001 A 
HETATM   20  C           1     -22.234  -5.171  -6.424  0.00  0.00     0.007 A 
ENDBRANCH  14  15
ENDBRANCH   1  14
BRANCH   1  21
HETATM   21  N           1     -21.125  -8.844  -5.710  0.00  0.00    -0.066 N 
HETATM   22  H           1     -21.501  -8.334  -6.541  0.00  0.00     0.275 HD
HETATM   23  H           1     -21.911  -9.312  -5.204  0.00  0.00     0.275 HD
HETATM   24  H           1     -20.436  -9.563  -6.024  0.00  0.00     0.275 HD
ENDBRANCH   1  21
TORSDOF 8
ENDMDL
