MODEL 1
REMARK VINA RESULT:      -7.5      0.000      0.000
REMARK  7 active torsions:
REMARK  status: ('A' for Active; 'I' for Inactive)
REMARK    1  A    between atoms: C_6  and  C_7 
REMARK    2  A    between atoms: C_6  and  C_17 
REMARK    3  A    between atoms: C_7  and  C_16 
REMARK    4  A    between atoms: C_7  and  N_8 
REMARK       I    between atoms: N_8  and  C_15 
REMARK    5  A    between atoms: N_12  and  C_25 
REMARK    6  A    between atoms: C_15  and  C_25 
REMARK    7  A    between atoms: C_21  and  C_25 
ROOT
HETATM    1  C           1     -21.414  -6.470  -5.273  0.00  0.00     0.190 C 
ENDROOT
BRANCH   1   2
HETATM    2  C           1     -20.930  -5.157  -5.875  0.00  0.00     0.077 C 
BRANCH   2   3
HETATM    3  C           1     -21.828  -4.768  -7.009  0.00  0.00    -0.028 A 
HETATM    4  C           1     -21.438  -4.591  -8.364  0.00  0.00    -0.002 A 
HETATM    5  C           1     -22.581  -4.232  -9.079  0.00  0.00     0.042 A 
HETATM    6  C           1     -20.215  -4.703  -9.055  0.00  0.00     0.014 A 
HETATM    7  N           1     -23.623  -4.194  -8.179  0.00  0.00    -0.365 N 
HETATM    8  C           1     -22.564  -3.978 -10.455  0.00  0.00     0.030 A 
HETATM    9  C           1     -23.179  -4.517  -6.924  0.00  0.00     0.096 A 
HETATM   10  H           1     -24.617  -3.953  -8.421  0.00  0.00     0.165 HD
HETATM   11  C           1     -21.339  -4.094 -11.118  0.00  0.00     0.002 A 
HETATM   12  C           1     -20.180  -4.452 -10.432  0.00  0.00     0.001 A 
ENDBRANCH   2   3
ENDBRANCH   1   2
BRANCH   1  13
HETATM   13  C           1     -20.703  -7.622  -5.940  0.00  0.00     0.197 C 
HETATM   14  O           1     -21.269  -8.731  -6.042  0.00  0.00    -0.646 OA
HETATM   15  O           1     -19.548  -7.467  -6.391  0.00  0.00    -0.646 OA
ENDBRANCH   1  13
BRANCH   1  16
HETATM   16  N           1     -21.125  -6.484  -3.851  0.00  0.00    -0.344 N 
HETATM   17  C           1     -20.873  -7.671  -3.217  0.00  0.00     0.249 C 
HETATM   18  O           1     -19.741  -8.087  -3.143  0.00  0.00    -0.271 OA
HETATM   19  H           1     -21.112  -5.619  -3.328  0.00  0.00     0.163 HD
BRANCH  17  20
HETATM   20  C           1     -22.008  -8.460  -2.611  0.00  0.00     0.278 C 
BRANCH  20  21
HETATM   21  N           1     -21.957  -9.873  -3.112  0.00  0.00    -0.066 N 
HETATM   22  H           1     -21.372 -10.451  -2.467  0.00  0.00     0.275 HD
HETATM   23  H           1     -22.925 -10.264  -3.148  0.00  0.00     0.275 HD
HETATM   24  H           1     -21.539  -9.887  -4.070  0.00  0.00     0.275 HD
ENDBRANCH  20  21
BRANCH  20  25
HETATM   25  C           1     -21.876  -8.455  -1.094  0.00  0.00     0.017 C 
HETATM   26  C           1     -22.416  -7.143  -0.540  0.00  0.00     0.012 C 
HETATM   27  C           1     -22.671  -9.616  -0.511  0.00  0.00     0.012 C 
ENDBRANCH  20  25
ENDBRANCH  17  20
ENDBRANCH   1  16
TORSDOF 7
ENDMDL
MODEL 2
REMARK VINA RESULT:      -7.4      1.988      2.755
REMARK  7 active torsions:
REMARK  status: ('A' for Active; 'I' for Inactive)
REMARK    1  A    between atoms: C_6  and  C_7 
REMARK    2  A    between atoms: C_6  and  C_17 
REMARK    3  A    between atoms: C_7  and  C_16 
REMARK    4  A    between atoms: C_7  and  N_8 
REMARK       I    between atoms: N_8  and  C_15 
REMARK    5  A    between atoms: N_12  and  C_25 
REMARK    6  A    between atoms: C_15  and  C_25 
REMARK    7  A    between atoms: C_21  and  C_25 
ROOT
HETATM    1  C           1     -20.740  -9.176  -4.316  0.00  0.00     0.190 C 
ENDROOT
BRANCH   1   2
HETATM    2  C           1     -20.001  -7.910  -4.728  0.00  0.00     0.077 C 
BRANCH   2   3
HETATM    3  C           1     -20.980  -6.912  -5.264  0.00  0.00    -0.028 A 
HETATM    4  C           1     -20.723  -5.944  -6.273  0.00  0.00    -0.002 A 
HETATM    5  C           1     -21.904  -5.226  -6.465  0.00  0.00     0.042 A 
HETATM    6  C           1     -19.594  -5.609  -7.046  0.00  0.00     0.014 A 
HETATM    7  N           1     -22.838  -5.746  -5.597  0.00  0.00    -0.365 N 
HETATM    8  C           1     -22.013  -4.185  -7.394  0.00  0.00     0.030 A 
HETATM    9  C           1     -22.290  -6.766  -4.866  0.00  0.00     0.096 A 
HETATM   10  H           1     -23.830  -5.409  -5.509  0.00  0.00     0.165 HD
HETATM   11  C           1     -20.879  -3.871  -8.149  0.00  0.00     0.002 A 
HETATM   12  C           1     -19.686  -4.570  -7.980  0.00  0.00     0.001 A 
ENDBRANCH   2   3
ENDBRANCH   1   2
BRANCH   1  13
HETATM   13  C           1     -20.329 -10.315  -5.216  0.00  0.00     0.197 C 
HETATM   14  O           1     -21.034 -10.619  -6.202  0.00  0.00    -0.646 OA
HETATM   15  O           1     -19.281 -10.954  -4.976  0.00  0.00    -0.646 OA
ENDBRANCH   1  13
BRANCH   1  16
HETATM   16  N           1     -20.409  -9.503  -2.942  0.00  0.00    -0.344 N 
HETATM   17  C           1     -21.328 -10.138  -2.150  0.00  0.00     0.249 C 
HETATM   18  O           1     -21.361 -11.345  -2.112  0.00  0.00    -0.271 OA
HETATM   19  H           1     -19.500  -9.263  -2.569  0.00  0.00     0.163 HD
BRANCH  17  20
HETATM   20  C           1     -22.300  -9.330  -1.325  0.00  0.00     0.278 C 
BRANCH  20  21
HETATM   21  N           1     -22.889 -10.200  -0.255  0.00  0.00    -0.066 N 
HETATM   22  H           1     -23.882 -10.422  -0.493  0.00  0.00     0.275 HD
HETATM   23  H           1     -22.342 -11.088  -0.188  0.00  0.00     0.275 HD
HETATM   24  H           1     -22.853  -9.698   0.661  0.00  0.00     0.275 HD
ENDBRANCH  20  21
BRANCH  20  25
HETATM   25  C           1     -21.569  -8.159  -0.682  0.00  0.00     0.017 C 
HETATM   26  C           1     -22.182  -6.851  -1.165  0.00  0.00     0.012 C 
HETATM   27  C           1     -21.698  -8.250   0.833  0.00  0.00     0.012 C 
ENDBRANCH  20  25
ENDBRANCH  17  20
ENDBRANCH   1  16
TORSDOF 7
ENDMDL
MODEL 3
REMARK VINA RESULT:      -7.3      1.745      7.071
REMARK  7 active torsions:
REMARK  status: ('A' for Active; 'I' for Inactive)
REMARK    1  A    between atoms: C_6  and  C_7 
REMARK    2  A    between atoms: C_6  and  C_17 
REMARK    3  A    between atoms: C_7  and  C_16 
REMARK    4  A    between atoms: C_7  and  N_8 
REMARK       I    between atoms: N_8  and  C_15 
REMARK    5  A    between atoms: N_12  and  C_25 
REMARK    6  A    between atoms: C_15  and  C_25 
REMARK    7  A    between atoms: C_21  and  C_25 
ROOT
HETATM    1  C           1     -20.066  -7.370  -5.329  0.00  0.00     0.190 C 
ENDROOT
BRANCH   1   2
HETATM    2  C           1     -21.437  -7.860  -4.880  0.00  0.00     0.077 C 
BRANCH   2   3
HETATM    3  C           1     -21.745  -7.304  -3.524  0.00  0.00    -0.028 A 
HETATM    4  C           1     -21.845  -8.048  -2.316  0.00  0.00    -0.002 A 
HETATM    5  C           1     -22.146  -7.141  -1.298  0.00  0.00     0.042 A 
HETATM    6  C           1     -21.708  -9.411  -1.990  0.00  0.00     0.014 A 
HETATM    7  N           1     -22.224  -5.895  -1.879  0.00  0.00    -0.365 N 
HETATM    8  C           1     -22.317  -7.531   0.035  0.00  0.00     0.030 A 
HETATM    9  C           1     -21.983  -5.981  -3.224  0.00  0.00     0.096 A 
HETATM   10  H           1     -22.437  -5.004  -1.362  0.00  0.00     0.165 HD
HETATM   11  C           1     -22.177  -8.890   0.334  0.00  0.00     0.002 A 
HETATM   12  C           1     -21.877  -9.818  -0.661  0.00  0.00     0.001 A 
ENDBRANCH   2   3
ENDBRANCH   1   2
BRANCH   1  13
HETATM   13  C           1     -19.070  -8.499  -5.228  0.00  0.00     0.197 C 
HETATM   14  O           1     -18.777  -8.976  -4.110  0.00  0.00    -0.646 OA
HETATM   15  O           1     -18.539  -8.959  -6.261  0.00  0.00    -0.646 OA
ENDBRANCH   1  13
BRANCH   1  16
HETATM   16  N           1     -20.142  -6.917  -6.705  0.00  0.00    -0.344 N 
HETATM   17  C           1     -20.128  -5.577  -6.985  0.00  0.00     0.249 C 
HETATM   18  O           1     -19.078  -5.010  -7.175  0.00  0.00    -0.271 OA
HETATM   19  H           1     -20.206  -7.590  -7.457  0.00  0.00     0.163 HD
BRANCH  17  20
HETATM   20  C           1     -21.425  -4.807  -7.057  0.00  0.00     0.278 C 
BRANCH  20  21
HETATM   21  N           1     -21.158  -3.356  -6.788  0.00  0.00    -0.066 N 
HETATM   22  H           1     -21.402  -3.135  -5.795  0.00  0.00     0.275 HD
HETATM   23  H           1     -20.146  -3.152  -6.950  0.00  0.00     0.275 HD
HETATM   24  H           1     -21.740  -2.770  -7.428  0.00  0.00     0.275 HD
ENDBRANCH  20  21
BRANCH  20  25
HETATM   25  C           1     -22.031  -4.963  -8.445  0.00  0.00     0.017 C 
HETATM   26  C           1     -23.370  -4.240  -8.499  0.00  0.00     0.012 C 
HETATM   27  C           1     -21.089  -4.362  -9.481  0.00  0.00     0.012 C 
ENDBRANCH  20  25
ENDBRANCH  17  20
ENDBRANCH   1  16
TORSDOF 7
ENDMDL
MODEL 4
REMARK VINA RESULT:      -7.2      1.733      7.487
REMARK  7 active torsions:
REMARK  status: ('A' for Active; 'I' for Inactive)
REMARK    1  A    between atoms: C_6  and  C_7 
REMARK    2  A    between atoms: C_6  and  C_17 
REMARK    3  A    between atoms: C_7  and  C_16 
REMARK    4  A    between atoms: C_7  and  N_8 
REMARK       I    between atoms: N_8  and  C_15 
REMARK    5  A    between atoms: N_12  and  C_25 
REMARK    6  A    between atoms: C_15  and  C_25 
REMARK    7  A    between atoms: C_21  and  C_25 
ROOT
HETATM    1  C           1     -21.185  -7.177  -5.820  0.00  0.00     0.190 C 
ENDROOT
BRANCH   1   2
HETATM    2  C           1     -20.207  -7.965  -4.958  0.00  0.00     0.077 C 
BRANCH   2   3
HETATM    3  C           1     -20.957  -8.980  -4.154  0.00  0.00    -0.028 A 
HETATM    4  C           1     -21.240  -8.904  -2.762  0.00  0.00    -0.002 A 
HETATM    5  C           1     -21.955 -10.054  -2.425  0.00  0.00     0.042 A 
HETATM    6  C           1     -20.955  -7.964  -1.753  0.00  0.00     0.014 A 
HETATM    7  N           1     -22.096 -10.795  -3.577  0.00  0.00    -0.365 N 
HETATM    8  C           1     -22.402 -10.312  -1.124  0.00  0.00     0.030 A 
HETATM    9  C           1     -21.496 -10.155  -4.629  0.00  0.00     0.096 A 
HETATM   10  H           1     -22.593 -11.719  -3.640  0.00  0.00     0.165 HD
HETATM   11  C           1     -22.105  -9.364  -0.139  0.00  0.00     0.002 A 
HETATM   12  C           1     -21.394  -8.206  -0.446  0.00  0.00     0.001 A 
ENDBRANCH   2   3
ENDBRANCH   1   2
BRANCH   1  13
HETATM   13  C           1     -21.943  -6.199  -4.956  0.00  0.00     0.197 C 
HETATM   14  O           1     -23.167  -6.023  -5.137  0.00  0.00    -0.646 OA
HETATM   15  O           1     -21.347  -5.566  -4.058  0.00  0.00    -0.646 OA
ENDBRANCH   1  13
BRANCH   1  16
HETATM   16  N           1     -20.453  -6.451  -6.841  0.00  0.00    -0.344 N 
HETATM   17  C           1     -20.807  -5.165  -7.151  0.00  0.00     0.249 C 
HETATM   18  O           1     -20.302  -4.240  -6.560  0.00  0.00    -0.271 OA
HETATM   19  H           1     -19.683  -6.894  -7.324  0.00  0.00     0.163 HD
BRANCH  17  20
HETATM   20  C           1     -21.828  -4.903  -8.231  0.00  0.00     0.278 C 
BRANCH  20  21
HETATM   21  N           1     -23.015  -4.204  -7.637  0.00  0.00    -0.066 N 
HETATM   22  H           1     -22.747  -3.783  -6.718  0.00  0.00     0.275 HD
HETATM   23  H           1     -23.334  -3.448  -8.284  0.00  0.00     0.275 HD
HETATM   24  H           1     -23.788  -4.891  -7.494  0.00  0.00     0.275 HD
ENDBRANCH  20  21
BRANCH  20  25
HETATM   25  C           1     -21.210  -4.025  -9.311  0.00  0.00     0.017 C 
HETATM   26  C           1     -20.117  -4.801 -10.034  0.00  0.00     0.012 C 
HETATM   27  C           1     -22.286  -3.616 -10.309  0.00  0.00     0.012 C 
ENDBRANCH  20  25
ENDBRANCH  17  20
ENDBRANCH   1  16
TORSDOF 7
ENDMDL
MODEL 5
REMARK VINA RESULT:      -7.0      4.180      7.416
REMARK  7 active torsions:
REMARK  status: ('A' for Active; 'I' for Inactive)
REMARK    1  A    between atoms: C_6  and  C_7 
REMARK    2  A    between atoms: C_6  and  C_17 
REMARK    3  A    between atoms: C_7  and  C_16 
REMARK    4  A    between atoms: C_7  and  N_8 
REMARK       I    between atoms: N_8  and  C_15 
REMARK    5  A    between atoms: N_12  and  C_25 
REMARK    6  A    between atoms: C_15  and  C_25 
REMARK    7  A    between atoms: C_21  and  C_25 
ROOT
HETATM    1  C           1     -21.199  -7.667  -3.051  0.00  0.00     0.190 C 
ENDROOT
BRANCH   1   2
HETATM    2  C           1     -20.820  -7.818  -1.584  0.00  0.00     0.077 C 
BRANCH   2   3
HETATM    3  C           1     -21.950  -8.461  -0.841  0.00  0.00    -0.028 A 
HETATM    4  C           1     -22.449  -9.776  -1.049  0.00  0.00    -0.002 A 
HETATM    5  C           1     -23.498  -9.965  -0.148  0.00  0.00     0.042 A 
HETATM    6  C           1     -22.109 -10.828  -1.922  0.00  0.00     0.014 A 
HETATM    7  N           1     -23.622  -8.801   0.577  0.00  0.00    -0.365 N 
HETATM    8  C           1     -24.226 -11.159  -0.076  0.00  0.00     0.030 A 
HETATM    9  C           1     -22.691  -7.885   0.166  0.00  0.00     0.096 A 
HETATM   10  H           1     -24.330  -8.639   1.336  0.00  0.00     0.165 HD
HETATM   11  C           1     -23.869 -12.187  -0.953  0.00  0.00     0.002 A 
HETATM   12  C           1     -22.827 -12.028  -1.863  0.00  0.00     0.001 A 
ENDBRANCH   2   3
ENDBRANCH   1   2
BRANCH   1  13
HETATM   13  C           1     -22.019  -6.413  -3.232  0.00  0.00     0.197 C 
HETATM   14  O           1     -22.250  -5.670  -2.255  0.00  0.00    -0.646 OA
HETATM   15  O           1     -22.468  -6.117  -4.361  0.00  0.00    -0.646 OA
ENDBRANCH   1  13
BRANCH   1  16
HETATM   16  N           1     -19.994  -7.574  -3.854  0.00  0.00    -0.344 N 
HETATM   17  C           1     -19.820  -8.411  -4.923  0.00  0.00     0.249 C 
HETATM   18  O           1     -20.211  -8.081  -6.018  0.00  0.00    -0.271 OA
HETATM   19  H           1     -19.284  -6.893  -3.623  0.00  0.00     0.163 HD
BRANCH  17  20
HETATM   20  C           1     -19.138  -9.744  -4.736  0.00  0.00     0.278 C 
BRANCH  20  21
HETATM   21  N           1     -18.487 -10.157  -6.023  0.00  0.00    -0.066 N 
HETATM   22  H           1     -18.773 -11.134  -6.260  0.00  0.00     0.275 HD
HETATM   23  H           1     -18.788  -9.512  -6.787  0.00  0.00     0.275 HD
HETATM   24  H           1     -17.448 -10.113  -5.917  0.00  0.00     0.275 HD
ENDBRANCH  20  21
BRANCH  20  25
HETATM   25  C           1     -18.080  -9.625  -3.647  0.00  0.00     0.017 C 
HETATM   26  C           1     -18.377 -10.625  -2.538  0.00  0.00     0.012 C 
HETATM   27  C           1     -16.708  -9.918  -4.239  0.00  0.00     0.012 C 
ENDBRANCH  20  25
ENDBRANCH  17  20
ENDBRANCH   1  16
TORSDOF 7
ENDMDL
MODEL 6
REMARK VINA RESULT:      -7.0      3.117      6.524
REMARK  7 active torsions:
REMARK  status: ('A' for Active; 'I' for Inactive)
REMARK    1  A    between atoms: C_6  and  C_7 
REMARK    2  A    between atoms: C_6  and  C_17 
REMARK    3  A    between atoms: C_7  and  C_16 
REMARK    4  A    between atoms: C_7  and  N_8 
REMARK       I    between atoms: N_8  and  C_15 
REMARK    5  A    between atoms: N_12  and  C_25 
REMARK    6  A    between atoms: C_15  and  C_25 
REMARK    7  A    between atoms: C_21  and  C_25 
ROOT
HETATM    1  C           1     -21.263  -8.727  -2.124  0.00  0.00     0.190 C 
ENDROOT
BRANCH   1   2
HETATM    2  C           1     -20.026  -9.616  -2.124  0.00  0.00     0.077 C 
BRANCH   2   3
HETATM    3  C           1     -19.578  -9.848  -3.534  0.00  0.00    -0.028 A 
HETATM    4  C           1     -18.236  -9.815  -4.003  0.00  0.00    -0.002 A 
HETATM    5  C           1     -18.273 -10.084  -5.372  0.00  0.00     0.042 A 
HETATM    6  C           1     -16.989  -9.580  -3.392  0.00  0.00     0.014 A 
HETATM    7  N           1     -19.594 -10.273  -5.711  0.00  0.00    -0.365 N 
HETATM    8  C           1     -17.120 -10.131  -6.163  0.00  0.00     0.030 A 
HETATM    9  C           1     -20.392 -10.132  -4.607  0.00  0.00     0.096 A 
HETATM   10  H           1     -19.940 -10.494  -6.678  0.00  0.00     0.165 HD
HETATM   11  C           1     -15.894  -9.893  -5.535  0.00  0.00     0.002 A 
HETATM   12  C           1     -15.826  -9.622  -4.170  0.00  0.00     0.001 A 
ENDBRANCH   2   3
ENDBRANCH   1   2
BRANCH   1  13
HETATM   13  C           1     -21.847  -8.676  -0.734  0.00  0.00     0.197 C 
HETATM   14  O           1     -21.271  -8.023   0.163  0.00  0.00    -0.646 OA
HETATM   15  O           1     -22.907  -9.286  -0.478  0.00  0.00    -0.646 OA
ENDBRANCH   1  13
BRANCH   1  16
HETATM   16  N           1     -20.896  -7.387  -2.541  0.00  0.00    -0.344 N 
HETATM   17  C           1     -21.807  -6.601  -3.193  0.00  0.00     0.249 C 
HETATM   18  O           1     -22.541  -5.876  -2.562  0.00  0.00    -0.271 OA
HETATM   19  H           1     -19.967  -7.035  -2.352  0.00  0.00     0.163 HD
BRANCH  17  20
HETATM   20  C           1     -21.896  -6.637  -4.699  0.00  0.00     0.278 C 
BRANCH  20  21
HETATM   21  N           1     -23.199  -6.035  -5.136  0.00  0.00    -0.066 N 
HETATM   22  H           1     -23.160  -4.997  -5.018  0.00  0.00     0.275 HD
HETATM   23  H           1     -23.368  -6.264  -6.141  0.00  0.00     0.275 HD
HETATM   24  H           1     -23.975  -6.423  -4.553  0.00  0.00     0.275 HD
ENDBRANCH  20  21
BRANCH  20  25
HETATM   25  C           1     -20.744  -5.840  -5.295  0.00  0.00     0.017 C 
HETATM   26  C           1     -19.833  -6.774  -6.082  0.00  0.00     0.012 C 
HETATM   27  C           1     -21.296  -4.768  -6.226  0.00  0.00     0.012 C 
ENDBRANCH  20  25
ENDBRANCH  17  20
ENDBRANCH   1  16
TORSDOF 7
ENDMDL
MODEL 7
REMARK VINA RESULT:      -7.0     13.811     16.886
REMARK  7 active torsions:
REMARK  status: ('A' for Active; 'I' for Inactive)
REMARK    1  A    between atoms: C_6  and  C_7 
REMARK    2  A    between atoms: C_6  and  C_17 
REMARK    3  A    between atoms: C_7  and  C_16 
REMARK    4  A    between atoms: C_7  and  N_8 
REMARK       I    between atoms: N_8  and  C_15 
REMARK    5  A    between atoms: N_12  and  C_25 
REMARK    6  A    between atoms: C_15  and  C_25 
REMARK    7  A    between atoms: C_21  and  C_25 
ROOT
HETATM    1  C           1     -35.509  -2.109 -11.314  0.00  0.00     0.190 C 
ENDROOT
BRANCH   1   2
HETATM    2  C           1     -34.499  -2.577 -10.275  0.00  0.00     0.077 C 
BRANCH   2   3
HETATM    3  C           1     -33.806  -3.809 -10.772  0.00  0.00    -0.028 A 
HETATM    4  C           1     -34.137  -5.149 -10.434  0.00  0.00    -0.002 A 
HETATM    5  C           1     -33.243  -5.977 -11.115  0.00  0.00     0.042 A 
HETATM    6  C           1     -35.114  -5.741  -9.609  0.00  0.00     0.014 A 
HETATM    7  N           1     -32.405  -5.158 -11.837  0.00  0.00    -0.365 N 
HETATM    8  C           1     -33.278  -7.373 -11.012  0.00  0.00     0.030 A 
HETATM    9  C           1     -32.737  -3.844 -11.637  0.00  0.00     0.096 A 
HETATM   10  H           1     -31.623  -5.493 -12.454  0.00  0.00     0.165 HD
HETATM   11  C           1     -34.257  -7.936 -10.188  0.00  0.00     0.002 A 
HETATM   12  C           1     -35.163  -7.135  -9.496  0.00  0.00     0.001 A 
ENDBRANCH   2   3
ENDBRANCH   1   2
BRANCH   1  13
HETATM   13  C           1     -36.504  -1.177 -10.665  0.00  0.00     0.197 C 
HETATM   14  O           1     -37.686  -1.145 -11.070  0.00  0.00    -0.646 OA
HETATM   15  O           1     -36.146  -0.440  -9.722  0.00  0.00    -0.646 OA
ENDBRANCH   1  13
BRANCH   1  16
HETATM   16  N           1     -34.817  -1.408 -12.379  0.00  0.00    -0.344 N 
HETATM   17  C           1     -35.392  -0.309 -12.960  0.00  0.00     0.249 C 
HETATM   18  O           1     -35.182   0.792 -12.509  0.00  0.00    -0.271 OA
HETATM   19  H           1     -33.912  -1.730 -12.693  0.00  0.00     0.163 HD
BRANCH  17  20
HETATM   20  C           1     -36.289  -0.473 -14.163  0.00  0.00     0.278 C 
BRANCH  20  21
HETATM   21  N           1     -37.548   0.316 -13.958  0.00  0.00    -0.066 N 
HETATM   22  H           1     -37.981   0.049 -13.044  0.00  0.00     0.275 HD
HETATM   23  H           1     -37.322   1.336 -13.950  0.00  0.00     0.275 HD
HETATM   24  H           1     -38.217   0.112 -14.734  0.00  0.00     0.275 HD
ENDBRANCH  20  21
BRANCH  20  25
HETATM   25  C           1     -35.569   0.034 -15.405  0.00  0.00     0.017 C 
HETATM   26  C           1     -35.894  -0.871 -16.586  0.00  0.00     0.012 C 
HETATM   27  C           1     -36.027   1.453 -15.714  0.00  0.00     0.012 C 
ENDBRANCH  20  25
ENDBRANCH  17  20
ENDBRANCH   1  16
TORSDOF 7
ENDMDL
MODEL 8
REMARK VINA RESULT:      -7.0      3.752      7.353
REMARK  7 active torsions:
REMARK  status: ('A' for Active; 'I' for Inactive)
REMARK    1  A    between atoms: C_6  and  C_7 
REMARK    2  A    between atoms: C_6  and  C_17 
REMARK    3  A    between atoms: C_7  and  C_16 
REMARK    4  A    between atoms: C_7  and  N_8 
REMARK       I    between atoms: N_8  and  C_15 
REMARK    5  A    between atoms: N_12  and  C_25 
REMARK    6  A    between atoms: C_15  and  C_25 
REMARK    7  A    between atoms: C_21  and  C_25 
ROOT
HETATM    1  C           1     -19.942  -8.652  -4.905  0.00  0.00     0.190 C 
ENDROOT
BRANCH   1   2
HETATM    2  C           1     -19.542  -8.568  -3.438  0.00  0.00     0.077 C 
BRANCH   2   3
HETATM    3  C           1     -20.511  -9.355  -2.610  0.00  0.00    -0.028 A 
HETATM    4  C           1     -21.393  -8.828  -1.627  0.00  0.00    -0.002 A 
HETATM    5  C           1     -22.113  -9.902  -1.103  0.00  0.00     0.042 A 
HETATM    6  C           1     -21.649  -7.535  -1.131  0.00  0.00     0.014 A 
HETATM    7  N           1     -21.676 -11.036  -1.751  0.00  0.00    -0.365 N 
HETATM    8  C           1     -23.080  -9.748  -0.103  0.00  0.00     0.030 A 
HETATM    9  C           1     -20.707 -10.716  -2.665  0.00  0.00     0.096 A 
HETATM   10  H           1     -22.035 -12.007  -1.570  0.00  0.00     0.165 HD
HETATM   11  C           1     -23.316  -8.455   0.374  0.00  0.00     0.002 A 
HETATM   12  C           1     -22.613  -7.362  -0.130  0.00  0.00     0.001 A 
ENDBRANCH   2   3
ENDBRANCH   1   2
BRANCH   1  13
HETATM   13  C           1     -20.424  -7.300  -5.373  0.00  0.00     0.197 C 
HETATM   14  O           1     -20.185  -6.921  -6.539  0.00  0.00    -0.646 OA
HETATM   15  O           1     -21.063  -6.561  -4.594  0.00  0.00    -0.646 OA
ENDBRANCH   1  13
BRANCH   1  16
HETATM   16  N           1     -18.796  -9.055  -5.696  0.00  0.00    -0.344 N 
HETATM   17  C           1     -18.471 -10.381  -5.802  0.00  0.00     0.249 C 
HETATM   18  O           1     -18.939 -11.049  -6.693  0.00  0.00    -0.271 OA
HETATM   19  H           1     -18.237  -8.358  -6.170  0.00  0.00     0.163 HD
BRANCH  17  20
HETATM   20  C           1     -17.526 -11.008  -4.805  0.00  0.00     0.278 C 
BRANCH  20  21
HETATM   21  N           1     -17.185 -12.399  -5.249  0.00  0.00    -0.066 N 
HETATM   22  H           1     -17.912 -13.065  -4.900  0.00  0.00     0.275 HD
HETATM   23  H           1     -17.155 -12.434  -6.293  0.00  0.00     0.275 HD
HETATM   24  H           1     -16.252 -12.669  -4.864  0.00  0.00     0.275 HD
ENDBRANCH  20  21
BRANCH  20  25
HETATM   25  C           1     -16.253 -10.176  -4.719  0.00  0.00     0.017 C 
HETATM   26  C           1     -16.046  -9.710  -3.284  0.00  0.00     0.012 C 
HETATM   27  C           1     -15.064 -11.023  -5.153  0.00  0.00     0.012 C 
ENDBRANCH  20  25
ENDBRANCH  17  20
ENDBRANCH   1  16
TORSDOF 7
ENDMDL
MODEL 9
REMARK VINA RESULT:      -6.9     13.293     14.683
REMARK  7 active torsions:
REMARK  status: ('A' for Active; 'I' for Inactive)
REMARK    1  A    between atoms: C_6  and  C_7 
REMARK    2  A    between atoms: C_6  and  C_17 
REMARK    3  A    between atoms: C_7  and  C_16 
REMARK    4  A    between atoms: C_7  and  N_8 
REMARK       I    between atoms: N_8  and  C_15 
REMARK    5  A    between atoms: N_12  and  C_25 
REMARK    6  A    between atoms: C_15  and  C_25 
REMARK    7  A    between atoms: C_21  and  C_25 
ROOT
HETATM    1  C           1     -32.331  -4.283 -16.136  0.00  0.00     0.190 C 
ENDROOT
BRANCH   1   2
HETATM    2  C           1     -31.734  -5.586 -16.649  0.00  0.00     0.077 C 
BRANCH   2   3
HETATM    3  C           1     -30.280  -5.642 -16.295  0.00  0.00    -0.028 A 
HETATM    4  C           1     -29.204  -5.846 -17.201  0.00  0.00    -0.002 A 
HETATM    5  C           1     -28.026  -5.828 -16.452  0.00  0.00     0.042 A 
HETATM    6  C           1     -29.118  -6.046 -18.593  0.00  0.00     0.014 A 
HETATM    7  N           1     -28.386  -5.619 -15.139  0.00  0.00    -0.365 N 
HETATM    8  C           1     -26.762  -6.000 -17.027  0.00  0.00     0.030 A 
HETATM    9  C           1     -29.747  -5.506 -15.033  0.00  0.00     0.096 A 
HETATM   10  H           1     -27.713  -5.556 -14.335  0.00  0.00     0.165 HD
HETATM   11  C           1     -26.703  -6.197 -18.410  0.00  0.00     0.002 A 
HETATM   12  C           1     -27.861  -6.220 -19.184  0.00  0.00     0.001 A 
ENDBRANCH   2   3
ENDBRANCH   1   2
BRANCH   1  13
HETATM   13  C           1     -32.461  -3.304 -17.277  0.00  0.00     0.197 C 
HETATM   14  O           1     -33.576  -2.813 -17.556  0.00  0.00    -0.646 OA
HETATM   15  O           1     -31.454  -2.983 -17.943  0.00  0.00    -0.646 OA
ENDBRANCH   1  13
BRANCH   1  16
HETATM   16  N           1     -33.643  -4.542 -15.572  0.00  0.00    -0.344 N 
HETATM   17  C           1     -34.043  -3.881 -14.442  0.00  0.00     0.249 C 
HETATM   18  O           1     -34.625  -2.825 -14.534  0.00  0.00    -0.271 OA
HETATM   19  H           1     -34.260  -5.210 -16.013  0.00  0.00     0.163 HD
BRANCH  17  20
HETATM   20  C           1     -33.759  -4.470 -13.082  0.00  0.00     0.278 C 
BRANCH  20  21
HETATM   21  N           1     -32.276  -4.537 -12.867  0.00  0.00    -0.066 N 
HETATM   22  H           1     -31.985  -5.535 -12.752  0.00  0.00     0.275 HD
HETATM   23  H           1     -31.786  -4.126 -13.693  0.00  0.00     0.275 HD
HETATM   24  H           1     -32.024  -4.000 -12.007  0.00  0.00     0.275 HD
ENDBRANCH  20  21
BRANCH  20  25
HETATM   25  C           1     -34.389  -3.594 -12.007  0.00  0.00     0.017 C 
HETATM   26  C           1     -35.199  -4.462 -11.054  0.00  0.00     0.012 C 
HETATM   27  C           1     -33.292  -2.876 -11.231  0.00  0.00     0.012 C 
ENDBRANCH  20  25
ENDBRANCH  17  20
ENDBRANCH   1  16
TORSDOF 7
ENDMDL
