MODEL 1
REMARK VINA RESULT:      -6.4      0.000      0.000
REMARK  7 active torsions:
REMARK  status: ('A' for Active; 'I' for Inactive)
REMARK    1  A    between atoms: C_4  and  N_5 
REMARK    2  A    between atoms: C_4  and  C_16 
REMARK    3  A    between atoms: C_9  and  C_11 
REMARK    4  A    between atoms: C_11  and  C_14 
REMARK    5  A    between atoms: C_11  and  N_20 
REMARK    6  A    between atoms: C_12  and  C_19 
REMARK    7  A    between atoms: C_14  and  C_16 
REMARK       I    between atoms: C_19  and  N_20 
ROOT
HETATM    1  C           1     -35.862  -0.857 -13.096  0.00  0.00     0.185 C 
ENDROOT
BRANCH   1   2
HETATM    2  C           1     -35.159   0.125 -14.001  0.00  0.00     0.196 C 
HETATM    3  O           1     -34.968  -0.158 -15.203  0.00  0.00    -0.646 OA
HETATM    4  O           1     -34.768   1.223 -13.548  0.00  0.00    -0.646 OA
ENDBRANCH   1   2
BRANCH   1   5
HETATM    5  C           1     -36.981  -0.145 -12.348  0.00  0.00     0.038 C 
BRANCH   5   6
HETATM    6  C           1     -37.000  -0.612 -10.898  0.00  0.00     0.030 C 
BRANCH   6   7
HETATM    7  C           1     -37.600   0.478 -10.020  0.00  0.00     0.230 C 
BRANCH   7   8
HETATM    8  N           1     -36.500   1.220  -9.321  0.00  0.00    -0.079 N 
HETATM    9  H           1     -35.894   0.542  -8.807  0.00  0.00     0.274 HD
HETATM   10  H           1     -35.926   1.736 -10.025  0.00  0.00     0.274 HD
HETATM   11  H           1     -36.914   1.900  -8.643  0.00  0.00     0.274 HD
ENDBRANCH   7   8
ENDBRANCH   6   7
ENDBRANCH   5   6
ENDBRANCH   1   5
BRANCH   1  12
HETATM   12  N           1     -34.913  -1.400 -12.143  0.00  0.00    -0.345 N 
HETATM   13  H           1     -34.752  -0.926 -11.263  0.00  0.00     0.163 HD
HETATM   14  C           1     -34.235  -2.554 -12.433  0.00  0.00     0.251 C 
HETATM   15  O           1     -34.428  -3.119 -13.482  0.00  0.00    -0.271 OA
BRANCH  14  16
HETATM   16  C           1     -33.248  -3.118 -11.441  0.00  0.00     0.311 C 
HETATM   17  C           1     -32.626  -4.399 -11.967  0.00  0.00     0.047 C 
HETATM   18  C           1     -33.471  -5.522 -11.380  0.00  0.00     0.033 C 
HETATM   19  C           1     -34.529  -4.825 -10.541  0.00  0.00     0.271 C 
HETATM   20  N           1     -33.923  -3.537 -10.216  0.00  0.00     0.097 N 
HETATM   21  H           1     -33.254  -3.658  -9.457  0.00  0.00     0.317 HD
ENDBRANCH  14  16
ENDBRANCH   1  12
TORSDOF 7
ENDMDL
MODEL 2
REMARK VINA RESULT:      -6.2      2.562      5.577
REMARK  7 active torsions:
REMARK  status: ('A' for Active; 'I' for Inactive)
REMARK    1  A    between atoms: C_4  and  N_5 
REMARK    2  A    between atoms: C_4  and  C_16 
REMARK    3  A    between atoms: C_9  and  C_11 
REMARK    4  A    between atoms: C_11  and  C_14 
REMARK    5  A    between atoms: C_11  and  N_20 
REMARK    6  A    between atoms: C_12  and  C_19 
REMARK    7  A    between atoms: C_14  and  C_16 
REMARK       I    between atoms: C_19  and  N_20 
ROOT
HETATM    1  C           1     -34.874  -2.466 -12.091  0.00  0.00     0.185 C 
ENDROOT
BRANCH   1   2
HETATM    2  C           1     -34.434  -1.809 -10.805  0.00  0.00     0.196 C 
HETATM    3  O           1     -33.225  -1.802 -10.489  0.00  0.00    -0.646 OA
HETATM    4  O           1     -35.279  -1.273 -10.056  0.00  0.00    -0.646 OA
ENDBRANCH   1   2
BRANCH   1   5
HETATM    5  C           1     -33.960  -3.643 -12.397  0.00  0.00     0.038 C 
BRANCH   5   6
HETATM    6  C           1     -34.653  -4.941 -12.005  0.00  0.00     0.030 C 
BRANCH   6   7
HETATM    7  C           1     -33.781  -5.707 -11.018  0.00  0.00     0.230 C 
BRANCH   7   8
HETATM    8  N           1     -34.331  -7.089 -10.830  0.00  0.00    -0.079 N 
HETATM    9  H           1     -33.544  -7.764 -10.707  0.00  0.00     0.274 HD
HETATM   10  H           1     -34.942  -7.108  -9.982  0.00  0.00     0.274 HD
HETATM   11  H           1     -34.892  -7.358 -11.670  0.00  0.00     0.274 HD
ENDBRANCH   7   8
ENDBRANCH   6   7
ENDBRANCH   5   6
ENDBRANCH   1   5
BRANCH   1  12
HETATM   12  N           1     -34.803  -1.503 -13.173  0.00  0.00    -0.345 N 
HETATM   13  H           1     -33.924  -1.344 -13.651  0.00  0.00     0.163 HD
HETATM   14  C           1     -35.922  -0.811 -13.549  0.00  0.00     0.251 C 
HETATM   15  O           1     -36.969  -1.002 -12.979  0.00  0.00    -0.271 OA
BRANCH  14  16
HETATM   16  C           1     -35.847   0.191 -14.675  0.00  0.00     0.311 C 
HETATM   17  C           1     -37.158   0.246 -15.438  0.00  0.00     0.047 C 
HETATM   18  C           1     -36.975  -0.707 -16.613  0.00  0.00     0.033 C 
HETATM   19  C           1     -35.564  -1.253 -16.464  0.00  0.00     0.271 C 
HETATM   20  N           1     -34.876  -0.231 -15.681  0.00  0.00     0.097 N 
HETATM   21  H           1     -34.621   0.549 -16.288  0.00  0.00     0.317 HD
ENDBRANCH  14  16
ENDBRANCH   1  12
TORSDOF 7
ENDMDL
MODEL 3
REMARK VINA RESULT:      -6.0     11.786     13.848
REMARK  7 active torsions:
REMARK  status: ('A' for Active; 'I' for Inactive)
REMARK    1  A    between atoms: C_4  and  N_5 
REMARK    2  A    between atoms: C_4  and  C_16 
REMARK    3  A    between atoms: C_9  and  C_11 
REMARK    4  A    between atoms: C_11  and  C_14 
REMARK    5  A    between atoms: C_11  and  N_20 
REMARK    6  A    between atoms: C_12  and  C_19 
REMARK    7  A    between atoms: C_14  and  C_16 
REMARK       I    between atoms: C_19  and  N_20 
ROOT
HETATM    1  C           1     -23.163  -3.641  -9.777  0.00  0.00     0.185 C 
ENDROOT
BRANCH   1   2
HETATM    2  C           1     -24.584  -3.190 -10.015  0.00  0.00     0.196 C 
HETATM    3  O           1     -25.103  -3.329 -11.143  0.00  0.00    -0.646 OA
HETATM    4  O           1     -25.241  -2.679  -9.083  0.00  0.00    -0.646 OA
ENDBRANCH   1   2
BRANCH   1   5
HETATM    5  C           1     -22.882  -4.888 -10.603  0.00  0.00     0.038 C 
BRANCH   5   6
HETATM    6  C           1     -21.873  -4.557 -11.696  0.00  0.00     0.030 C 
BRANCH   6   7
HETATM    7  C           1     -21.567  -3.065 -11.670  0.00  0.00     0.230 C 
BRANCH   7   8
HETATM    8  N           1     -20.102  -2.859 -11.421  0.00  0.00    -0.079 N 
HETATM    9  H           1     -19.810  -3.408 -10.581  0.00  0.00     0.274 HD
HETATM   10  H           1     -19.559  -3.181 -12.253  0.00  0.00     0.274 HD
HETATM   11  H           1     -19.917  -1.844 -11.254  0.00  0.00     0.274 HD
ENDBRANCH   7   8
ENDBRANCH   6   7
ENDBRANCH   5   6
ENDBRANCH   1   5
BRANCH   1  12
HETATM   12  N           1     -22.982  -3.943  -8.370  0.00  0.00    -0.345 N 
HETATM   13  H           1     -23.785  -4.140  -7.787  0.00  0.00     0.163 HD
HETATM   14  C           1     -21.724  -3.961  -7.830  0.00  0.00     0.251 C 
HETATM   15  O           1     -20.765  -3.725  -8.525  0.00  0.00    -0.271 OA
BRANCH  14  16
HETATM   16  C           1     -21.536  -4.274  -6.366  0.00  0.00     0.311 C 
HETATM   17  C           1     -20.087  -4.619  -6.069  0.00  0.00     0.047 C 
HETATM   18  C           1     -20.017  -6.139  -6.142  0.00  0.00     0.033 C 
HETATM   19  C           1     -21.432  -6.585  -6.471  0.00  0.00     0.271 C 
HETATM   20  N           1     -22.264  -5.484  -5.996  0.00  0.00     0.097 N 
HETATM   21  H           1     -22.368  -5.549  -4.983  0.00  0.00     0.317 HD
ENDBRANCH  14  16
ENDBRANCH   1  12
TORSDOF 7
ENDMDL
MODEL 4
REMARK VINA RESULT:      -5.8      9.926     12.362
REMARK  7 active torsions:
REMARK  status: ('A' for Active; 'I' for Inactive)
REMARK    1  A    between atoms: C_4  and  N_5 
REMARK    2  A    between atoms: C_4  and  C_16 
REMARK    3  A    between atoms: C_9  and  C_11 
REMARK    4  A    between atoms: C_11  and  C_14 
REMARK    5  A    between atoms: C_11  and  N_20 
REMARK    6  A    between atoms: C_12  and  C_19 
REMARK    7  A    between atoms: C_14  and  C_16 
REMARK       I    between atoms: C_19  and  N_20 
ROOT
HETATM    1  C           1     -26.866  -6.914 -20.354  0.00  0.00     0.185 C 
ENDROOT
BRANCH   1   2
HETATM    2  C           1     -26.664  -8.135 -21.218  0.00  0.00     0.196 C 
HETATM    3  O           1     -25.523  -8.416 -21.645  0.00  0.00    -0.646 OA
HETATM    4  O           1     -27.637  -8.864 -21.506  0.00  0.00    -0.646 OA
ENDBRANCH   1   2
BRANCH   1   5
HETATM    5  C           1     -25.514  -6.400 -19.879  0.00  0.00     0.038 C 
BRANCH   5   6
HETATM    6  C           1     -25.298  -6.806 -18.426  0.00  0.00     0.030 C 
BRANCH   6   7
HETATM    7  C           1     -23.849  -7.231 -18.227  0.00  0.00     0.230 C 
BRANCH   7   8
HETATM    8  N           1     -23.680  -7.804 -16.851  0.00  0.00    -0.079 N 
HETATM    9  H           1     -23.323  -7.064 -16.206  0.00  0.00     0.274 HD
HETATM   10  H           1     -24.601  -8.154 -16.505  0.00  0.00     0.274 HD
HETATM   11  H           1     -22.997  -8.595 -16.885  0.00  0.00     0.274 HD
ENDBRANCH   7   8
ENDBRANCH   6   7
ENDBRANCH   5   6
ENDBRANCH   1   5
BRANCH   1  12
HETATM   12  N           1     -27.680  -7.264 -19.206  0.00  0.00    -0.345 N 
HETATM   13  H           1     -27.629  -8.196 -18.814  0.00  0.00     0.163 HD
HETATM   14  C           1     -28.520  -6.335 -18.653  0.00  0.00     0.251 C 
HETATM   15  O           1     -28.581  -5.223 -19.120  0.00  0.00    -0.271 OA
BRANCH  14  16
HETATM   16  C           1     -29.367  -6.700 -17.459  0.00  0.00     0.311 C 
HETATM   17  C           1     -29.696  -5.470 -16.633  0.00  0.00     0.047 C 
HETATM   18  C           1     -28.632  -5.426 -15.543  0.00  0.00     0.033 C 
HETATM   19  C           1     -27.753  -6.639 -15.799  0.00  0.00     0.271 C 
HETATM   20  N           1     -28.623  -7.552 -16.534  0.00  0.00     0.097 N 
HETATM   21  H           1     -29.255  -8.018 -15.883  0.00  0.00     0.317 HD
ENDBRANCH  14  16
ENDBRANCH   1  12
TORSDOF 7
ENDMDL
MODEL 5
REMARK VINA RESULT:      -5.3     14.808     16.665
REMARK  7 active torsions:
REMARK  status: ('A' for Active; 'I' for Inactive)
REMARK    1  A    between atoms: C_4  and  N_5 
REMARK    2  A    between atoms: C_4  and  C_16 
REMARK    3  A    between atoms: C_9  and  C_11 
REMARK    4  A    between atoms: C_11  and  C_14 
REMARK    5  A    between atoms: C_11  and  N_20 
REMARK    6  A    between atoms: C_12  and  C_19 
REMARK    7  A    between atoms: C_14  and  C_16 
REMARK       I    between atoms: C_19  and  N_20 
ROOT
HETATM    1  C           1     -21.176  -6.339  -4.441  0.00  0.00     0.185 C 
ENDROOT
BRANCH   1   2
HETATM    2  C           1     -20.717  -7.646  -5.041  0.00  0.00     0.196 C 
HETATM    3  O           1     -19.821  -8.312  -4.479  0.00  0.00    -0.646 OA
HETATM    4  O           1     -21.234  -8.063  -6.100  0.00  0.00    -0.646 OA
ENDBRANCH   1   2
BRANCH   1   5
HETATM    5  C           1     -22.358  -6.594  -3.516  0.00  0.00     0.038 C 
BRANCH   5   6
HETATM    6  C           1     -21.986  -6.195  -2.094  0.00  0.00     0.030 C 
BRANCH   6   7
HETATM    7  C           1     -21.874  -7.443  -1.228  0.00  0.00     0.230 C 
BRANCH   7   8
HETATM    8  N           1     -20.513  -8.050  -1.397  0.00  0.00    -0.079 N 
HETATM    9  H           1     -20.201  -7.937  -2.388  0.00  0.00     0.274 HD
HETATM   10  H           1     -19.837  -7.569  -0.762  0.00  0.00     0.274 HD
HETATM   11  H           1     -20.553  -9.067  -1.159  0.00  0.00     0.274 HD
ENDBRANCH   7   8
ENDBRANCH   6   7
ENDBRANCH   5   6
ENDBRANCH   1   5
BRANCH   1  12
HETATM   12  N           1     -21.578  -5.436  -5.502  0.00  0.00    -0.345 N 
HETATM   13  H           1     -22.532  -5.444  -5.840  0.00  0.00     0.163 HD
HETATM   14  C           1     -20.667  -4.572  -6.047  0.00  0.00     0.251 C 
HETATM   15  O           1     -19.529  -4.562  -5.645  0.00  0.00    -0.271 OA
BRANCH  14  16
HETATM   16  C           1     -21.086  -3.633  -7.152  0.00  0.00     0.311 C 
HETATM   17  C           1     -22.363  -4.113  -7.815  0.00  0.00     0.047 C 
HETATM   18  C           1     -21.905  -4.922  -9.023  0.00  0.00     0.033 C 
HETATM   19  C           1     -20.387  -4.855  -8.991  0.00  0.00     0.271 C 
HETATM   20  N           1     -20.108  -3.637  -8.236  0.00  0.00     0.097 N 
HETATM   21  H           1     -20.234  -2.826  -8.841  0.00  0.00     0.317 HD
ENDBRANCH  14  16
ENDBRANCH   1  12
TORSDOF 7
ENDMDL
MODEL 6
REMARK VINA RESULT:      -5.3     15.217     17.393
REMARK  7 active torsions:
REMARK  status: ('A' for Active; 'I' for Inactive)
REMARK    1  A    between atoms: C_4  and  N_5 
REMARK    2  A    between atoms: C_4  and  C_16 
REMARK    3  A    between atoms: C_9  and  C_11 
REMARK    4  A    between atoms: C_11  and  C_14 
REMARK    5  A    between atoms: C_11  and  N_20 
REMARK    6  A    between atoms: C_12  and  C_19 
REMARK    7  A    between atoms: C_14  and  C_16 
REMARK       I    between atoms: C_19  and  N_20 
ROOT
HETATM    1  C           1     -21.604  -7.294  -4.057  0.00  0.00     0.185 C 
ENDROOT
BRANCH   1   2
HETATM    2  C           1     -21.745  -6.913  -2.603  0.00  0.00     0.196 C 
HETATM    3  O           1     -22.440  -5.926  -2.280  0.00  0.00    -0.646 OA
HETATM    4  O           1     -21.167  -7.585  -1.723  0.00  0.00    -0.646 OA
ENDBRANCH   1   2
BRANCH   1   5
HETATM    5  C           1     -20.942  -8.661  -4.161  0.00  0.00     0.038 C 
BRANCH   5   6
HETATM    6  C           1     -19.585  -8.518  -4.839  0.00  0.00     0.030 C 
BRANCH   6   7
HETATM    7  C           1     -18.533  -9.271  -4.035  0.00  0.00     0.230 C 
BRANCH   7   8
HETATM    8  N           1     -18.969  -9.365  -2.603  0.00  0.00    -0.079 N 
HETATM    9  H           1     -19.017 -10.369  -2.318  0.00  0.00     0.274 HD
HETATM   10  H           1     -18.281  -8.864  -1.997  0.00  0.00     0.274 HD
HETATM   11  H           1     -19.912  -8.927  -2.497  0.00  0.00     0.274 HD
ENDBRANCH   7   8
ENDBRANCH   6   7
ENDBRANCH   5   6
ENDBRANCH   1   5
BRANCH   1  12
HETATM   12  N           1     -20.786  -6.308  -4.737  0.00  0.00    -0.345 N 
HETATM   13  H           1     -19.786  -6.285  -4.581  0.00  0.00     0.163 HD
HETATM   14  C           1     -21.366  -5.408  -5.590  0.00  0.00     0.251 C 
HETATM   15  O           1     -22.559  -5.435  -5.776  0.00  0.00    -0.271 OA
BRANCH  14  16
HETATM   16  C           1     -20.515  -4.382  -6.296  0.00  0.00     0.311 C 
HETATM   17  C           1     -21.339  -3.592  -7.297  0.00  0.00     0.047 C 
HETATM   18  C           1     -21.137  -4.305  -8.629  0.00  0.00     0.033 C 
HETATM   19  C           1     -20.201  -5.462  -8.321  0.00  0.00     0.271 C 
HETATM   20  N           1     -19.496  -5.029  -7.118  0.00  0.00     0.097 N 
HETATM   21  H           1     -18.762  -4.368  -7.373  0.00  0.00     0.317 HD
ENDBRANCH  14  16
ENDBRANCH   1  12
TORSDOF 7
ENDMDL
MODEL 7
REMARK VINA RESULT:      -5.1     16.194     18.299
REMARK  7 active torsions:
REMARK  status: ('A' for Active; 'I' for Inactive)
REMARK    1  A    between atoms: C_4  and  N_5 
REMARK    2  A    between atoms: C_4  and  C_16 
REMARK    3  A    between atoms: C_9  and  C_11 
REMARK    4  A    between atoms: C_11  and  C_14 
REMARK    5  A    between atoms: C_11  and  N_20 
REMARK    6  A    between atoms: C_12  and  C_19 
REMARK    7  A    between atoms: C_14  and  C_16 
REMARK       I    between atoms: C_19  and  N_20 
ROOT
HETATM    1  C           1     -21.204  -7.883  -1.774  0.00  0.00     0.185 C 
ENDROOT
BRANCH   1   2
HETATM    2  C           1     -22.298  -6.955  -1.305  0.00  0.00     0.196 C 
HETATM    3  O           1     -22.959  -7.237  -0.282  0.00  0.00    -0.646 OA
HETATM    4  O           1     -22.542  -5.906  -1.938  0.00  0.00    -0.646 OA
ENDBRANCH   1   2
BRANCH   1   5
HETATM    5  C           1     -20.663  -7.393  -3.111  0.00  0.00     0.038 C 
BRANCH   5   6
HETATM    6  C           1     -21.287  -8.204  -4.239  0.00  0.00     0.030 C 
BRANCH   6   7
HETATM    7  C           1     -21.662  -7.274  -5.386  0.00  0.00     0.230 C 
BRANCH   7   8
HETATM    8  N           1     -22.663  -6.264  -4.907  0.00  0.00    -0.079 N 
HETATM    9  H           1     -22.640  -6.220  -3.863  0.00  0.00     0.274 HD
HETATM   10  H           1     -22.426  -5.326  -5.301  0.00  0.00     0.274 HD
HETATM   11  H           1     -23.619  -6.544  -5.222  0.00  0.00     0.274 HD
ENDBRANCH   7   8
ENDBRANCH   6   7
ENDBRANCH   5   6
ENDBRANCH   1   5
BRANCH   1  12
HETATM   12  N           1     -21.740  -9.222  -1.932  0.00  0.00    -0.345 N 
HETATM   13  H           1     -22.449  -9.404  -2.631  0.00  0.00     0.163 HD
HETATM   14  C           1     -21.288 -10.238  -1.135  0.00  0.00     0.251 C 
HETATM   15  O           1     -20.441 -10.021  -0.301  0.00  0.00    -0.271 OA
BRANCH  14  16
HETATM   16  C           1     -21.846 -11.630  -1.298  0.00  0.00     0.311 C 
HETATM   17  C           1     -23.132 -11.606  -2.104  0.00  0.00     0.047 C 
HETATM   18  C           1     -24.249 -11.553  -1.070  0.00  0.00     0.033 C 
HETATM   19  C           1     -23.544 -11.558   0.276  0.00  0.00     0.271 C 
HETATM   20  N           1     -22.255 -12.181  -0.009  0.00  0.00     0.097 N 
HETATM   21  H           1     -22.372 -13.192  -0.067  0.00  0.00     0.317 HD
ENDBRANCH  14  16
ENDBRANCH   1  12
TORSDOF 7
ENDMDL
MODEL 8
REMARK VINA RESULT:      -5.1      3.769      6.638
REMARK  7 active torsions:
REMARK  status: ('A' for Active; 'I' for Inactive)
REMARK    1  A    between atoms: C_4  and  N_5 
REMARK    2  A    between atoms: C_4  and  C_16 
REMARK    3  A    between atoms: C_9  and  C_11 
REMARK    4  A    between atoms: C_11  and  C_14 
REMARK    5  A    between atoms: C_11  and  N_20 
REMARK    6  A    between atoms: C_12  and  C_19 
REMARK    7  A    between atoms: C_14  and  C_16 
REMARK       I    between atoms: C_19  and  N_20 
ROOT
HETATM    1  C           1     -34.593  -3.012 -16.574  0.00  0.00     0.185 C 
ENDROOT
BRANCH   1   2
HETATM    2  C           1     -34.609  -3.975 -15.411  0.00  0.00     0.196 C 
HETATM    3  O           1     -34.137  -3.628 -14.307  0.00  0.00    -0.646 OA
HETATM    4  O           1     -35.093  -5.118 -15.553  0.00  0.00    -0.646 OA
ENDBRANCH   1   2
BRANCH   1   5
HETATM    5  C           1     -33.290  -3.170 -17.345  0.00  0.00     0.038 C 
BRANCH   5   6
HETATM    6  C           1     -32.532  -4.382 -16.818  0.00  0.00     0.030 C 
BRANCH   6   7
HETATM    7  C           1     -31.057  -4.253 -17.175  0.00  0.00     0.230 C 
BRANCH   7   8
HETATM    8  N           1     -30.781  -2.866 -17.674  0.00  0.00    -0.079 N 
HETATM    9  H           1     -30.063  -2.413 -17.066  0.00  0.00     0.274 HD
HETATM   10  H           1     -30.427  -2.913 -18.656  0.00  0.00     0.274 HD
HETATM   11  H           1     -31.662  -2.305 -17.648  0.00  0.00     0.274 HD
ENDBRANCH   7   8
ENDBRANCH   6   7
ENDBRANCH   5   6
ENDBRANCH   1   5
BRANCH   1  12
HETATM   12  N           1     -34.699  -1.653 -16.077  0.00  0.00    -0.345 N 
HETATM   13  H           1     -33.889  -1.197 -15.675  0.00  0.00     0.163 HD
HETATM   14  C           1     -35.893  -0.988 -16.151  0.00  0.00     0.251 C 
HETATM   15  O           1     -36.858  -1.532 -16.630  0.00  0.00    -0.271 OA
BRANCH  14  16
HETATM   16  C           1     -36.002   0.425 -15.633  0.00  0.00     0.311 C 
HETATM   17  C           1     -34.808   0.777 -14.764  0.00  0.00     0.047 C 
HETATM   18  C           1     -35.256   0.490 -13.337  0.00  0.00     0.033 C 
HETATM   19  C           1     -36.687  -0.005 -13.463  0.00  0.00     0.271 C 
HETATM   20  N           1     -37.141   0.561 -14.730  0.00  0.00     0.097 N 
HETATM   21  H           1     -37.383   1.542 -14.596  0.00  0.00     0.317 HD
ENDBRANCH  14  16
ENDBRANCH   1  12
TORSDOF 7
ENDMDL
MODEL 9
REMARK VINA RESULT:      -5.0     25.050     26.360
REMARK  7 active torsions:
REMARK  status: ('A' for Active; 'I' for Inactive)
REMARK    1  A    between atoms: C_4  and  N_5 
REMARK    2  A    between atoms: C_4  and  C_16 
REMARK    3  A    between atoms: C_9  and  C_11 
REMARK    4  A    between atoms: C_11  and  C_14 
REMARK    5  A    between atoms: C_11  and  N_20 
REMARK    6  A    between atoms: C_12  and  C_19 
REMARK    7  A    between atoms: C_14  and  C_16 
REMARK       I    between atoms: C_19  and  N_20 
ROOT
HETATM    1  C           1     -13.357   5.723 -21.414  0.00  0.00     0.185 C 
ENDROOT
BRANCH   1   2
HETATM    2  C           1     -14.382   5.095 -20.502  0.00  0.00     0.196 C 
HETATM    3  O           1     -14.013   4.400 -19.532  0.00  0.00    -0.646 OA
HETATM    4  O           1     -15.601   5.271 -20.718  0.00  0.00    -0.646 OA
ENDBRANCH   1   2
BRANCH   1   5
HETATM    5  C           1     -12.775   4.658 -22.333  0.00  0.00     0.038 C 
BRANCH   5   6
HETATM    6  C           1     -11.309   4.433 -21.985  0.00  0.00     0.030 C 
BRANCH   6   7
HETATM    7  C           1     -11.126   3.022 -21.440  0.00  0.00     0.230 C 
BRANCH   7   8
HETATM    8  N           1     -11.128   3.061 -19.940  0.00  0.00    -0.079 N 
HETATM    9  H           1     -11.915   2.479 -19.577  0.00  0.00     0.274 HD
HETATM   10  H           1     -10.221   2.686 -19.581  0.00  0.00     0.274 HD
HETATM   11  H           1     -11.248   4.048 -19.618  0.00  0.00     0.274 HD
ENDBRANCH   7   8
ENDBRANCH   6   7
ENDBRANCH   5   6
ENDBRANCH   1   5
BRANCH   1  12
HETATM   12  N           1     -12.294   6.307 -20.617  0.00  0.00    -0.345 N 
HETATM   13  H           1     -11.654   5.707 -20.111  0.00  0.00     0.163 HD
HETATM   14  C           1     -12.158   7.667 -20.548  0.00  0.00     0.251 C 
HETATM   15  O           1     -12.922   8.381 -21.151  0.00  0.00    -0.271 OA
BRANCH  14  16
HETATM   16  C           1     -11.053   8.273 -19.718  0.00  0.00     0.311 C 
HETATM   17  C           1     -10.442   9.470 -20.422  0.00  0.00     0.047 C 
HETATM   18  C           1      -9.234   8.919 -21.168  0.00  0.00     0.033 C 
HETATM   19  C           1      -9.212   7.435 -20.845  0.00  0.00     0.271 C 
HETATM   20  N           1      -9.936   7.342 -19.581  0.00  0.00     0.097 N 
HETATM   21  H           1      -9.322   7.623 -18.816  0.00  0.00     0.317 HD
ENDBRANCH  14  16
ENDBRANCH   1  12
TORSDOF 7
ENDMDL
