MODEL 1
REMARK VINA RESULT:      -6.0      0.000      0.000
REMARK  4 active torsions:
REMARK  status: ('A' for Active; 'I' for Inactive)
REMARK    1  A    between atoms: N_2  and  C_12 
REMARK    2  A    between atoms: C_5  and  C_12 
REMARK    3  A    between atoms: C_9  and  C_11 
REMARK    4  A    between atoms: C_12  and  C_15 
REMARK       I    between atoms: C_15  and  N_17 
ROOT
HETATM    1  C           1     -28.307  -4.559 -16.609  0.00  0.00     0.038 C 
HETATM    2  O           1     -25.189  -6.626 -18.276  0.00  0.00    -0.271 OA
HETATM    3  C           1     -27.466  -5.816 -16.737  0.00  0.00     0.188 C 
HETATM    4  C           1     -29.087  -4.469 -17.916  0.00  0.00     0.022 C 
HETATM    5  C           1     -26.214  -6.389 -18.869  0.00  0.00     0.251 C 
HETATM    6  N           1     -27.331  -5.999 -18.179  0.00  0.00    -0.336 N 
HETATM    7  C           1     -28.646  -5.676 -18.725  0.00  0.00     0.127 C 
ENDROOT
BRANCH   5   8
HETATM    8  C           1     -26.265  -6.526 -20.372  0.00  0.00     0.278 C 
BRANCH   8   9
HETATM    9  N           1     -25.276  -5.584 -20.992  0.00  0.00    -0.066 N 
HETATM   10  H           1     -24.371  -6.083 -21.148  0.00  0.00     0.275 HD
HETATM   11  H           1     -25.647  -5.240 -21.905  0.00  0.00     0.275 HD
HETATM   12  H           1     -25.119  -4.773 -20.351  0.00  0.00     0.275 HD
ENDBRANCH   8   9
BRANCH   8  13
HETATM   13  C           1     -25.920  -7.956 -20.764  0.00  0.00     0.017 C 
HETATM   14  C           1     -24.814  -7.941 -21.812  0.00  0.00     0.012 C 
HETATM   15  C           1     -27.154  -8.638 -21.338  0.00  0.00     0.012 C 
ENDBRANCH   8  13
ENDBRANCH   5   8
BRANCH   3  16
HETATM   16  C           1     -28.164  -6.997 -16.108  0.00  0.00     0.196 C 
HETATM   17  O           1     -27.805  -7.409 -14.984  0.00  0.00    -0.646 OA
HETATM   18  O           1     -29.102  -7.562 -16.711  0.00  0.00    -0.646 OA
ENDBRANCH   3  16
TORSDOF 4
ENDMDL
MODEL 2
REMARK VINA RESULT:      -5.9     17.104     19.097
REMARK  4 active torsions:
REMARK  status: ('A' for Active; 'I' for Inactive)
REMARK    1  A    between atoms: N_2  and  C_12 
REMARK    2  A    between atoms: C_5  and  C_12 
REMARK    3  A    between atoms: C_9  and  C_11 
REMARK    4  A    between atoms: C_12  and  C_15 
REMARK       I    between atoms: C_15  and  N_17 
ROOT
HETATM    1  C           1     -20.337  -7.733  -2.645  0.00  0.00     0.038 C 
HETATM    2  O           1     -20.921  -9.716   0.891  0.00  0.00    -0.271 OA
HETATM    3  C           1     -21.027  -7.872  -1.299  0.00  0.00     0.188 C 
HETATM    4  C           1     -20.898  -8.866  -3.497  0.00  0.00     0.022 C 
HETATM    5  C           1     -21.334 -10.123  -0.169  0.00  0.00     0.251 C 
HETATM    6  N           1     -21.404  -9.281  -1.246  0.00  0.00    -0.336 N 
HETATM    7  C           1     -21.874  -9.597  -2.592  0.00  0.00     0.127 C 
ENDROOT
BRANCH   5   8
HETATM    8  C           1     -21.774 -11.561  -0.304  0.00  0.00     0.278 C 
BRANCH   8   9
HETATM    9  N           1     -20.821 -12.447   0.442  0.00  0.00    -0.066 N 
HETATM   10  H           1     -20.939 -13.434   0.120  0.00  0.00     0.275 HD
HETATM   11  H           1     -19.841 -12.135   0.259  0.00  0.00     0.275 HD
HETATM   12  H           1     -21.021 -12.388   1.466  0.00  0.00     0.275 HD
ENDBRANCH   8   9
BRANCH   8  13
HETATM   13  C           1     -23.174 -11.720   0.274  0.00  0.00     0.017 C 
HETATM   14  C           1     -23.257 -13.029   1.048  0.00  0.00     0.012 C 
HETATM   15  C           1     -24.193 -11.735  -0.858  0.00  0.00     0.012 C 
ENDBRANCH   8  13
ENDBRANCH   5   8
BRANCH   3  16
HETATM   16  C           1     -22.245  -6.986  -1.226  0.00  0.00     0.196 C 
HETATM   17  O           1     -22.412  -6.082  -2.074  0.00  0.00    -0.646 OA
HETATM   18  O           1     -23.088  -7.154  -0.318  0.00  0.00    -0.646 OA
ENDBRANCH   3  16
TORSDOF 4
ENDMDL
MODEL 3
REMARK VINA RESULT:      -5.6     18.630     19.958
REMARK  4 active torsions:
REMARK  status: ('A' for Active; 'I' for Inactive)
REMARK    1  A    between atoms: N_2  and  C_12 
REMARK    2  A    between atoms: C_5  and  C_12 
REMARK    3  A    between atoms: C_9  and  C_11 
REMARK    4  A    between atoms: C_12  and  C_15 
REMARK       I    between atoms: C_15  and  N_17 
ROOT
HETATM    1  C           1     -22.650 -13.097   1.000  0.00  0.00     0.038 C 
HETATM    2  O           1     -20.984  -9.363   1.250  0.00  0.00    -0.271 OA
HETATM    3  C           1     -21.478 -12.151   0.810  0.00  0.00     0.188 C 
HETATM    4  C           1     -23.663 -12.691  -0.064  0.00  0.00     0.022 C 
HETATM    5  C           1     -21.801  -9.666   0.413  0.00  0.00     0.251 C 
HETATM    6  N           1     -22.072 -10.985   0.165  0.00  0.00    -0.336 N 
HETATM    7  C           1     -23.020 -11.531  -0.802  0.00  0.00     0.127 C 
ENDROOT
BRANCH   5   8
HETATM    8  C           1     -22.522  -8.588  -0.361  0.00  0.00     0.278 C 
BRANCH   8   9
HETATM    9  N           1     -23.458  -7.858   0.555  0.00  0.00    -0.066 N 
HETATM   10  H           1     -23.618  -8.428   1.416  0.00  0.00     0.275 HD
HETATM   11  H           1     -23.040  -6.938   0.819  0.00  0.00     0.275 HD
HETATM   12  H           1     -24.369  -7.701   0.068  0.00  0.00     0.275 HD
ENDBRANCH   8   9
BRANCH   8  13
HETATM   13  C           1     -21.506  -7.609  -0.935  0.00  0.00     0.017 C 
HETATM   14  C           1     -22.237  -6.429  -1.561  0.00  0.00     0.012 C 
HETATM   15  C           1     -20.668  -8.309  -1.996  0.00  0.00     0.012 C 
ENDBRANCH   8  13
ENDBRANCH   5   8
BRANCH   3  16
HETATM   16  C           1     -20.423 -12.774  -0.071  0.00  0.00     0.196 C 
HETATM   17  O           1     -20.451 -14.001  -0.307  0.00  0.00    -0.646 OA
HETATM   18  O           1     -19.522 -12.063  -0.566  0.00  0.00    -0.646 OA
ENDBRANCH   3  16
TORSDOF 4
ENDMDL
MODEL 4
REMARK VINA RESULT:      -5.4     15.547     17.848
REMARK  4 active torsions:
REMARK  status: ('A' for Active; 'I' for Inactive)
REMARK    1  A    between atoms: N_2  and  C_12 
REMARK    2  A    between atoms: C_5  and  C_12 
REMARK    3  A    between atoms: C_9  and  C_11 
REMARK    4  A    between atoms: C_12  and  C_15 
REMARK       I    between atoms: C_15  and  N_17 
ROOT
HETATM    1  C           1     -20.088  -9.744  -5.290  0.00  0.00     0.038 C 
HETATM    2  O           1     -19.890  -7.824  -1.678  0.00  0.00    -0.271 OA
HETATM    3  C           1     -20.262  -8.500  -4.436  0.00  0.00     0.188 C 
HETATM    4  C           1     -21.202 -10.686  -4.850  0.00  0.00     0.022 C 
HETATM    5  C           1     -20.748  -8.630  -1.949  0.00  0.00     0.251 C 
HETATM    6  N           1     -20.965  -8.986  -3.253  0.00  0.00    -0.336 N 
HETATM    7  C           1     -21.951  -9.935  -3.763  0.00  0.00     0.127 C 
ENDROOT
BRANCH   5   8
HETATM    8  C           1     -21.582  -9.243  -0.850  0.00  0.00     0.278 C 
BRANCH   8   9
HETATM    9  N           1     -20.886 -10.460  -0.317  0.00  0.00    -0.066 N 
HETATM   10  H           1     -19.864 -10.264  -0.224  0.00  0.00     0.275 HD
HETATM   11  H           1     -21.281 -10.705   0.619  0.00  0.00     0.275 HD
HETATM   12  H           1     -21.029 -11.259  -0.976  0.00  0.00     0.275 HD
ENDBRANCH   8   9
BRANCH   8  13
HETATM   13  C           1     -21.766  -8.231   0.272  0.00  0.00     0.017 C 
HETATM   14  C           1     -21.041  -8.719   1.520  0.00  0.00     0.012 C 
HETATM   15  C           1     -23.250  -8.073   0.577  0.00  0.00     0.012 C 
ENDBRANCH   8  13
ENDBRANCH   5   8
BRANCH   3  16
HETATM   16  C           1     -21.083  -7.462  -5.161  0.00  0.00     0.196 C 
HETATM   17  O           1     -21.186  -7.506  -6.406  0.00  0.00    -0.646 OA
HETATM   18  O           1     -21.658  -6.559  -4.517  0.00  0.00    -0.646 OA
ENDBRANCH   3  16
TORSDOF 4
ENDMDL
MODEL 5
REMARK VINA RESULT:      -5.4     12.653     14.306
REMARK  4 active torsions:
REMARK  status: ('A' for Active; 'I' for Inactive)
REMARK    1  A    between atoms: N_2  and  C_12 
REMARK    2  A    between atoms: C_5  and  C_12 
REMARK    3  A    between atoms: C_9  and  C_11 
REMARK    4  A    between atoms: C_12  and  C_15 
REMARK       I    between atoms: C_15  and  N_17 
ROOT
HETATM    1  C           1     -20.688  -7.584  -3.118  0.00  0.00     0.038 C 
HETATM    2  O           1     -19.519  -6.736  -6.951  0.00  0.00    -0.271 OA
HETATM    3  C           1     -20.474  -7.998  -4.563  0.00  0.00     0.188 C 
HETATM    4  C           1     -21.872  -6.624  -3.152  0.00  0.00     0.022 C 
HETATM    5  C           1     -20.549  -6.327  -6.470  0.00  0.00     0.251 C 
HETATM    6  N           1     -21.047  -6.897  -5.330  0.00  0.00    -0.336 N 
HETATM    7  C           1     -22.269  -6.536  -4.616  0.00  0.00     0.127 C 
ENDROOT
BRANCH   5   8
HETATM    8  C           1     -21.288  -5.187  -7.130  0.00  0.00     0.278 C 
BRANCH   8   9
HETATM    9  N           1     -21.085  -3.933  -6.331  0.00  0.00    -0.066 N 
HETATM   10  H           1     -21.976  -3.683  -5.844  0.00  0.00     0.275 HD
HETATM   11  H           1     -20.332  -4.089  -5.624  0.00  0.00     0.275 HD
HETATM   12  H           1     -20.808  -3.155  -6.971  0.00  0.00     0.275 HD
ENDBRANCH   8   9
BRANCH   8  13
HETATM   13  C           1     -20.752  -4.982  -8.540  0.00  0.00     0.017 C 
HETATM   14  C           1     -19.720  -3.861  -8.533  0.00  0.00     0.012 C 
HETATM   15  C           1     -21.898  -4.611  -9.471  0.00  0.00     0.012 C 
ENDBRANCH   8  13
ENDBRANCH   5   8
BRANCH   3  16
HETATM   16  C           1     -21.190  -9.292  -4.862  0.00  0.00     0.196 C 
HETATM   17  O           1     -21.775  -9.908  -3.945  0.00  0.00    -0.646 OA
HETATM   18  O           1     -21.198  -9.748  -6.026  0.00  0.00    -0.646 OA
ENDBRANCH   3  16
TORSDOF 4
ENDMDL
MODEL 6
REMARK VINA RESULT:      -5.3     15.824     18.073
REMARK  4 active torsions:
REMARK  status: ('A' for Active; 'I' for Inactive)
REMARK    1  A    between atoms: N_2  and  C_12 
REMARK    2  A    between atoms: C_5  and  C_12 
REMARK    3  A    between atoms: C_9  and  C_11 
REMARK    4  A    between atoms: C_12  and  C_15 
REMARK       I    between atoms: C_15  and  N_17 
ROOT
HETATM    1  C           1     -21.766  -7.205  -4.746  0.00  0.00     0.038 C 
HETATM    2  O           1     -22.403 -10.597  -2.540  0.00  0.00    -0.271 OA
HETATM    3  C           1     -21.316  -8.565  -4.242  0.00  0.00     0.188 C 
HETATM    4  C           1     -21.711  -6.292  -3.526  0.00  0.00     0.022 C 
HETATM    5  C           1     -22.138  -9.527  -2.043  0.00  0.00     0.251 C 
HETATM    6  N           1     -21.616  -8.524  -2.815  0.00  0.00    -0.336 N 
HETATM    7  C           1     -21.239  -7.180  -2.388  0.00  0.00     0.127 C 
ENDROOT
BRANCH   5   8
HETATM    8  C           1     -22.382  -9.299  -0.571  0.00  0.00     0.278 C 
BRANCH   8   9
HETATM    9  N           1     -23.487 -10.198  -0.103  0.00  0.00    -0.066 N 
HETATM   10  H           1     -23.584 -11.002  -0.763  0.00  0.00     0.275 HD
HETATM   11  H           1     -23.264 -10.556   0.853  0.00  0.00     0.275 HD
HETATM   12  H           1     -24.383  -9.661  -0.075  0.00  0.00     0.275 HD
ENDBRANCH   8   9
BRANCH   8  13
HETATM   13  C           1     -21.111  -9.609   0.209  0.00  0.00     0.017 C 
HETATM   14  C           1     -21.143 -11.059   0.675  0.00  0.00     0.012 C 
HETATM   15  C           1     -21.018  -8.689   1.418  0.00  0.00     0.012 C 
ENDBRANCH   8  13
ENDBRANCH   5   8
BRANCH   3  16
HETATM   16  C           1     -19.838  -8.762  -4.476  0.00  0.00     0.196 C 
HETATM   17  O           1     -19.126  -9.266  -3.580  0.00  0.00    -0.646 OA
HETATM   18  O           1     -19.326  -8.421  -5.564  0.00  0.00    -0.646 OA
ENDBRANCH   3  16
TORSDOF 4
ENDMDL
MODEL 7
REMARK VINA RESULT:      -5.2     16.402     18.661
REMARK  4 active torsions:
REMARK  status: ('A' for Active; 'I' for Inactive)
REMARK    1  A    between atoms: N_2  and  C_12 
REMARK    2  A    between atoms: C_5  and  C_12 
REMARK    3  A    between atoms: C_9  and  C_11 
REMARK    4  A    between atoms: C_12  and  C_15 
REMARK       I    between atoms: C_15  and  N_17 
ROOT
HETATM    1  C           1     -17.766  -9.594  -3.370  0.00  0.00     0.038 C 
HETATM    2  O           1     -20.901  -7.520  -1.742  0.00  0.00    -0.271 OA
HETATM    3  C           1     -19.130  -8.938  -3.492  0.00  0.00     0.188 C 
HETATM    4  C           1     -17.997 -10.831  -2.509  0.00  0.00     0.022 C 
HETATM    5  C           1     -20.688  -8.685  -1.505  0.00  0.00     0.251 C 
HETATM    6  N           1     -19.849  -9.407  -2.312  0.00  0.00    -0.336 N 
HETATM    7  C           1     -19.480 -10.813  -2.179  0.00  0.00     0.127 C 
ENDROOT
BRANCH   5   8
HETATM    8  C           1     -21.348  -9.346  -0.319  0.00  0.00     0.278 C 
BRANCH   8   9
HETATM    9  N           1     -20.830  -8.731   0.947  0.00  0.00    -0.066 N 
HETATM   10  H           1     -20.982  -7.697   0.919  0.00  0.00     0.275 HD
HETATM   11  H           1     -21.339  -9.136   1.765  0.00  0.00     0.275 HD
HETATM   12  H           1     -19.808  -8.930   1.038  0.00  0.00     0.275 HD
ENDBRANCH   8   9
BRANCH   8  13
HETATM   13  C           1     -22.856  -9.148  -0.401  0.00  0.00     0.017 C 
HETATM   14  C           1     -23.302  -8.195   0.701  0.00  0.00     0.012 C 
HETATM   15  C           1     -23.555 -10.489  -0.226  0.00  0.00     0.012 C 
ENDBRANCH   8  13
ENDBRANCH   5   8
BRANCH   3  16
HETATM   16  C           1     -19.826  -9.378  -4.756  0.00  0.00     0.196 C 
HETATM   17  O           1     -21.072  -9.312  -4.838  0.00  0.00    -0.646 OA
HETATM   18  O           1     -19.158  -9.807  -5.721  0.00  0.00    -0.646 OA
ENDBRANCH   3  16
TORSDOF 4
ENDMDL
MODEL 8
REMARK VINA RESULT:      -5.1     16.330     18.051
REMARK  4 active torsions:
REMARK  status: ('A' for Active; 'I' for Inactive)
REMARK    1  A    between atoms: N_2  and  C_12 
REMARK    2  A    between atoms: C_5  and  C_12 
REMARK    3  A    between atoms: C_9  and  C_11 
REMARK    4  A    between atoms: C_12  and  C_15 
REMARK       I    between atoms: C_15  and  N_17 
ROOT
HETATM    1  C           1     -22.186  -8.630   0.684  0.00  0.00     0.038 C 
HETATM    2  O           1     -19.485 -10.828  -1.473  0.00  0.00    -0.271 OA
HETATM    3  C           1     -21.841  -9.823  -0.190  0.00  0.00     0.188 C 
HETATM    4  C           1     -22.109  -7.423  -0.245  0.00  0.00     0.022 C 
HETATM    5  C           1     -19.926  -9.768  -1.853  0.00  0.00     0.251 C 
HETATM    6  N           1     -21.050  -9.246  -1.271  0.00  0.00    -0.336 N 
HETATM    7  C           1     -21.718  -7.989  -1.599  0.00  0.00     0.127 C 
ENDROOT
BRANCH   5   8
HETATM    8  C           1     -19.236  -9.021  -2.969  0.00  0.00     0.278 C 
BRANCH   8   9
HETATM    9  N           1     -17.760  -9.279  -2.904  0.00  0.00    -0.066 N 
HETATM   10  H           1     -17.565 -10.263  -3.196  0.00  0.00     0.275 HD
HETATM   11  H           1     -17.263  -8.619  -3.544  0.00  0.00     0.275 HD
HETATM   12  H           1     -17.425  -9.134  -1.924  0.00  0.00     0.275 HD
ENDBRANCH   8   9
BRANCH   8  13
HETATM   13  C           1     -19.776  -9.500  -4.310  0.00  0.00     0.017 C 
HETATM   14  C           1     -18.635 -10.070  -5.142  0.00  0.00     0.012 C 
HETATM   15  C           1     -20.408  -8.329  -5.051  0.00  0.00     0.012 C 
ENDBRANCH   8  13
ENDBRANCH   5   8
BRANCH   3  16
HETATM   16  C           1     -23.092 -10.474  -0.727  0.00  0.00     0.196 C 
HETATM   17  O           1     -24.150 -10.438  -0.062  0.00  0.00    -0.646 OA
HETATM   18  O           1     -23.071 -11.049  -1.837  0.00  0.00    -0.646 OA
ENDBRANCH   3  16
TORSDOF 4
ENDMDL
MODEL 9
REMARK VINA RESULT:      -5.1     28.734     30.468
REMARK  4 active torsions:
REMARK  status: ('A' for Active; 'I' for Inactive)
REMARK    1  A    between atoms: N_2  and  C_12 
REMARK    2  A    between atoms: C_5  and  C_12 
REMARK    3  A    between atoms: C_9  and  C_11 
REMARK    4  A    between atoms: C_12  and  C_15 
REMARK       I    between atoms: C_15  and  N_17 
ROOT
HETATM    1  C           1     -15.985   9.080   6.962  0.00  0.00     0.038 C 
HETATM    2  O           1     -16.869   9.095   2.963  0.00  0.00    -0.271 OA
HETATM    3  C           1     -16.505   9.782   5.720  0.00  0.00     0.188 C 
HETATM    4  C           1     -14.484   8.940   6.740  0.00  0.00     0.022 C 
HETATM    5  C           1     -15.739   9.139   3.388  0.00  0.00     0.251 C 
HETATM    6  N           1     -15.513   9.463   4.699  0.00  0.00    -0.336 N 
HETATM    7  C           1     -14.225   9.564   5.380  0.00  0.00     0.127 C 
ENDROOT
BRANCH   5   8
HETATM    8  C           1     -14.577   8.837   2.473  0.00  0.00     0.278 C 
BRANCH   8   9
HETATM    9  N           1     -15.028   7.913   1.381  0.00  0.00    -0.066 N 
HETATM   10  H           1     -16.018   8.133   1.126  0.00  0.00     0.275 HD
HETATM   11  H           1     -14.416   8.037   0.544  0.00  0.00     0.275 HD
HETATM   12  H           1     -14.967   6.925   1.715  0.00  0.00     0.275 HD
ENDBRANCH   8   9
BRANCH   8  13
HETATM   13  C           1     -14.063  10.134   1.861  0.00  0.00     0.017 C 
HETATM   14  C           1     -14.847  10.441   0.591  0.00  0.00     0.012 C 
HETATM   15  C           1     -12.586   9.986   1.522  0.00  0.00     0.012 C 
ENDBRANCH   8  13
ENDBRANCH   5   8
BRANCH   3  16
HETATM   16  C           1     -16.589  11.272   5.941  0.00  0.00     0.196 C 
HETATM   17  O           1     -16.529  11.735   7.101  0.00  0.00    -0.646 OA
HETATM   18  O           1     -16.717  12.043   4.966  0.00  0.00    -0.646 OA
ENDBRANCH   3  16
TORSDOF 4
ENDMDL
