MODEL 1
REMARK VINA RESULT:      -7.3      0.000      0.000
REMARK  8 active torsions:
REMARK  status: ('A' for Active; 'I' for Inactive)
REMARK    1  A    between atoms: C_1  and  C_19 
REMARK    2  A    between atoms: N_3  and  C_18 
REMARK    3  A    between atoms: N_9  and  C_21 
REMARK       I    between atoms: N_9  and  C_10 
REMARK    4  A    between atoms: C_10  and  C_18 
REMARK    5  A    between atoms: C_15  and  C_17 
REMARK    6  A    between atoms: C_17  and  C_21 
REMARK    7  A    between atoms: C_18  and  C_19 
REMARK    8  A    between atoms: C_21  and  C_25 
ROOT
HETATM    1  N           1     -34.983  -1.250 -13.272  0.00  0.00    -0.344 N 
HETATM    2  C           1     -34.926  -2.255 -12.344  0.00  0.00     0.249 C 
HETATM    3  H           1     -34.949  -1.470 -14.259  0.00  0.00     0.163 HD
HETATM    4  O           1     -35.945  -2.774 -11.953  0.00  0.00    -0.271 OA
ENDROOT
BRANCH   1   5
HETATM    5  C           1     -35.091   0.130 -12.840  0.00  0.00     0.191 C 
BRANCH   5   6
HETATM    6  C           1     -35.314   1.025 -14.052  0.00  0.00     0.094 C 
BRANCH   6   7
HETATM    7  C           1     -36.189   0.319 -15.040  0.00  0.00     0.028 A 
HETATM    8  N           1     -37.559   0.393 -15.062  0.00  0.00    -0.354 N 
HETATM    9  C           1     -37.930  -0.362 -16.069  0.00  0.00     0.180 A 
ATOM     10  HN          1     -38.160   0.921 -14.430  1.00  0.00     0.166 HD
HETATM   11  N           1     -36.855  -0.920 -16.700  0.00  0.00    -0.360 N 
HETATM   12  H           1     -36.886  -1.560 -17.532  0.00  0.00     0.166 HD
HETATM   13  C           1     -35.730  -0.492 -16.050  0.00  0.00     0.114 A 
ENDBRANCH   6   7
ENDBRANCH   5   6
BRANCH   5  14
HETATM   14  C           1     -36.256   0.269 -11.890  0.00  0.00     0.197 C 
HETATM   15  O           1     -37.417   0.032 -12.288  0.00  0.00    -0.646 OA
HETATM   16  O           1     -36.059   0.621 -10.707  0.00  0.00    -0.646 OA
ENDBRANCH   5  14
ENDBRANCH   1   5
BRANCH   2  17
HETATM   17  C           1     -33.592  -2.715 -11.809  0.00  0.00     0.278 C 
BRANCH  17  18
HETATM   18  N           1     -33.410  -2.199 -10.413  0.00  0.00    -0.066 N 
HETATM   19  H           1     -32.605  -2.689  -9.962  0.00  0.00     0.275 HD
HETATM   20  H           1     -33.218  -1.172 -10.444  0.00  0.00     0.275 HD
HETATM   21  H           1     -34.279  -2.375  -9.860  0.00  0.00     0.275 HD
ENDBRANCH  17  18
BRANCH  17  22
HETATM   22  C           1     -33.546  -4.237 -11.797  0.00  0.00     0.021 C 
HETATM   23  C           1     -32.133  -4.706 -12.116  0.00  0.00     0.012 C 
BRANCH  22  24
HETATM   24  C           1     -33.949  -4.745 -10.419  0.00  0.00     0.002 C 
HETATM   25  C           1     -34.420  -6.190 -10.527  0.00  0.00     0.005 C 
ENDBRANCH  22  24
ENDBRANCH  17  22
ENDBRANCH   2  17
TORSDOF 8
ENDMDL
MODEL 2
REMARK VINA RESULT:      -6.9      2.429      3.923
REMARK  8 active torsions:
REMARK  status: ('A' for Active; 'I' for Inactive)
REMARK    1  A    between atoms: C_1  and  C_19 
REMARK    2  A    between atoms: N_3  and  C_18 
REMARK    3  A    between atoms: N_9  and  C_21 
REMARK       I    between atoms: N_9  and  C_10 
REMARK    4  A    between atoms: C_10  and  C_18 
REMARK    5  A    between atoms: C_15  and  C_17 
REMARK    6  A    between atoms: C_17  and  C_21 
REMARK    7  A    between atoms: C_18  and  C_19 
REMARK    8  A    between atoms: C_21  and  C_25 
ROOT
HETATM    1  N           1     -34.737  -1.394 -12.923  0.00  0.00    -0.344 N 
HETATM    2  C           1     -34.715  -2.639 -13.491  0.00  0.00     0.249 C 
HETATM    3  H           1     -33.869  -0.917 -12.718  0.00  0.00     0.163 HD
HETATM    4  O           1     -34.720  -2.755 -14.694  0.00  0.00    -0.271 OA
ENDROOT
BRANCH   1   5
HETATM    5  C           1     -36.004  -0.760 -12.615  0.00  0.00     0.191 C 
BRANCH   5   6
HETATM    6  C           1     -35.759   0.469 -11.749  0.00  0.00     0.094 C 
BRANCH   6   7
HETATM    7  C           1     -36.412   0.279 -10.415  0.00  0.00     0.028 A 
HETATM    8  N           1     -36.548   1.260  -9.467  0.00  0.00    -0.354 N 
HETATM    9  C           1     -37.168   0.687  -8.462  0.00  0.00     0.180 A 
ATOM     10  HN          1     -36.235   2.229  -9.529  1.00  0.00     0.166 HD
HETATM   11  N           1     -37.439  -0.626  -8.724  0.00  0.00    -0.360 N 
HETATM   12  H           1     -37.926  -1.300  -8.083  0.00  0.00     0.166 HD
HETATM   13  C           1     -36.959  -0.902  -9.974  0.00  0.00     0.114 A 
ENDBRANCH   6   7
ENDBRANCH   5   6
BRANCH   5  14
HETATM   14  C           1     -36.682  -0.345 -13.897  0.00  0.00     0.197 C 
HETATM   15  O           1     -37.810  -0.801 -14.184  0.00  0.00    -0.646 OA
HETATM   16  O           1     -36.116   0.455 -14.673  0.00  0.00    -0.646 OA
ENDBRANCH   5  14
ENDBRANCH   1   5
BRANCH   2  17
HETATM   17  C           1     -34.685  -3.869 -12.616  0.00  0.00     0.278 C 
BRANCH  17  18
HETATM   18  N           1     -34.661  -5.095 -13.480  0.00  0.00    -0.066 N 
HETATM   19  H           1     -34.175  -4.879 -14.378  0.00  0.00     0.275 HD
HETATM   20  H           1     -34.149  -5.859 -12.983  0.00  0.00     0.275 HD
HETATM   21  H           1     -35.640  -5.402 -13.678  0.00  0.00     0.275 HD
ENDBRANCH  17  18
BRANCH  17  22
HETATM   22  C           1     -33.439  -3.841 -11.741  0.00  0.00     0.021 C 
HETATM   23  C           1     -33.692  -2.963 -10.523  0.00  0.00     0.012 C 
BRANCH  22  24
HETATM   24  C           1     -33.108  -5.256 -11.286  0.00  0.00     0.002 C 
HETATM   25  C           1     -34.202  -5.757 -10.350  0.00  0.00     0.005 C 
ENDBRANCH  22  24
ENDBRANCH  17  22
ENDBRANCH   2  17
TORSDOF 8
ENDMDL
MODEL 3
REMARK VINA RESULT:      -6.9      9.564     11.304
REMARK  8 active torsions:
REMARK  status: ('A' for Active; 'I' for Inactive)
REMARK    1  A    between atoms: C_1  and  C_19 
REMARK    2  A    between atoms: N_3  and  C_18 
REMARK    3  A    between atoms: N_9  and  C_21 
REMARK       I    between atoms: N_9  and  C_10 
REMARK    4  A    between atoms: C_10  and  C_18 
REMARK    5  A    between atoms: C_15  and  C_17 
REMARK    6  A    between atoms: C_17  and  C_21 
REMARK    7  A    between atoms: C_18  and  C_19 
REMARK    8  A    between atoms: C_21  and  C_25 
ROOT
HETATM    1  N           1     -26.544  -6.959 -17.567  0.00  0.00    -0.344 N 
HETATM    2  C           1     -25.181  -6.862 -17.482  0.00  0.00     0.249 C 
HETATM    3  H           1     -26.977  -7.857 -17.739  0.00  0.00     0.163 HD
HETATM    4  O           1     -24.631  -6.993 -16.413  0.00  0.00    -0.271 OA
ENDROOT
BRANCH   1   5
HETATM    5  C           1     -27.366  -5.775 -17.409  0.00  0.00     0.191 C 
BRANCH   5   6
HETATM    6  C           1     -28.517  -5.820 -18.406  0.00  0.00     0.094 C 
BRANCH   6   7
HETATM    7  C           1     -29.665  -5.018 -17.879  0.00  0.00     0.028 A 
HETATM    8  N           1     -30.693  -5.527 -17.127  0.00  0.00    -0.354 N 
HETATM    9  C           1     -31.477  -4.506 -16.875  0.00  0.00     0.180 A 
ATOM     10  HN          1     -30.820  -6.494 -16.827  1.00  0.00     0.166 HD
HETATM   11  N           1     -30.997  -3.356 -17.434  0.00  0.00    -0.360 N 
HETATM   12  H           1     -31.439  -2.405 -17.377  0.00  0.00     0.166 HD
HETATM   13  C           1     -29.835  -3.669 -18.082  0.00  0.00     0.114 A 
ENDBRANCH   6   7
ENDBRANCH   5   6
BRANCH   5  14
HETATM   14  C           1     -27.918  -5.731 -16.005  0.00  0.00     0.197 C 
HETATM   15  O           1     -27.980  -4.644 -15.391  0.00  0.00    -0.646 OA
HETATM   16  O           1     -28.313  -6.783 -15.455  0.00  0.00    -0.646 OA
ENDBRANCH   5  14
ENDBRANCH   1   5
BRANCH   2  17
HETATM   17  C           1     -24.364  -6.593 -18.722  0.00  0.00     0.278 C 
BRANCH  17  18
HETATM   18  N           1     -22.993  -7.176 -18.552  0.00  0.00    -0.066 N 
HETATM   19  H           1     -22.710  -7.665 -19.431  0.00  0.00     0.275 HD
HETATM   20  H           1     -22.312  -6.410 -18.347  0.00  0.00     0.275 HD
HETATM   21  H           1     -23.000  -7.858 -17.761  0.00  0.00     0.275 HD
ENDBRANCH  17  18
BRANCH  17  22
HETATM   22  C           1     -25.042  -7.233 -19.927  0.00  0.00     0.021 C 
HETATM   23  C           1     -25.584  -6.144 -20.842  0.00  0.00     0.012 C 
BRANCH  22  24
HETATM   24  C           1     -24.027  -8.076 -20.688  0.00  0.00     0.002 C 
HETATM   25  C           1     -24.157  -7.802 -22.182  0.00  0.00     0.005 C 
ENDBRANCH  22  24
ENDBRANCH  17  22
ENDBRANCH   2  17
TORSDOF 8
ENDMDL
MODEL 4
REMARK VINA RESULT:      -6.6     13.554     15.821
REMARK  8 active torsions:
REMARK  status: ('A' for Active; 'I' for Inactive)
REMARK    1  A    between atoms: C_1  and  C_19 
REMARK    2  A    between atoms: N_3  and  C_18 
REMARK    3  A    between atoms: N_9  and  C_21 
REMARK       I    between atoms: N_9  and  C_10 
REMARK    4  A    between atoms: C_10  and  C_18 
REMARK    5  A    between atoms: C_15  and  C_17 
REMARK    6  A    between atoms: C_17  and  C_21 
REMARK    7  A    between atoms: C_18  and  C_19 
REMARK    8  A    between atoms: C_21  and  C_25 
ROOT
HETATM    1  N           1     -21.994  -4.719  -6.318  0.00  0.00    -0.344 N 
HETATM    2  C           1     -21.277  -5.380  -5.359  0.00  0.00     0.249 C 
HETATM    3  H           1     -22.721  -4.069  -6.049  0.00  0.00     0.163 HD
HETATM    4  O           1     -20.259  -4.895  -4.923  0.00  0.00    -0.271 OA
ENDROOT
BRANCH   1   5
HETATM    5  C           1     -21.713  -4.951  -7.722  0.00  0.00     0.191 C 
BRANCH   5   6
HETATM    6  C           1     -22.228  -3.776  -8.543  0.00  0.00     0.094 C 
BRANCH   6   7
HETATM    7  C           1     -22.530  -4.235  -9.936  0.00  0.00     0.028 A 
HETATM    8  N           1     -23.683  -4.873 -10.314  0.00  0.00    -0.354 N 
HETATM    9  C           1     -23.549  -5.097 -11.600  0.00  0.00     0.180 A 
ATOM     10  HN          1     -24.476  -5.120  -9.723  1.00  0.00     0.166 HD
HETATM   11  N           1     -22.355  -4.629 -12.068  0.00  0.00    -0.360 N 
HETATM   12  H           1     -22.010  -4.686 -13.059  0.00  0.00     0.166 HD
HETATM   13  C           1     -21.689  -4.073 -11.012  0.00  0.00     0.114 A 
ENDBRANCH   6   7
ENDBRANCH   5   6
BRANCH   5  14
HETATM   14  C           1     -20.223  -5.088  -7.919  0.00  0.00     0.197 C 
HETATM   15  O           1     -19.521  -4.071  -8.104  0.00  0.00    -0.646 OA
HETATM   16  O           1     -19.691  -6.220  -7.898  0.00  0.00    -0.646 OA
ENDBRANCH   5  14
ENDBRANCH   1   5
BRANCH   2  17
HETATM   17  C           1     -21.755  -6.716  -4.843  0.00  0.00     0.278 C 
BRANCH  17  18
HETATM   18  N           1     -21.254  -7.806  -5.743  0.00  0.00    -0.066 N 
HETATM   19  H           1     -21.950  -7.979  -6.503  0.00  0.00     0.275 HD
HETATM   20  H           1     -20.344  -7.517  -6.167  0.00  0.00     0.275 HD
HETATM   21  H           1     -21.119  -8.681  -5.189  0.00  0.00     0.275 HD
ENDBRANCH  17  18
BRANCH  17  22
HETATM   22  C           1     -21.222  -6.938  -3.434  0.00  0.00     0.021 C 
HETATM   23  C           1     -22.158  -6.282  -2.428  0.00  0.00     0.012 C 
BRANCH  22  24
HETATM   24  C           1     -21.143  -8.433  -3.153  0.00  0.00     0.002 C 
HETATM   25  C           1     -20.274  -8.674  -1.924  0.00  0.00     0.005 C 
ENDBRANCH  22  24
ENDBRANCH  17  22
ENDBRANCH   2  17
TORSDOF 8
ENDMDL
MODEL 5
REMARK VINA RESULT:      -6.4     14.690     17.682
REMARK  8 active torsions:
REMARK  status: ('A' for Active; 'I' for Inactive)
REMARK    1  A    between atoms: C_1  and  C_19 
REMARK    2  A    between atoms: N_3  and  C_18 
REMARK    3  A    between atoms: N_9  and  C_21 
REMARK       I    between atoms: N_9  and  C_10 
REMARK    4  A    between atoms: C_10  and  C_18 
REMARK    5  A    between atoms: C_15  and  C_17 
REMARK    6  A    between atoms: C_17  and  C_21 
REMARK    7  A    between atoms: C_18  and  C_19 
REMARK    8  A    between atoms: C_21  and  C_25 
ROOT
HETATM    1  N           1     -20.188  -6.737  -6.735  0.00  0.00    -0.344 N 
HETATM    2  C           1     -20.210  -5.393  -6.993  0.00  0.00     0.249 C 
HETATM    3  H           1     -20.097  -7.397  -7.496  0.00  0.00     0.163 HD
HETATM    4  O           1     -19.178  -4.764  -7.015  0.00  0.00    -0.271 OA
ENDROOT
BRANCH   1   5
HETATM    5  C           1     -20.293  -7.214  -5.370  0.00  0.00     0.191 C 
BRANCH   5   6
HETATM    6  C           1     -21.755  -7.212  -4.943  0.00  0.00     0.094 C 
BRANCH   6   7
HETATM    7  C           1     -21.841  -7.096  -3.453  0.00  0.00     0.028 A 
HETATM    8  N           1     -22.298  -5.992  -2.781  0.00  0.00    -0.354 N 
HETATM    9  C           1     -22.211  -6.300  -1.508  0.00  0.00     0.180 A 
ATOM     10  HN          1     -22.635  -5.118  -3.184  1.00  0.00     0.166 HD
HETATM   11  N           1     -21.715  -7.560  -1.331  0.00  0.00    -0.360 N 
HETATM   12  H           1     -21.550  -8.039  -0.412  0.00  0.00     0.166 HD
HETATM   13  C           1     -21.473  -8.084  -2.570  0.00  0.00     0.114 A 
ENDBRANCH   6   7
ENDBRANCH   5   6
BRANCH   5  14
HETATM   14  C           1     -19.747  -8.619  -5.285  0.00  0.00     0.197 C 
HETATM   15  O           1     -20.365  -9.563  -5.822  0.00  0.00    -0.646 OA
HETATM   16  O           1     -18.677  -8.838  -4.677  0.00  0.00    -0.646 OA
ENDBRANCH   5  14
ENDBRANCH   1   5
BRANCH   2  17
HETATM   17  C           1     -21.523  -4.696  -7.252  0.00  0.00     0.278 C 
BRANCH  17  18
HETATM   18  N           1     -21.377  -3.232  -6.957  0.00  0.00    -0.066 N 
HETATM   19  H           1     -20.382  -3.022  -6.719  0.00  0.00     0.275 HD
HETATM   20  H           1     -21.658  -2.678  -7.798  0.00  0.00     0.275 HD
HETATM   21  H           1     -21.990  -2.976  -6.151  0.00  0.00     0.275 HD
ENDBRANCH  17  18
BRANCH  17  22
HETATM   22  C           1     -21.919  -4.881  -8.712  0.00  0.00     0.021 C 
HETATM   23  C           1     -23.266  -4.217  -8.961  0.00  0.00     0.012 C 
BRANCH  22  24
HETATM   24  C           1     -20.865  -4.241  -9.607  0.00  0.00     0.002 C 
HETATM   25  C           1     -21.478  -3.923 -10.965  0.00  0.00     0.005 C 
ENDBRANCH  22  24
ENDBRANCH  17  22
ENDBRANCH   2  17
TORSDOF 8
ENDMDL
MODEL 6
REMARK VINA RESULT:      -6.3      9.080     10.981
REMARK  8 active torsions:
REMARK  status: ('A' for Active; 'I' for Inactive)
REMARK    1  A    between atoms: C_1  and  C_19 
REMARK    2  A    between atoms: N_3  and  C_18 
REMARK    3  A    between atoms: N_9  and  C_21 
REMARK       I    between atoms: N_9  and  C_10 
REMARK    4  A    between atoms: C_10  and  C_18 
REMARK    5  A    between atoms: C_15  and  C_17 
REMARK    6  A    between atoms: C_17  and  C_21 
REMARK    7  A    between atoms: C_18  and  C_19 
REMARK    8  A    between atoms: C_21  and  C_25 
ROOT
HETATM    1  N           1     -27.214  -5.477 -17.586  0.00  0.00    -0.344 N 
HETATM    2  C           1     -27.358  -5.946 -18.863  0.00  0.00     0.249 C 
HETATM    3  H           1     -26.493  -4.798 -17.374  0.00  0.00     0.163 HD
HETATM    4  O           1     -28.091  -5.376 -19.637  0.00  0.00    -0.271 OA
ENDROOT
BRANCH   1   5
HETATM    5  C           1     -28.094  -5.952 -16.536  0.00  0.00     0.191 C 
BRANCH   5   6
HETATM    6  C           1     -29.353  -6.540 -17.158  0.00  0.00     0.094 C 
BRANCH   6   7
HETATM    7  C           1     -30.461  -5.536 -17.087  0.00  0.00     0.028 A 
HETATM    8  N           1     -31.757  -5.827 -16.745  0.00  0.00    -0.354 N 
HETATM    9  C           1     -32.396  -4.682 -16.804  0.00  0.00     0.180 A 
ATOM     10  HN          1     -32.142  -6.738 -16.498  1.00  0.00     0.166 HD
HETATM   11  N           1     -31.564  -3.663 -17.170  0.00  0.00    -0.360 N 
HETATM   12  H           1     -31.831  -2.654 -17.288  0.00  0.00     0.166 HD
HETATM   13  C           1     -30.319  -4.195 -17.356  0.00  0.00     0.114 A 
ENDBRANCH   6   7
ENDBRANCH   5   6
BRANCH   5  14
HETATM   14  C           1     -27.386  -7.015 -15.731  0.00  0.00     0.197 C 
HETATM   15  O           1     -26.155  -7.181 -15.862  0.00  0.00    -0.646 OA
HETATM   16  O           1     -28.033  -7.730 -14.935  0.00  0.00    -0.646 OA
ENDBRANCH   5  14
ENDBRANCH   1   5
BRANCH   2  17
HETATM   17  C           1     -26.602  -7.174 -19.308  0.00  0.00     0.278 C 
BRANCH  17  18
HETATM   18  N           1     -27.384  -7.884 -20.372  0.00  0.00    -0.066 N 
HETATM   19  H           1     -27.995  -8.608 -19.932  0.00  0.00     0.275 HD
HETATM   20  H           1     -27.978  -7.193 -20.885  0.00  0.00     0.275 HD
HETATM   21  H           1     -26.726  -8.343 -21.041  0.00  0.00     0.275 HD
ENDBRANCH  17  18
BRANCH  17  22
HETATM   22  C           1     -25.245  -6.762 -19.865  0.00  0.00     0.021 C 
HETATM   23  C           1     -24.151  -7.151 -18.881  0.00  0.00     0.012 C 
BRANCH  22  24
HETATM   24  C           1     -25.008  -7.471 -21.193  0.00  0.00     0.002 C 
HETATM   25  C           1     -23.673  -8.204 -21.145  0.00  0.00     0.005 C 
ENDBRANCH  22  24
ENDBRANCH  17  22
ENDBRANCH   2  17
TORSDOF 8
ENDMDL
MODEL 7
REMARK VINA RESULT:      -6.3      8.088      9.581
REMARK  8 active torsions:
REMARK  status: ('A' for Active; 'I' for Inactive)
REMARK    1  A    between atoms: C_1  and  C_19 
REMARK    2  A    between atoms: N_3  and  C_18 
REMARK    3  A    between atoms: N_9  and  C_21 
REMARK       I    between atoms: N_9  and  C_10 
REMARK    4  A    between atoms: C_10  and  C_18 
REMARK    5  A    between atoms: C_15  and  C_17 
REMARK    6  A    between atoms: C_17  and  C_21 
REMARK    7  A    between atoms: C_18  and  C_19 
REMARK    8  A    between atoms: C_21  and  C_25 
ROOT
HETATM    1  N           1     -29.192  -5.071 -18.645  0.00  0.00    -0.344 N 
HETATM    2  C           1     -28.425  -6.204 -18.599  0.00  0.00     0.249 C 
HETATM    3  H           1     -29.399  -4.635 -19.535  0.00  0.00     0.163 HD
HETATM    4  O           1     -28.949  -7.291 -18.666  0.00  0.00    -0.271 OA
ENDROOT
BRANCH   1   5
HETATM    5  C           1     -29.708  -4.495 -17.419  0.00  0.00     0.191 C 
BRANCH   5   6
HETATM    6  C           1     -30.863  -5.345 -16.906  0.00  0.00     0.094 C 
BRANCH   6   7
HETATM    7  C           1     -32.113  -4.521 -16.871  0.00  0.00     0.028 A 
HETATM    8  N           1     -33.216  -4.810 -16.110  0.00  0.00    -0.354 N 
HETATM    9  C           1     -34.075  -3.851 -16.367  0.00  0.00     0.180 A 
ATOM     10  HN          1     -33.343  -5.601 -15.479  1.00  0.00     0.166 HD
HETATM   11  N           1     -33.569  -2.953 -17.263  0.00  0.00    -0.360 N 
HETATM   12  H           1     -34.057  -2.098 -17.629  0.00  0.00     0.166 HD
HETATM   13  C           1     -32.310  -3.370 -17.596  0.00  0.00     0.114 A 
ENDBRANCH   6   7
ENDBRANCH   5   6
BRANCH   5  14
HETATM   14  C           1     -28.612  -4.458 -16.382  0.00  0.00     0.197 C 
HETATM   15  O           1     -27.679  -3.634 -16.488  0.00  0.00    -0.646 OA
HETATM   16  O           1     -28.637  -5.253 -15.417  0.00  0.00    -0.646 OA
ENDBRANCH   5  14
ENDBRANCH   1   5
BRANCH   2  17
HETATM   17  C           1     -26.926  -6.096 -18.466  0.00  0.00     0.278 C 
BRANCH  17  18
HETATM   18  N           1     -26.496  -6.701 -17.163  0.00  0.00    -0.066 N 
HETATM   19  H           1     -27.326  -6.808 -16.537  0.00  0.00     0.275 HD
HETATM   20  H           1     -26.071  -7.639 -17.338  0.00  0.00     0.275 HD
HETATM   21  H           1     -25.792  -6.079 -16.705  0.00  0.00     0.275 HD
ENDBRANCH  17  18
BRANCH  17  22
HETATM   22  C           1     -26.258  -6.841 -19.615  0.00  0.00     0.021 C 
HETATM   23  C           1     -26.428  -6.047 -20.903  0.00  0.00     0.012 C 
BRANCH  22  24
HETATM   24  C           1     -24.774  -7.008 -19.314  0.00  0.00     0.002 C 
HETATM   25  C           1     -24.112  -7.790 -20.443  0.00  0.00     0.005 C 
ENDBRANCH  22  24
ENDBRANCH  17  22
ENDBRANCH   2  17
TORSDOF 8
ENDMDL
MODEL 8
REMARK VINA RESULT:      -6.2     17.509     19.264
REMARK  8 active torsions:
REMARK  status: ('A' for Active; 'I' for Inactive)
REMARK    1  A    between atoms: C_1  and  C_19 
REMARK    2  A    between atoms: N_3  and  C_18 
REMARK    3  A    between atoms: N_9  and  C_21 
REMARK       I    between atoms: N_9  and  C_10 
REMARK    4  A    between atoms: C_10  and  C_18 
REMARK    5  A    between atoms: C_15  and  C_17 
REMARK    6  A    between atoms: C_17  and  C_21 
REMARK    7  A    between atoms: C_18  and  C_19 
REMARK    8  A    between atoms: C_21  and  C_25 
ROOT
HETATM    1  N           1     -21.796  -7.627  -3.681  0.00  0.00    -0.344 N 
HETATM    2  C           1     -21.835  -7.022  -2.454  0.00  0.00     0.249 C 
HETATM    3  H           1     -22.628  -8.061  -4.058  0.00  0.00     0.163 HD
HETATM    4  O           1     -22.119  -5.850  -2.367  0.00  0.00    -0.271 OA
ENDROOT
BRANCH   1   5
HETATM    5  C           1     -20.560  -7.646  -4.440  0.00  0.00     0.191 C 
BRANCH   5   6
HETATM    6  C           1     -20.371  -9.022  -5.066  0.00  0.00     0.094 C 
BRANCH   6   7
HETATM    7  C           1     -18.914  -9.367  -5.082  0.00  0.00     0.028 A 
HETATM    8  N           1     -18.185  -9.623  -6.215  0.00  0.00    -0.354 N 
HETATM    9  C           1     -16.969  -9.878  -5.794  0.00  0.00     0.180 A 
ATOM     10  HN          1     -18.517  -9.616  -7.179  1.00  0.00     0.166 HD
HETATM   11  N           1     -16.882  -9.797  -4.433  0.00  0.00    -0.360 N 
HETATM   12  H           1     -16.021  -9.956  -3.854  0.00  0.00     0.166 HD
HETATM   13  C           1     -18.123  -9.469  -3.962  0.00  0.00     0.114 A 
ENDBRANCH   6   7
ENDBRANCH   5   6
BRANCH   5  14
HETATM   14  C           1     -20.624  -6.603  -5.529  0.00  0.00     0.197 C 
HETATM   15  O           1     -20.410  -5.402  -5.256  0.00  0.00    -0.646 OA
HETATM   16  O           1     -20.892  -6.939  -6.702  0.00  0.00    -0.646 OA
ENDBRANCH   5  14
ENDBRANCH   1   5
BRANCH   2  17
HETATM   17  C           1     -21.526  -7.817  -1.209  0.00  0.00     0.278 C 
BRANCH  17  18
HETATM   18  N           1     -22.289  -7.246  -0.050  0.00  0.00    -0.066 N 
HETATM   19  H           1     -23.202  -6.865  -0.386  0.00  0.00     0.275 HD
HETATM   20  H           1     -22.464  -7.997   0.655  0.00  0.00     0.275 HD
HETATM   21  H           1     -21.732  -6.479   0.389  0.00  0.00     0.275 HD
ENDBRANCH  17  18
BRANCH  17  22
HETATM   22  C           1     -21.936  -9.270  -1.418  0.00  0.00     0.021 C 
HETATM   23  C           1     -20.703 -10.160  -1.347  0.00  0.00     0.012 C 
BRANCH  22  24
HETATM   24  C           1     -22.921  -9.679  -0.330  0.00  0.00     0.002 C 
HETATM   25  C           1     -23.727 -10.883  -0.801  0.00  0.00     0.005 C 
ENDBRANCH  22  24
ENDBRANCH  17  22
ENDBRANCH   2  17
TORSDOF 8
ENDMDL
MODEL 9
REMARK VINA RESULT:      -6.2     16.080     18.747
REMARK  8 active torsions:
REMARK  status: ('A' for Active; 'I' for Inactive)
REMARK    1  A    between atoms: C_1  and  C_19 
REMARK    2  A    between atoms: N_3  and  C_18 
REMARK    3  A    between atoms: N_9  and  C_21 
REMARK       I    between atoms: N_9  and  C_10 
REMARK    4  A    between atoms: C_10  and  C_18 
REMARK    5  A    between atoms: C_15  and  C_17 
REMARK    6  A    between atoms: C_17  and  C_21 
REMARK    7  A    between atoms: C_18  and  C_19 
REMARK    8  A    between atoms: C_21  and  C_25 
ROOT
HETATM    1  N           1     -21.323  -6.454  -3.007  0.00  0.00    -0.344 N 
HETATM    2  C           1     -21.695  -6.318  -4.317  0.00  0.00     0.249 C 
HETATM    3  H           1     -21.058  -5.639  -2.469  0.00  0.00     0.163 HD
HETATM    4  O           1     -22.855  -6.130  -4.600  0.00  0.00    -0.271 OA
ENDROOT
BRANCH   1   5
HETATM    5  C           1     -21.308  -7.767  -2.391  0.00  0.00     0.191 C 
BRANCH   5   6
HETATM    6  C           1     -19.873  -8.269  -2.301  0.00  0.00     0.094 C 
BRANCH   6   7
HETATM    7  C           1     -19.626  -9.274  -3.382  0.00  0.00     0.028 A 
HETATM    8  N           1     -20.551 -10.181  -3.830  0.00  0.00    -0.354 N 
HETATM    9  C           1     -19.941 -10.864  -4.770  0.00  0.00     0.180 A 
ATOM     10  HN          1     -21.510 -10.299  -3.503  1.00  0.00     0.166 HD
HETATM   11  N           1     -18.657 -10.433  -4.947  0.00  0.00    -0.360 N 
HETATM   12  H           1     -17.963 -10.815  -5.637  0.00  0.00     0.166 HD
HETATM   13  C           1     -18.440  -9.413  -4.063  0.00  0.00     0.114 A 
ENDBRANCH   6   7
ENDBRANCH   5   6
BRANCH   5  14
HETATM   14  C           1     -21.898  -7.677  -1.004  0.00  0.00     0.197 C 
HETATM   15  O           1     -21.475  -8.425  -0.096  0.00  0.00    -0.646 OA
HETATM   16  O           1     -22.809  -6.856  -0.765  0.00  0.00    -0.646 OA
ENDBRANCH   5  14
ENDBRANCH   1   5
BRANCH   2  17
HETATM   17  C           1     -20.657  -6.402  -5.410  0.00  0.00     0.278 C 
BRANCH  17  18
HETATM   18  N           1     -20.952  -7.581  -6.289  0.00  0.00    -0.066 N 
HETATM   19  H           1     -20.283  -8.353  -6.073  0.00  0.00     0.275 HD
HETATM   20  H           1     -21.929  -7.909  -6.114  0.00  0.00     0.275 HD
HETATM   21  H           1     -20.851  -7.303  -7.291  0.00  0.00     0.275 HD
ENDBRANCH  17  18
BRANCH  17  22
HETATM   22  C           1     -20.691  -5.127  -6.243  0.00  0.00     0.021 C 
HETATM   23  C           1     -19.268  -4.676  -6.541  0.00  0.00     0.012 C 
BRANCH  22  24
HETATM   24  C           1     -21.421  -5.399  -7.553  0.00  0.00     0.002 C 
HETATM   25  C           1     -20.694  -4.698  -8.694  0.00  0.00     0.005 C 
ENDBRANCH  22  24
ENDBRANCH  17  22
ENDBRANCH   2  17
TORSDOF 8
ENDMDL
