MODEL 1
REMARK VINA RESULT:      -6.8      0.000      0.000
REMARK  8 active torsions:
REMARK  status: ('A' for Active; 'I' for Inactive)
REMARK    1  A    between atoms: C_1  and  C_8 
REMARK    2  A    between atoms: C_5  and  C_6 
REMARK    3  A    between atoms: C_5  and  C_8 
REMARK    4  A    between atoms: C_5  and  N_25 
REMARK       I    between atoms: C_6  and  N_21 
REMARK    5  A    between atoms: C_11  and  C_12 
REMARK    6  A    between atoms: C_12  and  C_13 
REMARK    7  A    between atoms: C_12  and  N_21 
REMARK    8  A    between atoms: C_13  and  C_17 
ROOT
HETATM    1  C           1     -34.407  -4.459 -12.095  0.00  0.00     0.261 C 
ENDROOT
BRANCH   1   2
HETATM    2  C           1     -34.546  -3.038 -11.605  0.00  0.00     0.130 C 
HETATM    3  N           1     -35.519  -2.229 -12.125  0.00  0.00    -0.359 N 
HETATM    4  H           1     -36.146  -2.582 -12.836  0.00  0.00     0.162 HD
HETATM    5  O           1     -33.798  -2.617 -10.756  0.00  0.00    -0.397 OA
BRANCH   3   6
HETATM    6  C           1     -35.653  -0.864 -11.654  0.00  0.00     0.184 C 
BRANCH   6   7
HETATM    7  C           1     -36.607  -0.827 -10.485  0.00  0.00     0.196 C 
HETATM    8  O           1     -37.818  -1.086 -10.658  0.00  0.00    -0.646 OA
HETATM    9  O           1     -36.187  -0.538  -9.344  0.00  0.00    -0.646 OA
ENDBRANCH   6   7
BRANCH   6  10
HETATM   10  C           1     -36.193   0.011 -12.777  0.00  0.00     0.040 C 
BRANCH  10  11
HETATM   11  C           1     -35.228  -0.018 -13.954  0.00  0.00    -0.018 C 
HETATM   12  C           1     -34.544   1.337 -14.084  0.00  0.00     0.289 C 
HETATM   13  C           1     -35.997  -0.323 -15.233  0.00  0.00     0.009 C 
ENDBRANCH  10  11
ENDBRANCH   6  10
ENDBRANCH   3   6
ENDBRANCH   1   2
BRANCH   1  14
HETATM   14  C           1     -33.309  -5.163 -11.309  0.00  0.00     0.099 C 
BRANCH  14  15
HETATM   15  C           1     -33.870  -6.381 -10.646  0.00  0.00     0.028 A 
HETATM   16  C           1     -35.070  -6.425  -9.977  0.00  0.00     0.114 A 
HETATM   17  N           1     -35.185  -7.715  -9.538  0.00  0.00    -0.360 N 
HETATM   18  C           1     -34.072  -8.389  -9.952  0.00  0.00     0.180 A 
HETATM   19  H           1     -35.983  -8.114  -8.986  0.00  0.00     0.166 HD
HETATM   20  N           1     -33.258  -7.609 -10.624  0.00  0.00    -0.355 N 
ATOM     21  HN          1     -32.363  -7.861 -11.041  1.00  0.00     0.166 HD
ENDBRANCH  14  15
ENDBRANCH   1  14
BRANCH   1  22
HETATM   22  N           1     -34.051  -4.452 -13.553  0.00  0.00    -0.067 N 
HETATM   23  H           1     -34.245  -3.508 -13.954  0.00  0.00     0.275 HD
HETATM   24  H           1     -34.624  -5.169 -14.055  0.00  0.00     0.275 HD
HETATM   25  H           1     -33.037  -4.678 -13.665  0.00  0.00     0.275 HD
ENDBRANCH   1  22
TORSDOF 8
ENDMDL
MODEL 2
REMARK VINA RESULT:      -6.5      2.798      6.333
REMARK  8 active torsions:
REMARK  status: ('A' for Active; 'I' for Inactive)
REMARK    1  A    between atoms: C_1  and  C_8 
REMARK    2  A    between atoms: C_5  and  C_6 
REMARK    3  A    between atoms: C_5  and  C_8 
REMARK    4  A    between atoms: C_5  and  N_25 
REMARK       I    between atoms: C_6  and  N_21 
REMARK    5  A    between atoms: C_11  and  C_12 
REMARK    6  A    between atoms: C_12  and  C_13 
REMARK    7  A    between atoms: C_12  and  N_21 
REMARK    8  A    between atoms: C_13  and  C_17 
ROOT
HETATM    1  C           1     -35.779   0.150 -11.956  0.00  0.00     0.261 C 
ENDROOT
BRANCH   1   2
HETATM    2  C           1     -34.953  -1.113 -11.935  0.00  0.00     0.130 C 
HETATM    3  N           1     -35.211  -2.113 -12.834  0.00  0.00    -0.359 N 
HETATM    4  H           1     -35.954  -2.006 -13.512  0.00  0.00     0.162 HD
HETATM    5  O           1     -34.065  -1.240 -11.126  0.00  0.00    -0.397 OA
BRANCH   3   6
HETATM    6  C           1     -34.417  -3.326 -12.814  0.00  0.00     0.184 C 
BRANCH   6   7
HETATM    7  C           1     -34.558  -4.040 -14.136  0.00  0.00     0.196 C 
HETATM    8  O           1     -34.217  -3.470 -15.195  0.00  0.00    -0.646 OA
HETATM    9  O           1     -35.015  -5.203 -14.173  0.00  0.00    -0.646 OA
ENDBRANCH   6   7
BRANCH   6  10
HETATM   10  C           1     -34.904  -4.235 -11.693  0.00  0.00     0.040 C 
BRANCH  10  11
HETATM   11  C           1     -33.706  -4.799 -10.939  0.00  0.00    -0.018 C 
HETATM   12  C           1     -32.436  -4.542 -11.739  0.00  0.00     0.289 C 
HETATM   13  C           1     -33.890  -6.298 -10.746  0.00  0.00     0.009 C 
ENDBRANCH  10  11
ENDBRANCH   6  10
ENDBRANCH   3   6
ENDBRANCH   1   2
BRANCH   1  14
HETATM   14  C           1     -37.092  -0.090 -11.224  0.00  0.00     0.099 C 
BRANCH  14  15
HETATM   15  C           1     -36.988   0.434  -9.826  0.00  0.00     0.028 A 
HETATM   16  C           1     -37.745   1.463  -9.318  0.00  0.00     0.114 A 
HETATM   17  N           1     -37.326   1.606  -8.025  0.00  0.00    -0.360 N 
HETATM   18  C           1     -36.351   0.676  -7.804  0.00  0.00     0.180 A 
HETATM   19  H           1     -37.688   2.304  -7.328  0.00  0.00     0.166 HD
HETATM   20  N           1     -36.125  -0.048  -8.875  0.00  0.00    -0.355 N 
ATOM     21  HN          1     -35.451  -0.806  -8.979  1.00  0.00     0.166 HD
ENDBRANCH  14  15
ENDBRANCH   1  14
BRANCH   1  22
HETATM   22  N           1     -36.063   0.537 -13.377  0.00  0.00    -0.067 N 
HETATM   23  H           1     -35.241   0.295 -13.976  0.00  0.00     0.275 HD
HETATM   24  H           1     -36.240   1.566 -13.430  0.00  0.00     0.275 HD
HETATM   25  H           1     -36.906   0.022 -13.717  0.00  0.00     0.275 HD
ENDBRANCH   1  22
TORSDOF 8
ENDMDL
MODEL 3
REMARK VINA RESULT:      -6.3     13.696     16.414
REMARK  8 active torsions:
REMARK  status: ('A' for Active; 'I' for Inactive)
REMARK    1  A    between atoms: C_1  and  C_8 
REMARK    2  A    between atoms: C_5  and  C_6 
REMARK    3  A    between atoms: C_5  and  C_8 
REMARK    4  A    between atoms: C_5  and  N_25 
REMARK       I    between atoms: C_6  and  N_21 
REMARK    5  A    between atoms: C_11  and  C_12 
REMARK    6  A    between atoms: C_12  and  C_13 
REMARK    7  A    between atoms: C_12  and  N_21 
REMARK    8  A    between atoms: C_13  and  C_17 
ROOT
HETATM    1  C           1     -21.947  -5.045  -7.606  0.00  0.00     0.261 C 
ENDROOT
BRANCH   1   2
HETATM    2  C           1     -21.217  -5.537  -6.380  0.00  0.00     0.130 C 
HETATM    3  N           1     -21.188  -6.875  -6.093  0.00  0.00    -0.359 N 
HETATM    4  H           1     -21.654  -7.535  -6.703  0.00  0.00     0.162 HD
HETATM    5  O           1     -20.659  -4.750  -5.653  0.00  0.00    -0.397 OA
BRANCH   3   6
HETATM    6  C           1     -20.486  -7.347  -4.916  0.00  0.00     0.184 C 
BRANCH   6   7
HETATM    7  C           1     -19.706  -8.593  -5.262  0.00  0.00     0.196 C 
HETATM    8  O           1     -18.851  -8.562  -6.174  0.00  0.00    -0.646 OA
HETATM    9  O           1     -19.913  -9.654  -4.635  0.00  0.00    -0.646 OA
ENDBRANCH   6   7
BRANCH   6  10
HETATM   10  C           1     -21.492  -7.669  -3.819  0.00  0.00     0.040 C 
BRANCH  10  11
HETATM   11  C           1     -21.063  -6.994  -2.522  0.00  0.00    -0.018 C 
HETATM   12  C           1     -20.692  -8.057  -1.496  0.00  0.00     0.289 C 
HETATM   13  C           1     -22.212  -6.151  -1.985  0.00  0.00     0.009 C 
ENDBRANCH  10  11
ENDBRANCH   6  10
ENDBRANCH   3   6
ENDBRANCH   1   2
BRANCH   1  14
HETATM   14  C           1     -21.082  -4.027  -8.338  0.00  0.00     0.099 C 
BRANCH  14  15
HETATM   15  C           1     -21.371  -4.089  -9.805  0.00  0.00     0.028 A 
HETATM   16  C           1     -20.533  -3.618 -10.788  0.00  0.00     0.114 A 
HETATM   17  N           1     -21.185  -3.875 -11.962  0.00  0.00    -0.360 N 
HETATM   18  C           1     -22.369  -4.481 -11.650  0.00  0.00     0.180 A 
HETATM   19  H           1     -20.837  -3.649 -12.927  0.00  0.00     0.166 HD
HETATM   20  N           1     -22.509  -4.623 -10.353  0.00  0.00    -0.355 N 
ATOM     21  HN          1     -23.297  -5.042  -9.859  1.00  0.00     0.166 HD
ENDBRANCH  14  15
ENDBRANCH   1  14
BRANCH   1  22
HETATM   22  N           1     -23.237  -4.399  -7.194  0.00  0.00    -0.067 N 
HETATM   23  H           1     -23.313  -3.457  -7.639  0.00  0.00     0.275 HD
HETATM   24  H           1     -23.258  -4.295  -6.154  0.00  0.00     0.275 HD
HETATM   25  H           1     -24.038  -4.996  -7.499  0.00  0.00     0.275 HD
ENDBRANCH   1  22
TORSDOF 8
ENDMDL
MODEL 4
REMARK VINA RESULT:      -6.2     12.366     14.113
REMARK  8 active torsions:
REMARK  status: ('A' for Active; 'I' for Inactive)
REMARK    1  A    between atoms: C_1  and  C_8 
REMARK    2  A    between atoms: C_5  and  C_6 
REMARK    3  A    between atoms: C_5  and  C_8 
REMARK    4  A    between atoms: C_5  and  N_25 
REMARK       I    between atoms: C_6  and  N_21 
REMARK    5  A    between atoms: C_11  and  C_12 
REMARK    6  A    between atoms: C_12  and  C_13 
REMARK    7  A    between atoms: C_12  and  N_21 
REMARK    8  A    between atoms: C_13  and  C_17 
ROOT
HETATM    1  C           1     -21.237  -5.393  -6.470  0.00  0.00     0.261 C 
ENDROOT
BRANCH   1   2
HETATM    2  C           1     -21.694  -4.462  -7.566  0.00  0.00     0.130 C 
HETATM    3  N           1     -22.342  -4.964  -8.663  0.00  0.00    -0.359 N 
HETATM    4  H           1     -22.515  -5.958  -8.738  0.00  0.00     0.162 HD
HETATM    5  O           1     -21.489  -3.275  -7.476  0.00  0.00    -0.397 OA
BRANCH   3   6
HETATM    6  C           1     -22.782  -4.070  -9.716  0.00  0.00     0.184 C 
BRANCH   6   7
HETATM    7  C           1     -24.282  -3.909  -9.645  0.00  0.00     0.196 C 
HETATM    8  O           1     -24.783  -2.775  -9.488  0.00  0.00    -0.646 OA
HETATM    9  O           1     -25.023  -4.911  -9.743  0.00  0.00    -0.646 OA
ENDBRANCH   6   7
BRANCH   6  10
HETATM   10  C           1     -22.399  -4.651 -11.070  0.00  0.00     0.040 C 
BRANCH  10  11
HETATM   11  C           1     -21.079  -4.044 -11.529  0.00  0.00    -0.018 C 
HETATM   12  C           1     -19.935  -4.660 -10.736  0.00  0.00     0.289 C 
HETATM   13  C           1     -21.106  -2.539 -11.296  0.00  0.00     0.009 C 
ENDBRANCH  10  11
ENDBRANCH   6  10
ENDBRANCH   3   6
ENDBRANCH   1   2
BRANCH   1  14
HETATM   14  C           1     -22.443  -5.872  -5.674  0.00  0.00     0.099 C 
BRANCH  14  15
HETATM   15  C           1     -21.979  -6.607  -4.456  0.00  0.00     0.028 A 
HETATM   16  C           1     -21.369  -7.839  -4.470  0.00  0.00     0.114 A 
HETATM   17  N           1     -21.119  -8.126  -3.157  0.00  0.00    -0.360 N 
HETATM   18  C           1     -21.576  -7.076  -2.413  0.00  0.00     0.180 A 
HETATM   19  H           1     -20.657  -8.994  -2.789  0.00  0.00     0.166 HD
HETATM   20  N           1     -22.102  -6.142  -3.171  0.00  0.00    -0.355 N 
ATOM     21  HN          1     -22.514  -5.259  -2.869  1.00  0.00     0.166 HD
ENDBRANCH  14  15
ENDBRANCH   1  14
BRANCH   1  22
HETATM   22  N           1     -20.295  -4.664  -5.558  0.00  0.00    -0.067 N 
HETATM   23  H           1     -19.566  -4.177  -6.126  0.00  0.00     0.275 HD
HETATM   24  H           1     -19.834  -5.347  -4.914  0.00  0.00     0.275 HD
HETATM   25  H           1     -20.827  -3.962  -4.996  0.00  0.00     0.275 HD
ENDBRANCH   1  22
TORSDOF 8
ENDMDL
MODEL 5
REMARK VINA RESULT:      -6.0     13.168     16.038
REMARK  8 active torsions:
REMARK  status: ('A' for Active; 'I' for Inactive)
REMARK    1  A    between atoms: C_1  and  C_8 
REMARK    2  A    between atoms: C_5  and  C_6 
REMARK    3  A    between atoms: C_5  and  C_8 
REMARK    4  A    between atoms: C_5  and  N_25 
REMARK       I    between atoms: C_6  and  N_21 
REMARK    5  A    between atoms: C_11  and  C_12 
REMARK    6  A    between atoms: C_12  and  C_13 
REMARK    7  A    between atoms: C_12  and  N_21 
REMARK    8  A    between atoms: C_13  and  C_17 
ROOT
HETATM    1  C           1     -21.225  -4.771  -6.573  0.00  0.00     0.261 C 
ENDROOT
BRANCH   1   2
HETATM    2  C           1     -21.835  -5.753  -5.602  0.00  0.00     0.130 C 
HETATM    3  N           1     -21.026  -6.531  -4.819  0.00  0.00    -0.359 N 
HETATM    4  H           1     -20.020  -6.448  -4.890  0.00  0.00     0.162 HD
HETATM    5  O           1     -23.036  -5.851  -5.517  0.00  0.00    -0.397 OA
BRANCH   3   6
HETATM    6  C           1     -21.612  -7.473  -3.885  0.00  0.00     0.184 C 
BRANCH   6   7
HETATM    7  C           1     -21.557  -6.899  -2.490  0.00  0.00     0.196 C 
HETATM    8  O           1     -22.264  -5.911  -2.193  0.00  0.00    -0.646 OA
HETATM    9  O           1     -20.806  -7.411  -1.632  0.00  0.00    -0.646 OA
ENDBRANCH   6   7
BRANCH   6  10
HETATM   10  C           1     -20.831  -8.781  -3.925  0.00  0.00     0.040 C 
BRANCH  10  11
HETATM   11  C           1     -21.792  -9.940  -4.157  0.00  0.00    -0.018 C 
HETATM   12  C           1     -21.978 -10.712  -2.858  0.00  0.00     0.289 C 
HETATM   13  C           1     -21.220 -10.867  -5.221  0.00  0.00     0.009 C 
ENDBRANCH  10  11
ENDBRANCH   6  10
ENDBRANCH   3   6
ENDBRANCH   1   2
BRANCH   1  14
HETATM   14  C           1     -21.347  -5.316  -7.990  0.00  0.00     0.099 C 
BRANCH  14  15
HETATM   15  C           1     -22.393  -4.546  -8.733  0.00  0.00     0.028 A 
HETATM   16  C           1     -22.301  -4.178 -10.055  0.00  0.00     0.114 A 
HETATM   17  N           1     -23.461  -3.502 -10.315  0.00  0.00    -0.360 N 
HETATM   18  C           1     -24.195  -3.489  -9.164  0.00  0.00     0.180 A 
HETATM   19  H           1     -23.736  -3.073 -11.233  0.00  0.00     0.166 HD
HETATM   20  N           1     -23.575  -4.112  -8.190  0.00  0.00    -0.355 N 
ATOM     21  HN          1     -23.902  -4.245  -7.233  1.00  0.00     0.166 HD
ENDBRANCH  14  15
ENDBRANCH   1  14
BRANCH   1  22
HETATM   22  N           1     -19.777  -4.571  -6.237  0.00  0.00    -0.067 N 
HETATM   23  H           1     -19.198  -5.261  -6.766  0.00  0.00     0.275 HD
HETATM   24  H           1     -19.633  -4.710  -5.211  0.00  0.00     0.275 HD
HETATM   25  H           1     -19.489  -3.601  -6.499  0.00  0.00     0.275 HD
ENDBRANCH   1  22
TORSDOF 8
ENDMDL
MODEL 6
REMARK VINA RESULT:      -5.7     14.071     16.955
REMARK  8 active torsions:
REMARK  status: ('A' for Active; 'I' for Inactive)
REMARK    1  A    between atoms: C_1  and  C_8 
REMARK    2  A    between atoms: C_5  and  C_6 
REMARK    3  A    between atoms: C_5  and  C_8 
REMARK    4  A    between atoms: C_5  and  N_25 
REMARK       I    between atoms: C_6  and  N_21 
REMARK    5  A    between atoms: C_11  and  C_12 
REMARK    6  A    between atoms: C_12  and  C_13 
REMARK    7  A    between atoms: C_12  and  N_21 
REMARK    8  A    between atoms: C_13  and  C_17 
ROOT
HETATM    1  C           1     -21.892  -6.338  -5.958  0.00  0.00     0.261 C 
ENDROOT
BRANCH   1   2
HETATM    2  C           1     -20.977  -7.251  -5.180  0.00  0.00     0.130 C 
HETATM    3  N           1     -21.385  -7.767  -3.980  0.00  0.00    -0.359 N 
HETATM    4  H           1     -22.300  -7.537  -3.614  0.00  0.00     0.162 HD
HETATM    5  O           1     -19.885  -7.526  -5.617  0.00  0.00    -0.397 OA
BRANCH   3   6
HETATM    6  C           1     -20.506  -8.645  -3.233  0.00  0.00     0.184 C 
BRANCH   6   7
HETATM    7  C           1     -21.090 -10.037  -3.205  0.00  0.00     0.196 C 
HETATM    8  O           1     -20.496 -10.953  -2.597  0.00  0.00    -0.646 OA
HETATM    9  O           1     -22.170 -10.273  -3.789  0.00  0.00    -0.646 OA
ENDBRANCH   6   7
BRANCH   6  10
HETATM   10  C           1     -20.361  -8.128  -1.808  0.00  0.00     0.040 C 
BRANCH  10  11
HETATM   11  C           1     -21.728  -8.100  -1.136  0.00  0.00    -0.018 C 
HETATM   12  C           1     -22.240  -6.666  -1.086  0.00  0.00     0.289 C 
HETATM   13  C           1     -21.607  -8.645   0.281  0.00  0.00     0.009 C 
ENDBRANCH  10  11
ENDBRANCH   6  10
ENDBRANCH   3   6
ENDBRANCH   1   2
BRANCH   1  14
HETATM   14  C           1     -21.147  -5.059  -6.319  0.00  0.00     0.099 C 
BRANCH  14  15
HETATM   15  C           1     -21.630  -4.556  -7.643  0.00  0.00     0.028 A 
HETATM   16  C           1     -20.889  -4.566  -8.801  0.00  0.00     0.114 A 
HETATM   17  N           1     -21.709  -4.022  -9.751  0.00  0.00    -0.360 N 
HETATM   18  C           1     -22.892  -3.712  -9.143  0.00  0.00     0.180 A 
HETATM   19  H           1     -21.472  -3.872 -10.763  0.00  0.00     0.166 HD
HETATM   20  N           1     -22.874  -4.023  -7.868  0.00  0.00    -0.355 N 
ATOM     21  HN          1     -23.624  -3.896  -7.190  1.00  0.00     0.166 HD
ENDBRANCH  14  15
ENDBRANCH   1  14
BRANCH   1  22
HETATM   22  N           1     -23.089  -5.998  -5.120  0.00  0.00    -0.067 N 
HETATM   23  H           1     -23.173  -6.686  -4.338  0.00  0.00     0.275 HD
HETATM   24  H           1     -23.951  -6.036  -5.710  0.00  0.00     0.275 HD
HETATM   25  H           1     -22.978  -5.036  -4.728  0.00  0.00     0.275 HD
ENDBRANCH   1  22
TORSDOF 8
ENDMDL
MODEL 7
REMARK VINA RESULT:      -5.6     16.173     17.995
REMARK  8 active torsions:
REMARK  status: ('A' for Active; 'I' for Inactive)
REMARK    1  A    between atoms: C_1  and  C_8 
REMARK    2  A    between atoms: C_5  and  C_6 
REMARK    3  A    between atoms: C_5  and  C_8 
REMARK    4  A    between atoms: C_5  and  N_25 
REMARK       I    between atoms: C_6  and  N_21 
REMARK    5  A    between atoms: C_11  and  C_12 
REMARK    6  A    between atoms: C_12  and  C_13 
REMARK    7  A    between atoms: C_12  and  N_21 
REMARK    8  A    between atoms: C_13  and  C_17 
ROOT
HETATM    1  C           1     -20.327  -8.705  -5.167  0.00  0.00     0.261 C 
ENDROOT
BRANCH   1   2
HETATM    2  C           1     -19.906  -8.967  -3.741  0.00  0.00     0.130 C 
HETATM    3  N           1     -20.853  -9.117  -2.765  0.00  0.00    -0.359 N 
HETATM    4  H           1     -21.836  -9.054  -2.998  0.00  0.00     0.162 HD
HETATM    5  O           1     -18.733  -9.042  -3.463  0.00  0.00    -0.397 OA
BRANCH   3   6
HETATM    6  C           1     -20.448  -9.369  -1.396  0.00  0.00     0.184 C 
BRANCH   6   7
HETATM    7  C           1     -21.136 -10.613  -0.889  0.00  0.00     0.196 C 
HETATM    8  O           1     -21.171 -10.852   0.338  0.00  0.00    -0.646 OA
HETATM    9  O           1     -21.672 -11.404  -1.695  0.00  0.00    -0.646 OA
ENDBRANCH   6   7
BRANCH   6  10
HETATM   10  C           1     -20.838  -8.183  -0.524  0.00  0.00     0.040 C 
BRANCH  10  11
HETATM   11  C           1     -22.284  -7.796  -0.809  0.00  0.00    -0.018 C 
HETATM   12  C           1     -22.325  -6.400  -1.416  0.00  0.00     0.289 C 
HETATM   13  C           1     -23.077  -7.808   0.492  0.00  0.00     0.009 C 
ENDBRANCH  10  11
ENDBRANCH   6  10
ENDBRANCH   3   6
ENDBRANCH   1   2
BRANCH   1  14
HETATM   14  C           1     -21.426  -7.651  -5.187  0.00  0.00     0.099 C 
BRANCH  14  15
HETATM   15  C           1     -20.934  -6.429  -5.896  0.00  0.00     0.028 A 
HETATM   16  C           1     -20.528  -5.273  -5.272  0.00  0.00     0.114 A 
HETATM   17  N           1     -20.165  -4.432  -6.286  0.00  0.00    -0.360 N 
HETATM   18  C           1     -20.360  -5.098  -7.462  0.00  0.00     0.180 A 
HETATM   19  H           1     -19.800  -3.452  -6.180  0.00  0.00     0.166 HD
HETATM   20  N           1     -20.825  -6.308  -7.258  0.00  0.00    -0.355 N 
ATOM     21  HN          1     -21.056  -7.009  -7.961  1.00  0.00     0.166 HD
ENDBRANCH  14  15
ENDBRANCH   1  14
BRANCH   1  22
HETATM   22  N           1     -20.843  -9.976  -5.776  0.00  0.00    -0.067 N 
HETATM   23  H           1     -21.887  -9.985  -5.733  0.00  0.00     0.275 HD
HETATM   24  H           1     -20.467 -10.795  -5.246  0.00  0.00     0.275 HD
HETATM   25  H           1     -20.535 -10.035  -6.772  0.00  0.00     0.275 HD
ENDBRANCH   1  22
TORSDOF 8
ENDMDL
MODEL 8
REMARK VINA RESULT:      -5.5     24.328     26.579
REMARK  8 active torsions:
REMARK  status: ('A' for Active; 'I' for Inactive)
REMARK    1  A    between atoms: C_1  and  C_8 
REMARK    2  A    between atoms: C_5  and  C_6 
REMARK    3  A    between atoms: C_5  and  C_8 
REMARK    4  A    between atoms: C_5  and  N_25 
REMARK       I    between atoms: C_6  and  N_21 
REMARK    5  A    between atoms: C_11  and  C_12 
REMARK    6  A    between atoms: C_12  and  C_13 
REMARK    7  A    between atoms: C_12  and  N_21 
REMARK    8  A    between atoms: C_13  and  C_17 
ROOT
HETATM    1  C           1     -11.282   8.562 -19.787  0.00  0.00     0.261 C 
ENDROOT
BRANCH   1   2
HETATM    2  C           1     -11.793   7.350 -20.528  0.00  0.00     0.130 C 
HETATM    3  N           1     -12.704   6.519 -19.933  0.00  0.00    -0.359 N 
HETATM    4  H           1     -13.036   6.717 -18.998  0.00  0.00     0.162 HD
HETATM    5  O           1     -11.397   7.114 -21.644  0.00  0.00    -0.397 OA
BRANCH   3   6
HETATM    6  C           1     -13.194   5.355 -20.645  0.00  0.00     0.184 C 
BRANCH   6   7
HETATM    7  C           1     -14.700   5.304 -20.547  0.00  0.00     0.196 C 
HETATM    8  O           1     -15.252   5.267 -19.426  0.00  0.00    -0.646 OA
HETATM    9  O           1     -15.394   5.298 -21.586  0.00  0.00    -0.646 OA
ENDBRANCH   6   7
BRANCH   6  10
HETATM   10  C           1     -12.603   4.095 -20.028  0.00  0.00     0.040 C 
BRANCH  10  11
HETATM   11  C           1     -12.242   3.109 -21.132  0.00  0.00    -0.018 C 
HETATM   12  C           1     -10.972   2.361 -20.747  0.00  0.00     0.289 C 
HETATM   13  C           1     -12.011   3.867 -22.432  0.00  0.00     0.009 C 
ENDBRANCH  10  11
ENDBRANCH   6  10
ENDBRANCH   3   6
ENDBRANCH   1   2
BRANCH   1  14
HETATM   14  C           1     -11.917   9.818 -20.369  0.00  0.00     0.099 C 
BRANCH  14  15
HETATM   15  C           1     -13.039  10.266 -19.486  0.00  0.00     0.028 A 
HETATM   16  C           1     -13.892  11.305 -19.771  0.00  0.00     0.114 A 
HETATM   17  N           1     -14.749  11.364 -18.707  0.00  0.00    -0.360 N 
HETATM   18  C           1     -14.388  10.375 -17.836  0.00  0.00     0.180 A 
HETATM   19  H           1     -15.540  12.043 -18.583  0.00  0.00     0.166 HD
HETATM   20  N           1     -13.357   9.695 -18.279  0.00  0.00    -0.355 N 
ATOM     21  HN          1     -12.892   8.910 -17.824  1.00  0.00     0.166 HD
ENDBRANCH  14  15
ENDBRANCH   1  14
BRANCH   1  22
HETATM   22  N           1      -9.791   8.644 -19.932  0.00  0.00    -0.067 N 
HETATM   23  H           1      -9.552   9.301 -20.708  0.00  0.00     0.275 HD
HETATM   24  H           1      -9.408   7.695 -20.148  0.00  0.00     0.275 HD
HETATM   25  H           1      -9.374   8.991 -19.039  0.00  0.00     0.275 HD
ENDBRANCH   1  22
TORSDOF 8
ENDMDL
MODEL 9
REMARK VINA RESULT:      -5.4     15.009     17.917
REMARK  8 active torsions:
REMARK  status: ('A' for Active; 'I' for Inactive)
REMARK    1  A    between atoms: C_1  and  C_8 
REMARK    2  A    between atoms: C_5  and  C_6 
REMARK    3  A    between atoms: C_5  and  C_8 
REMARK    4  A    between atoms: C_5  and  N_25 
REMARK       I    between atoms: C_6  and  N_21 
REMARK    5  A    between atoms: C_11  and  C_12 
REMARK    6  A    between atoms: C_12  and  C_13 
REMARK    7  A    between atoms: C_12  and  N_21 
REMARK    8  A    between atoms: C_13  and  C_17 
ROOT
HETATM    1  C           1     -21.772  -6.447  -4.967  0.00  0.00     0.261 C 
ENDROOT
BRANCH   1   2
HETATM    2  C           1     -21.004  -7.746  -4.936  0.00  0.00     0.130 C 
HETATM    3  N           1     -20.509  -8.219  -3.751  0.00  0.00    -0.359 N 
HETATM    4  H           1     -20.659  -7.700  -2.896  0.00  0.00     0.162 HD
HETATM    5  O           1     -20.826  -8.366  -5.957  0.00  0.00    -0.397 OA
BRANCH   3   6
HETATM    6  C           1     -19.771  -9.467  -3.722  0.00  0.00     0.184 C 
BRANCH   6   7
HETATM    7  C           1     -20.650 -10.557  -3.158  0.00  0.00     0.196 C 
HETATM    8  O           1     -20.489 -10.943  -1.979  0.00  0.00    -0.646 OA
HETATM    9  O           1     -21.539 -11.073  -3.868  0.00  0.00    -0.646 OA
ENDBRANCH   6   7
BRANCH   6  10
HETATM   10  C           1     -18.537  -9.307  -2.845  0.00  0.00     0.040 C 
BRANCH  10  11
HETATM   11  C           1     -17.366 -10.053  -3.473  0.00  0.00    -0.018 C 
HETATM   12  C           1     -16.059  -9.505  -2.918  0.00  0.00     0.289 C 
HETATM   13  C           1     -17.396  -9.863  -4.983  0.00  0.00     0.009 C 
ENDBRANCH  10  11
ENDBRANCH   6  10
ENDBRANCH   3   6
ENDBRANCH   1   2
BRANCH   1  14
HETATM   14  C           1     -20.877  -5.339  -5.504  0.00  0.00     0.099 C 
BRANCH  14  15
HETATM   15  C           1     -21.355  -4.922  -6.859  0.00  0.00     0.028 A 
HETATM   16  C           1     -20.715  -5.217  -8.039  0.00  0.00     0.114 A 
HETATM   17  N           1     -21.488  -4.649  -9.014  0.00  0.00    -0.360 N 
HETATM   18  C           1     -22.546  -4.045  -8.397  0.00  0.00     0.180 A 
HETATM   19  H           1     -21.303  -4.675 -10.047  0.00  0.00     0.166 HD
HETATM   20  N           1     -22.493  -4.193  -7.094  0.00  0.00    -0.355 N 
ATOM     21  HN          1     -23.155  -3.841  -6.404  1.00  0.00     0.166 HD
ENDBRANCH  14  15
ENDBRANCH   1  14
BRANCH   1  22
HETATM   22  N           1     -22.220  -6.099  -3.578  0.00  0.00    -0.067 N 
HETATM   23  H           1     -21.388  -6.037  -2.949  0.00  0.00     0.275 HD
HETATM   24  H           1     -22.869  -6.838  -3.224  0.00  0.00     0.275 HD
HETATM   25  H           1     -22.716  -5.179  -3.592  0.00  0.00     0.275 HD
ENDBRANCH   1  22
TORSDOF 8
ENDMDL
