MODEL 1
REMARK VINA RESULT:      -6.1      0.000      0.000
REMARK  8 active torsions:
REMARK  status: ('A' for Active; 'I' for Inactive)
REMARK    1  A    between atoms: C_1  and  C_2 
REMARK    2  A    between atoms: C_1  and  C_20 
REMARK    3  A    between atoms: C_1  and  N_17 
REMARK    4  A    between atoms: C_2  and  Se_3 
REMARK       I    between atoms: N_17  and  C_21 
REMARK    5  A    between atoms: C_18  and  C_23 
REMARK    6  A    between atoms: C_18  and  C_19 
REMARK    7  A    between atoms: C_21  and  C_23 
REMARK    8  A    between atoms: N_22  and  C_23 
ROOT
HETATM    1  C           1     -25.574  -7.720 -20.230  0.00  0.00     0.280 C 
ENDROOT
BRANCH   1   2
HETATM    2  C           1     -24.753  -7.017 -21.303  0.00  0.00     0.101 C 
BRANCH   2   3
HETATM    3  C           1     -23.555  -7.849 -21.641  0.00  0.00     0.028 A 
HETATM    4  N           1     -22.604  -8.247 -20.738  0.00  0.00    -0.355 N 
HETATM    5  C           1     -21.738  -8.949 -21.433  0.00  0.00     0.180 A 
ATOM      6  HN          1     -22.574  -8.042 -19.739  1.00  0.00     0.166 HD
HETATM    7  N           1     -22.093  -9.019 -22.750  0.00  0.00    -0.360 N 
HETATM    8  H           1     -21.569  -9.520 -23.509  0.00  0.00     0.166 HD
HETATM    9  C           1     -23.258  -8.317 -22.898  0.00  0.00     0.114 A 
ENDBRANCH   2   3
ENDBRANCH   1   2
BRANCH   1  10
HETATM   10  C           1     -25.473  -6.950 -18.935  0.00  0.00     0.249 C 
HETATM   11  O           1     -24.396  -6.578 -18.536  0.00  0.00    -0.271 OA
HETATM   12  N           1     -26.603  -6.675 -18.212  0.00  0.00    -0.345 N 
HETATM   13  H           1     -27.506  -6.988 -18.547  0.00  0.00     0.163 HD
BRANCH  12  14
HETATM   14  C           1     -26.506  -5.936 -16.969  0.00  0.00     0.185 C 
BRANCH  14  15
HETATM   15  C           1     -27.751  -5.078 -16.790  0.00  0.00     0.039 C 
BRANCH  15  16
HETATM   16 Se           1     -28.846  -5.178 -18.400  0.00  0.00     0.000 Se
HETATM   17  H           1     -29.751  -6.206 -17.860  0.00  0.00     0.000 HD
ENDBRANCH  15  16
ENDBRANCH  14  15
BRANCH  14  18
HETATM   18  C           1     -26.394  -6.904 -15.817  0.00  0.00     0.196 C 
HETATM   19  O           1     -25.270  -7.196 -15.353  0.00  0.00    -0.646 OA
HETATM   20  O           1     -27.424  -7.415 -15.327  0.00  0.00    -0.646 OA
ENDBRANCH  14  18
ENDBRANCH  12  14
ENDBRANCH   1  10
BRANCH   1  21
HETATM   21  N           1     -27.009  -7.785 -20.661  0.00  0.00    -0.066 N 
HETATM   22  H           1     -27.286  -6.872 -21.088  0.00  0.00     0.275 HD
HETATM   23  H           1     -27.613  -7.980 -19.831  0.00  0.00     0.275 HD
HETATM   24  H           1     -27.127  -8.548 -21.365  0.00  0.00     0.275 HD
ENDBRANCH   1  21
TORSDOF 8
ENDMDL
MODEL 2
REMARK VINA RESULT:      -5.8      3.602      7.195
REMARK  8 active torsions:
REMARK  status: ('A' for Active; 'I' for Inactive)
REMARK    1  A    between atoms: C_1  and  C_2 
REMARK    2  A    between atoms: C_1  and  C_20 
REMARK    3  A    between atoms: C_1  and  N_17 
REMARK    4  A    between atoms: C_2  and  Se_3 
REMARK       I    between atoms: N_17  and  C_21 
REMARK    5  A    between atoms: C_18  and  C_23 
REMARK    6  A    between atoms: C_18  and  C_19 
REMARK    7  A    between atoms: C_21  and  C_23 
REMARK    8  A    between atoms: N_22  and  C_23 
ROOT
HETATM    1  C           1     -28.646  -6.366 -17.352  0.00  0.00     0.280 C 
ENDROOT
BRANCH   1   2
HETATM    2  C           1     -28.837  -5.011 -16.683  0.00  0.00     0.101 C 
BRANCH   2   3
HETATM    3  C           1     -30.250  -4.554 -16.875  0.00  0.00     0.028 A 
HETATM    4  N           1     -31.355  -5.227 -16.425  0.00  0.00    -0.355 N 
HETATM    5  C           1     -32.381  -4.498 -16.797  0.00  0.00     0.180 A 
ATOM      6  HN          1     -31.375  -6.108 -15.910  1.00  0.00     0.166 HD
HETATM    7  N           1     -31.982  -3.379 -17.471  0.00  0.00    -0.360 N 
HETATM    8  H           1     -32.608  -2.638 -17.870  0.00  0.00     0.166 HD
HETATM    9  C           1     -30.615  -3.402 -17.529  0.00  0.00     0.114 A 
ENDBRANCH   2   3
ENDBRANCH   1   2
BRANCH   1  10
HETATM   10  C           1     -28.051  -6.170 -18.725  0.00  0.00     0.249 C 
HETATM   11  O           1     -28.433  -5.263 -19.425  0.00  0.00    -0.271 OA
HETATM   12  N           1     -27.079  -7.021 -19.179  0.00  0.00    -0.345 N 
HETATM   13  H           1     -26.759  -7.781 -18.592  0.00  0.00     0.163 HD
BRANCH  12  14
HETATM   14  C           1     -26.507  -6.832 -20.498  0.00  0.00     0.185 C 
BRANCH  14  15
HETATM   15  C           1     -25.073  -6.340 -20.364  0.00  0.00     0.039 C 
BRANCH  15  16
HETATM   16 Se           1     -24.290  -7.054 -18.727  0.00  0.00     0.000 Se
HETATM   17  H           1     -25.004  -6.119 -17.841  0.00  0.00     0.000 HD
ENDBRANCH  15  16
ENDBRANCH  14  15
BRANCH  14  18
HETATM   18  C           1     -26.521  -8.144 -21.243  0.00  0.00     0.196 C 
HETATM   19  O           1     -25.468  -8.585 -21.752  0.00  0.00    -0.646 OA
HETATM   20  O           1     -27.586  -8.791 -21.351  0.00  0.00    -0.646 OA
ENDBRANCH  14  18
ENDBRANCH  12  14
ENDBRANCH   1  10
BRANCH   1  21
HETATM   21  N           1     -27.720  -7.207 -16.523  0.00  0.00    -0.066 N 
HETATM   22  H           1     -28.230  -8.055 -16.186  0.00  0.00     0.275 HD
HETATM   23  H           1     -27.386  -6.651 -15.704  0.00  0.00     0.275 HD
HETATM   24  H           1     -26.902  -7.499 -17.103  0.00  0.00     0.275 HD
ENDBRANCH   1  21
TORSDOF 8
ENDMDL
MODEL 3
REMARK VINA RESULT:      -5.7     11.019     13.656
REMARK  8 active torsions:
REMARK  status: ('A' for Active; 'I' for Inactive)
REMARK    1  A    between atoms: C_1  and  C_2 
REMARK    2  A    between atoms: C_1  and  C_20 
REMARK    3  A    between atoms: C_1  and  N_17 
REMARK    4  A    between atoms: C_2  and  Se_3 
REMARK       I    between atoms: N_17  and  C_21 
REMARK    5  A    between atoms: C_18  and  C_23 
REMARK    6  A    between atoms: C_18  and  C_19 
REMARK    7  A    between atoms: C_21  and  C_23 
REMARK    8  A    between atoms: N_22  and  C_23 
ROOT
HETATM    1  C           1     -21.175  -5.605  -6.918  0.00  0.00     0.280 C 
ENDROOT
BRANCH   1   2
HETATM    2  C           1     -20.733  -5.110  -5.547  0.00  0.00     0.101 C 
BRANCH   2   3
HETATM    3  C           1     -21.112  -6.117  -4.506  0.00  0.00     0.028 A 
HETATM    4  N           1     -21.500  -5.809  -3.229  0.00  0.00    -0.355 N 
HETATM    5  C           1     -21.740  -6.963  -2.650  0.00  0.00     0.180 A 
ATOM      6  HN          1     -21.585  -4.880  -2.815  1.00  0.00     0.166 HD
HETATM    7  N           1     -21.520  -8.005  -3.505  0.00  0.00    -0.360 N 
HETATM    8  H           1     -21.640  -9.025  -3.285  0.00  0.00     0.166 HD
HETATM    9  C           1     -21.117  -7.477  -4.701  0.00  0.00     0.114 A 
ENDBRANCH   2   3
ENDBRANCH   1   2
BRANCH   1  10
HETATM   10  C           1     -21.768  -4.458  -7.700  0.00  0.00     0.249 C 
HETATM   11  O           1     -21.764  -3.344  -7.234  0.00  0.00    -0.271 OA
HETATM   12  N           1     -22.311  -4.681  -8.937  0.00  0.00    -0.345 N 
HETATM   13  H           1     -22.313  -5.615  -9.327  0.00  0.00     0.163 HD
BRANCH  12  14
HETATM   14  C           1     -22.880  -3.579  -9.689  0.00  0.00     0.185 C 
BRANCH  14  15
HETATM   15  C           1     -22.044  -3.332 -10.938  0.00  0.00     0.039 C 
BRANCH  15  16
HETATM   16 Se           1     -20.377  -4.335 -10.814  0.00  0.00     0.000 Se
HETATM   17  H           1     -20.922  -5.543 -11.455  0.00  0.00     0.000 HD
ENDBRANCH  15  16
ENDBRANCH  14  15
BRANCH  14  18
HETATM   18  C           1     -24.293  -3.922 -10.089  0.00  0.00     0.196 C 
HETATM   19  O           1     -24.979  -3.097 -10.730  0.00  0.00    -0.646 OA
HETATM   20  O           1     -24.779  -5.031  -9.779  0.00  0.00    -0.646 OA
ENDBRANCH  14  18
ENDBRANCH  12  14
ENDBRANCH   1  10
BRANCH   1  21
HETATM   21  N           1     -19.991  -6.154  -7.657  0.00  0.00    -0.066 N 
HETATM   22  H           1     -20.278  -6.416  -8.628  0.00  0.00     0.275 HD
HETATM   23  H           1     -19.632  -6.999  -7.159  0.00  0.00     0.275 HD
HETATM   24  H           1     -19.240  -5.429  -7.699  0.00  0.00     0.275 HD
ENDBRANCH   1  21
TORSDOF 8
ENDMDL
MODEL 4
REMARK VINA RESULT:      -5.6      1.720      2.114
REMARK  8 active torsions:
REMARK  status: ('A' for Active; 'I' for Inactive)
REMARK    1  A    between atoms: C_1  and  C_2 
REMARK    2  A    between atoms: C_1  and  C_20 
REMARK    3  A    between atoms: C_1  and  N_17 
REMARK    4  A    between atoms: C_2  and  Se_3 
REMARK       I    between atoms: N_17  and  C_21 
REMARK    5  A    between atoms: C_18  and  C_23 
REMARK    6  A    between atoms: C_18  and  C_19 
REMARK    7  A    between atoms: C_21  and  C_23 
REMARK    8  A    between atoms: N_22  and  C_23 
ROOT
HETATM    1  C           1     -26.210  -7.868 -20.679  0.00  0.00     0.280 C 
ENDROOT
BRANCH   1   2
HETATM    2  C           1     -25.327  -7.485 -21.860  0.00  0.00     0.101 C 
BRANCH   2   3
HETATM    3  C           1     -23.959  -8.059 -21.669  0.00  0.00     0.028 A 
HETATM    4  N           1     -23.208  -8.631 -22.663  0.00  0.00    -0.355 N 
HETATM    5  C           1     -22.090  -9.002 -22.083  0.00  0.00     0.180 A 
ATOM      6  HN          1     -23.463  -8.744 -23.644  1.00  0.00     0.166 HD
HETATM    7  N           1     -22.090  -8.693 -20.753  0.00  0.00    -0.360 N 
HETATM    8  H           1     -21.315  -8.884 -20.070  0.00  0.00     0.166 HD
HETATM    9  C           1     -23.284  -8.087 -20.473  0.00  0.00     0.114 A 
ENDBRANCH   2   3
ENDBRANCH   1   2
BRANCH   1  10
HETATM   10  C           1     -26.824  -6.624 -20.085  0.00  0.00     0.249 C 
HETATM   11  O           1     -26.815  -5.589 -20.708  0.00  0.00    -0.271 OA
HETATM   12  N           1     -27.389  -6.667 -18.839  0.00  0.00    -0.345 N 
HETATM   13  H           1     -27.396  -7.535 -18.317  0.00  0.00     0.163 HD
BRANCH  12  14
HETATM   14  C           1     -27.979  -5.473 -18.268  0.00  0.00     0.185 C 
BRANCH  14  15
HETATM   15  C           1     -29.490  -5.644 -18.181  0.00  0.00     0.039 C 
BRANCH  15  16
HETATM   16 Se           1     -29.921  -7.539 -18.028  0.00  0.00     0.000 Se
HETATM   17  H           1     -31.180  -7.312 -17.299  0.00  0.00     0.000 HD
ENDBRANCH  15  16
ENDBRANCH  14  15
BRANCH  14  18
HETATM   18  C           1     -27.418  -5.247 -16.885  0.00  0.00     0.196 C 
HETATM   19  O           1     -28.134  -4.740 -15.995  0.00  0.00    -0.646 OA
HETATM   20  O           1     -26.237  -5.569 -16.630  0.00  0.00    -0.646 OA
ENDBRANCH  14  18
ENDBRANCH  12  14
ENDBRANCH   1  10
BRANCH   1  21
HETATM   21  N           1     -27.299  -8.788 -21.147  0.00  0.00    -0.066 N 
HETATM   22  H           1     -28.201  -8.262 -21.193  0.00  0.00     0.275 HD
HETATM   23  H           1     -27.392  -9.584 -20.477  0.00  0.00     0.275 HD
HETATM   24  H           1     -27.061  -9.156 -22.095  0.00  0.00     0.275 HD
ENDBRANCH   1  21
TORSDOF 8
ENDMDL
MODEL 5
REMARK VINA RESULT:      -5.4     11.902     14.224
REMARK  8 active torsions:
REMARK  status: ('A' for Active; 'I' for Inactive)
REMARK    1  A    between atoms: C_1  and  C_2 
REMARK    2  A    between atoms: C_1  and  C_20 
REMARK    3  A    between atoms: C_1  and  N_17 
REMARK    4  A    between atoms: C_2  and  Se_3 
REMARK       I    between atoms: N_17  and  C_21 
REMARK    5  A    between atoms: C_18  and  C_23 
REMARK    6  A    between atoms: C_18  and  C_19 
REMARK    7  A    between atoms: C_21  and  C_23 
REMARK    8  A    between atoms: N_22  and  C_23 
ROOT
HETATM    1  C           1     -21.309  -4.720  -6.693  0.00  0.00     0.280 C 
ENDROOT
BRANCH   1   2
HETATM    2  C           1     -21.452  -5.253  -8.113  0.00  0.00     0.101 C 
BRANCH   2   3
HETATM    3  C           1     -22.518  -4.486  -8.830  0.00  0.00     0.028 A 
HETATM    4  N           1     -23.694  -4.070  -8.262  0.00  0.00    -0.355 N 
HETATM    5  C           1     -24.338  -3.442  -9.219  0.00  0.00     0.180 A 
ATOM      6  HN          1     -24.002  -4.216  -7.301  1.00  0.00     0.166 HD
HETATM    7  N           1     -23.624  -3.437 -10.383  0.00  0.00    -0.360 N 
HETATM    8  H           1     -23.919  -3.001 -11.291  0.00  0.00     0.166 HD
HETATM    9  C           1     -22.452  -4.105 -10.148  0.00  0.00     0.114 A 
ENDBRANCH   2   3
ENDBRANCH   1   2
BRANCH   1  10
HETATM   10  C           1     -21.884  -5.720  -5.719  0.00  0.00     0.249 C 
HETATM   11  O           1     -23.081  -5.826  -5.599  0.00  0.00    -0.271 OA
HETATM   12  N           1     -21.049  -6.506  -4.972  0.00  0.00    -0.345 N 
HETATM   13  H           1     -20.045  -6.417  -5.073  0.00  0.00     0.163 HD
BRANCH  12  14
HETATM   14  C           1     -21.601  -7.466  -4.036  0.00  0.00     0.185 C 
BRANCH  14  15
HETATM   15  C           1     -20.792  -8.755  -4.096  0.00  0.00     0.039 C 
BRANCH  15  16
HETATM   16 Se           1     -21.950 -10.269  -3.682  0.00  0.00     0.000 Se
HETATM   17  H           1     -20.914 -11.281  -3.947  0.00  0.00     0.000 HD
ENDBRANCH  15  16
ENDBRANCH  14  15
BRANCH  14  18
HETATM   18  C           1     -21.541  -6.899  -2.640  0.00  0.00     0.196 C 
HETATM   19  O           1     -20.717  -7.352  -1.816  0.00  0.00    -0.646 OA
HETATM   20  O           1     -22.314  -5.975  -2.307  0.00  0.00    -0.646 OA
ENDBRANCH  14  18
ENDBRANCH  12  14
ENDBRANCH   1  10
BRANCH   1  21
HETATM   21  N           1     -19.857  -4.501  -6.385  0.00  0.00    -0.066 N 
HETATM   22  H           1     -19.585  -3.531  -6.664  0.00  0.00     0.275 HD
HETATM   23  H           1     -19.281  -5.193  -6.916  0.00  0.00     0.275 HD
HETATM   24  H           1     -19.696  -4.628  -5.360  0.00  0.00     0.275 HD
ENDBRANCH   1  21
TORSDOF 8
ENDMDL
MODEL 6
REMARK VINA RESULT:      -5.1     11.491     13.592
REMARK  8 active torsions:
REMARK  status: ('A' for Active; 'I' for Inactive)
REMARK    1  A    between atoms: C_1  and  C_2 
REMARK    2  A    between atoms: C_1  and  C_20 
REMARK    3  A    between atoms: C_1  and  N_17 
REMARK    4  A    between atoms: C_2  and  Se_3 
REMARK       I    between atoms: N_17  and  C_21 
REMARK    5  A    between atoms: C_18  and  C_23 
REMARK    6  A    between atoms: C_18  and  C_19 
REMARK    7  A    between atoms: C_21  and  C_23 
REMARK    8  A    between atoms: N_22  and  C_23 
ROOT
HETATM    1  C           1     -22.207  -4.991  -7.196  0.00  0.00     0.280 C 
ENDROOT
BRANCH   1   2
HETATM    2  C           1     -21.506  -3.843  -7.911  0.00  0.00     0.101 C 
BRANCH   2   3
HETATM    3  C           1     -21.590  -4.050  -9.391  0.00  0.00     0.028 A 
HETATM    4  N           1     -20.570  -3.800 -10.271  0.00  0.00    -0.355 N 
HETATM    5  C           1     -21.049  -4.108 -11.454  0.00  0.00     0.180 A 
ATOM      6  HN          1     -19.637  -3.449 -10.054  1.00  0.00     0.166 HD
HETATM    7  N           1     -22.340  -4.547 -11.371  0.00  0.00    -0.360 N 
HETATM    8  H           1     -22.945  -4.854 -12.173  0.00  0.00     0.166 HD
HETATM    9  C           1     -22.701  -4.515 -10.052  0.00  0.00     0.114 A 
ENDBRANCH   2   3
ENDBRANCH   1   2
BRANCH   1  10
HETATM   10  C           1     -21.372  -5.435  -6.019  0.00  0.00     0.249 C 
HETATM   11  O           1     -20.589  -4.669  -5.511  0.00  0.00    -0.271 OA
HETATM   12  N           1     -21.502  -6.707  -5.528  0.00  0.00    -0.345 N 
HETATM   13  H           1     -22.159  -7.349  -5.955  0.00  0.00     0.163 HD
BRANCH  12  14
HETATM   14  C           1     -20.701  -7.134  -4.398  0.00  0.00     0.185 C 
BRANCH  14  15
HETATM   15  C           1     -21.612  -7.687  -3.310  0.00  0.00     0.039 C 
BRANCH  15  16
HETATM   16 Se           1     -22.060  -6.266  -2.053  0.00  0.00     0.000 Se
HETATM   17  H           1     -21.647  -7.030  -0.864  0.00  0.00     0.000 HD
ENDBRANCH  15  16
ENDBRANCH  14  15
BRANCH  14  18
HETATM   18  C           1     -19.739  -8.207  -4.842  0.00  0.00     0.196 C 
HETATM   19  O           1     -19.392  -8.279  -6.040  0.00  0.00    -0.646 OA
HETATM   20  O           1     -19.288  -9.025  -4.010  0.00  0.00    -0.646 OA
ENDBRANCH  14  18
ENDBRANCH  12  14
ENDBRANCH   1  10
BRANCH   1  21
HETATM   21  N           1     -23.550  -4.533  -6.711  0.00  0.00    -0.066 N 
HETATM   22  H           1     -23.981  -5.282  -6.122  0.00  0.00     0.275 HD
HETATM   23  H           1     -24.167  -4.334  -7.531  0.00  0.00     0.275 HD
HETATM   24  H           1     -23.437  -3.664  -6.141  0.00  0.00     0.275 HD
ENDBRANCH   1  21
TORSDOF 8
ENDMDL
MODEL 7
REMARK VINA RESULT:      -5.0     10.587     13.133
REMARK  8 active torsions:
REMARK  status: ('A' for Active; 'I' for Inactive)
REMARK    1  A    between atoms: C_1  and  C_2 
REMARK    2  A    between atoms: C_1  and  C_20 
REMARK    3  A    between atoms: C_1  and  N_17 
REMARK    4  A    between atoms: C_2  and  Se_3 
REMARK       I    between atoms: N_17  and  C_21 
REMARK    5  A    between atoms: C_18  and  C_23 
REMARK    6  A    between atoms: C_18  and  C_19 
REMARK    7  A    between atoms: C_21  and  C_23 
REMARK    8  A    between atoms: N_22  and  C_23 
ROOT
HETATM    1  C           1     -21.060  -4.593  -6.828  0.00  0.00     0.280 C 
ENDROOT
BRANCH   1   2
HETATM    2  C           1     -22.004  -5.514  -6.066  0.00  0.00     0.101 C 
BRANCH   2   3
HETATM    3  C           1     -21.214  -6.597  -5.398  0.00  0.00     0.028 A 
HETATM    4  N           1     -20.217  -7.318  -6.000  0.00  0.00    -0.355 N 
HETATM    5  C           1     -19.790  -8.153  -5.081  0.00  0.00     0.180 A 
ATOM      6  HN          1     -19.879  -7.227  -6.958  1.00  0.00     0.166 HD
HETATM    7  N           1     -20.474  -7.999  -3.908  0.00  0.00    -0.360 N 
HETATM    8  H           1     -20.322  -8.544  -3.024  0.00  0.00     0.166 HD
HETATM    9  C           1     -21.392  -7.002  -4.097  0.00  0.00     0.114 A 
ENDBRANCH   2   3
ENDBRANCH   1   2
BRANCH   1  10
HETATM   10  C           1     -21.109  -4.927  -8.299  0.00  0.00     0.249 C 
HETATM   11  O           1     -20.344  -5.741  -8.759  0.00  0.00    -0.271 OA
HETATM   12  N           1     -22.019  -4.307  -9.113  0.00  0.00    -0.345 N 
HETATM   13  H           1     -22.660  -3.625  -8.726  0.00  0.00     0.163 HD
BRANCH  12  14
HETATM   14  C           1     -22.066  -4.629 -10.526  0.00  0.00     0.185 C 
BRANCH  14  15
HETATM   15  C           1     -23.510  -4.594 -11.007  0.00  0.00     0.039 C 
BRANCH  15  16
HETATM   16 Se           1     -24.579  -3.524  -9.776  0.00  0.00     0.000 Se
HETATM   17  H           1     -23.967  -4.096  -8.565  0.00  0.00     0.000 HD
ENDBRANCH  15  16
ENDBRANCH  14  15
BRANCH  14  18
HETATM   18  C           1     -21.254  -3.618 -11.297  0.00  0.00     0.196 C 
HETATM   19  O           1     -20.042  -3.826 -11.518  0.00  0.00    -0.646 OA
HETATM   20  O           1     -21.795  -2.571 -11.717  0.00  0.00    -0.646 OA
ENDBRANCH  14  18
ENDBRANCH  12  14
ENDBRANCH   1  10
BRANCH   1  21
HETATM   21  N           1     -21.482  -3.167  -6.626  0.00  0.00    -0.066 N 
HETATM   22  H           1     -20.950  -2.758  -5.825  0.00  0.00     0.275 HD
HETATM   23  H           1     -22.506  -3.134  -6.420  0.00  0.00     0.275 HD
HETATM   24  H           1     -21.284  -2.619  -7.493  0.00  0.00     0.275 HD
ENDBRANCH   1  21
TORSDOF 8
ENDMDL
MODEL 8
REMARK VINA RESULT:      -5.0      3.634      7.369
REMARK  8 active torsions:
REMARK  status: ('A' for Active; 'I' for Inactive)
REMARK    1  A    between atoms: C_1  and  C_2 
REMARK    2  A    between atoms: C_1  and  C_20 
REMARK    3  A    between atoms: C_1  and  N_17 
REMARK    4  A    between atoms: C_2  and  Se_3 
REMARK       I    between atoms: N_17  and  C_21 
REMARK    5  A    between atoms: C_18  and  C_23 
REMARK    6  A    between atoms: C_18  and  C_19 
REMARK    7  A    between atoms: C_21  and  C_23 
REMARK    8  A    between atoms: N_22  and  C_23 
ROOT
HETATM    1  C           1     -29.134  -4.486 -16.783  0.00  0.00     0.280 C 
ENDROOT
BRANCH   1   2
HETATM    2  C           1     -30.185  -4.461 -17.885  0.00  0.00     0.101 C 
BRANCH   2   3
HETATM    3  C           1     -31.539  -4.251 -17.281  0.00  0.00     0.028 A 
HETATM    4  N           1     -32.028  -4.946 -16.207  0.00  0.00    -0.355 N 
HETATM    5  C           1     -33.232  -4.462 -16.000  0.00  0.00     0.180 A 
ATOM      6  HN          1     -31.558  -5.682 -15.679  1.00  0.00     0.166 HD
HETATM    7  N           1     -33.538  -3.482 -16.900  0.00  0.00    -0.360 N 
HETATM    8  H           1     -34.436  -2.940 -16.947  0.00  0.00     0.166 HD
HETATM    9  C           1     -32.460  -3.336 -17.730  0.00  0.00     0.114 A 
ENDBRANCH   2   3
ENDBRANCH   1   2
BRANCH   1  10
HETATM   10  C           1     -28.273  -5.716 -16.936  0.00  0.00     0.249 C 
HETATM   11  O           1     -28.752  -6.813 -16.777  0.00  0.00    -0.271 OA
HETATM   12  N           1     -26.947  -5.588 -17.254  0.00  0.00    -0.345 N 
HETATM   13  H           1     -26.546  -4.668 -17.387  0.00  0.00     0.163 HD
BRANCH  12  14
HETATM   14  C           1     -26.119  -6.770 -17.402  0.00  0.00     0.185 C 
BRANCH  14  15
HETATM   15  C           1     -25.333  -6.679 -18.702  0.00  0.00     0.039 C 
BRANCH  15  16
HETATM   16 Se           1     -26.566  -6.711 -20.212  0.00  0.00     0.000 Se
HETATM   17  H           1     -25.642  -6.025 -21.130  0.00  0.00     0.000 HD
ENDBRANCH  15  16
ENDBRANCH  14  15
BRANCH  14  18
HETATM   18  C           1     -25.162  -6.859 -16.240  0.00  0.00     0.196 C 
HETATM   19  O           1     -25.006  -5.879 -15.480  0.00  0.00    -0.646 OA
HETATM   20  O           1     -24.523  -7.915 -16.036  0.00  0.00    -0.646 OA
ENDBRANCH  14  18
ENDBRANCH  12  14
ENDBRANCH   1  10
BRANCH   1  21
HETATM   21  N           1     -28.276  -3.260 -16.882  0.00  0.00    -0.066 N 
HETATM   22  H           1     -28.848  -2.416 -16.652  0.00  0.00     0.275 HD
HETATM   23  H           1     -27.903  -3.175 -17.855  0.00  0.00     0.275 HD
HETATM   24  H           1     -27.480  -3.336 -16.210  0.00  0.00     0.275 HD
ENDBRANCH   1  21
TORSDOF 8
ENDMDL
MODEL 9
REMARK VINA RESULT:      -4.9     12.382     14.738
REMARK  8 active torsions:
REMARK  status: ('A' for Active; 'I' for Inactive)
REMARK    1  A    between atoms: C_1  and  C_2 
REMARK    2  A    between atoms: C_1  and  C_20 
REMARK    3  A    between atoms: C_1  and  N_17 
REMARK    4  A    between atoms: C_2  and  Se_3 
REMARK       I    between atoms: N_17  and  C_21 
REMARK    5  A    between atoms: C_18  and  C_23 
REMARK    6  A    between atoms: C_18  and  C_19 
REMARK    7  A    between atoms: C_21  and  C_23 
REMARK    8  A    between atoms: N_22  and  C_23 
ROOT
HETATM    1  C           1     -21.704  -6.269  -5.783  0.00  0.00     0.280 C 
ENDROOT
BRANCH   1   2
HETATM    2  C           1     -21.283  -4.884  -6.258  0.00  0.00     0.101 C 
BRANCH   2   3
HETATM    3  C           1     -22.056  -4.521  -7.488  0.00  0.00     0.028 A 
HETATM    4  N           1     -23.404  -4.281  -7.517  0.00  0.00    -0.355 N 
HETATM    5  C           1     -23.679  -4.001  -8.771  0.00  0.00     0.180 A 
ATOM      6  HN          1     -24.056  -4.313  -6.733  1.00  0.00     0.166 HD
HETATM    7  N           1     -22.560  -4.052  -9.551  0.00  0.00    -0.360 N 
HETATM    8  H           1     -22.513  -3.868 -10.584  0.00  0.00     0.166 HD
HETATM    9  C           1     -21.509  -4.385  -8.741  0.00  0.00     0.114 A 
ENDBRANCH   2   3
ENDBRANCH   1   2
BRANCH   1  10
HETATM   10  C           1     -20.489  -7.159  -5.687  0.00  0.00     0.249 C 
HETATM   11  O           1     -19.602  -7.060  -6.501  0.00  0.00    -0.271 OA
HETATM   12  N           1     -20.392  -8.080  -4.678  0.00  0.00    -0.345 N 
HETATM   13  H           1     -21.136  -8.162  -3.996  0.00  0.00     0.163 HD
BRANCH  12  14
HETATM   14  C           1     -19.225  -8.935  -4.586  0.00  0.00     0.185 C 
BRANCH  14  15
HETATM   15  C           1     -18.910  -9.208  -3.121  0.00  0.00     0.039 C 
BRANCH  15  16
HETATM   16 Se           1     -20.295  -8.417  -2.000  0.00  0.00     0.000 Se
HETATM   17  H           1     -19.564  -7.158  -1.785  0.00  0.00     0.000 HD
ENDBRANCH  15  16
ENDBRANCH  14  15
BRANCH  14  18
HETATM   18  C           1     -19.501 -10.239  -5.292  0.00  0.00     0.196 C 
HETATM   19  O           1     -20.316 -11.053  -4.806  0.00  0.00    -0.646 OA
HETATM   20  O           1     -18.915 -10.506  -6.364  0.00  0.00    -0.646 OA
ENDBRANCH  14  18
ENDBRANCH  12  14
ENDBRANCH   1  10
BRANCH   1  21
HETATM   21  N           1     -22.350  -6.160  -4.433  0.00  0.00    -0.066 N 
HETATM   22  H           1     -23.296  -5.726  -4.536  0.00  0.00     0.275 HD
HETATM   23  H           1     -21.758  -5.565  -3.811  0.00  0.00     0.275 HD
HETATM   24  H           1     -22.447  -7.112  -4.015  0.00  0.00     0.275 HD
ENDBRANCH   1  21
TORSDOF 8
ENDMDL
