MODEL 1
REMARK VINA RESULT:      -5.2      0.000      0.000
REMARK  5 active torsions:
REMARK  status: ('A' for Active; 'I' for Inactive)
REMARK    1  A    between atoms: C_3  and  C_4 
REMARK    2  A    between atoms: C_4  and  C_5 
REMARK    3  A    between atoms: C_4  and  N_19 
REMARK    4  A    between atoms: C_5  and  C_7 
REMARK    5  A    between atoms: C_8  and  C_18 
REMARK       I    between atoms: C_18  and  N_19 
ROOT
HETATM    1  H           1     -21.474  -8.566  -6.356  0.00  0.00     0.163 HD
HETATM    2  O           1     -19.314  -8.615  -4.082  0.00  0.00    -0.271 OA
HETATM    3  C           1     -20.076  -9.055  -4.911  0.00  0.00     0.249 C 
HETATM    4  N           1     -20.836  -8.199  -5.662  0.00  0.00    -0.345 N 
ENDROOT
BRANCH   3   5
HETATM    5  C           1     -20.191 -10.545  -5.116  0.00  0.00     0.274 C 
HETATM    6  C           1     -21.633 -10.979  -4.893  0.00  0.00     0.042 C 
HETATM    7  C           1     -22.056 -10.629  -3.472  0.00  0.00     0.003 C 
HETATM    8 Se           1     -20.897 -11.550  -2.204  0.00  0.00     0.000 Se
HETATM    9  C           1     -21.781 -10.830  -0.623  0.00  0.00     0.000 C 
HETATM   10  H           1     -19.590 -11.013  -3.166  0.00  0.00     0.275 HD
HETATM   11  N           1     -19.299 -11.254  -4.140  0.00  0.00    -0.067 N 
HETATM   12  H           1     -19.377 -12.286  -4.282  0.00  0.00     0.275 HD
HETATM   13  H           1     -18.309 -10.956  -4.294  0.00  0.00     0.275 HD
ENDBRANCH   3   5
BRANCH   4  14
HETATM   14  C           1     -20.725  -6.766  -5.465  0.00  0.00     0.185 C 
BRANCH  14  15
HETATM   15  C           1     -21.855  -6.292  -4.584  0.00  0.00     0.196 C 
HETATM   16  O           1     -23.018  -6.233  -5.037  0.00  0.00    -0.646 OA
HETATM   17  O           1     -21.625  -5.959  -3.401  0.00  0.00    -0.646 OA
ENDBRANCH  14  15
BRANCH  14  18
HETATM   18  C           1     -20.801  -6.062  -6.813  0.00  0.00     0.040 C 
BRANCH  18  19
HETATM   19  C           1     -20.295  -4.633  -6.669  0.00  0.00    -0.020 C 
HETATM   20  C           1     -18.995  -4.474  -7.448  0.00  0.00     0.009 C 
HETATM   21  C           1     -21.337  -3.668  -7.218  0.00  0.00     0.009 C 
ENDBRANCH  18  19
ENDBRANCH  14  18
ENDBRANCH   4  14
TORSDOF 5
ENDMDL
MODEL 2
REMARK VINA RESULT:      -5.2      3.284      4.886
REMARK  5 active torsions:
REMARK  status: ('A' for Active; 'I' for Inactive)
REMARK    1  A    between atoms: C_3  and  C_4 
REMARK    2  A    between atoms: C_4  and  C_5 
REMARK    3  A    between atoms: C_4  and  N_19 
REMARK    4  A    between atoms: C_5  and  C_7 
REMARK    5  A    between atoms: C_8  and  C_18 
REMARK       I    between atoms: C_18  and  N_19 
ROOT
HETATM    1  H           1     -20.161  -7.899  -3.743  0.00  0.00     0.163 HD
HETATM    2  O           1     -22.225 -10.258  -3.621  0.00  0.00    -0.271 OA
HETATM    3  C           1     -21.309  -9.595  -4.046  0.00  0.00     0.249 C 
HETATM    4  N           1     -20.928  -8.455  -3.389  0.00  0.00    -0.345 N 
ENDROOT
BRANCH   3   5
HETATM    5  C           1     -20.584 -10.021  -5.298  0.00  0.00     0.274 C 
HETATM    6  C           1     -19.902 -11.361  -5.059  0.00  0.00     0.042 C 
HETATM    7  C           1     -18.903 -11.227  -3.917  0.00  0.00     0.003 C 
HETATM    8 Se           1     -17.563  -9.889  -4.378  0.00  0.00     0.000 Se
HETATM    9  C           1     -16.573 -10.069  -2.709  0.00  0.00     0.000 C 
HETATM   10  H           1     -18.868  -8.900  -4.869  0.00  0.00     0.275 HD
HETATM   11  N           1     -19.553  -8.991  -5.653  0.00  0.00    -0.067 N 
HETATM   12  H           1     -19.050  -9.286  -6.521  0.00  0.00     0.275 HD
HETATM   13  H           1     -20.021  -8.072  -5.818  0.00  0.00     0.275 HD
ENDBRANCH   3   5
BRANCH   4  14
HETATM   14  C           1     -21.625  -8.046  -2.184  0.00  0.00     0.185 C 
BRANCH  14  15
HETATM   15  C           1     -22.049  -6.603  -2.315  0.00  0.00     0.196 C 
HETATM   16  O           1     -22.049  -6.052  -3.436  0.00  0.00    -0.646 OA
HETATM   17  O           1     -22.399  -5.961  -1.301  0.00  0.00    -0.646 OA
ENDBRANCH  14  15
BRANCH  14  18
HETATM   18  C           1     -20.696  -8.196  -0.987  0.00  0.00     0.040 C 
BRANCH  18  19
HETATM   19  C           1     -21.312  -9.164   0.016  0.00  0.00    -0.020 C 
HETATM   20  C           1     -21.167  -8.598   1.422  0.00  0.00     0.009 C 
HETATM   21  C           1     -22.788  -9.355  -0.304  0.00  0.00     0.009 C 
ENDBRANCH  18  19
ENDBRANCH  14  18
ENDBRANCH   4  14
TORSDOF 5
ENDMDL
MODEL 3
REMARK VINA RESULT:      -5.1      3.226      5.225
REMARK  5 active torsions:
REMARK  status: ('A' for Active; 'I' for Inactive)
REMARK    1  A    between atoms: C_3  and  C_4 
REMARK    2  A    between atoms: C_4  and  C_5 
REMARK    3  A    between atoms: C_4  and  N_19 
REMARK    4  A    between atoms: C_5  and  C_7 
REMARK    5  A    between atoms: C_8  and  C_18 
REMARK       I    between atoms: C_18  and  N_19 
ROOT
HETATM    1  H           1     -19.149  -7.899  -1.864  0.00  0.00     0.163 HD
HETATM    2  O           1     -20.444 -10.623  -2.726  0.00  0.00    -0.271 OA
HETATM    3  C           1     -19.572  -9.852  -2.402  0.00  0.00     0.249 C 
HETATM    4  N           1     -19.879  -8.545  -2.135  0.00  0.00    -0.345 N 
ENDROOT
BRANCH   3   5
HETATM    5  C           1     -18.145 -10.329  -2.294  0.00  0.00     0.274 C 
HETATM    6  C           1     -17.283  -9.589  -3.307  0.00  0.00     0.042 C 
HETATM    7  C           1     -17.803  -9.862  -4.713  0.00  0.00     0.003 C 
HETATM    8 Se           1     -17.730 -11.776  -5.073  0.00  0.00     0.000 Se
HETATM    9  C           1     -18.452 -11.630  -6.877  0.00  0.00     0.000 C 
HETATM   10  H           1     -18.446 -11.989  -3.535  0.00  0.00     0.275 HD
HETATM   11  N           1     -18.089 -11.803  -2.571  0.00  0.00    -0.067 N 
HETATM   12  H           1     -17.100 -12.134  -2.495  0.00  0.00     0.275 HD
HETATM   13  H           1     -18.680 -12.311  -1.874  0.00  0.00     0.275 HD
ENDBRANCH   3   5
BRANCH   4  14
HETATM   14  C           1     -21.251  -8.087  -2.239  0.00  0.00     0.185 C 
BRANCH  14  15
HETATM   15  C           1     -21.356  -7.063  -3.343  0.00  0.00     0.196 C 
HETATM   16  O           1     -22.032  -6.027  -3.172  0.00  0.00    -0.646 OA
HETATM   17  O           1     -20.766  -7.254  -4.429  0.00  0.00    -0.646 OA
ENDBRANCH  14  15
BRANCH  14  18
HETATM   18  C           1     -21.676  -7.457  -0.919  0.00  0.00     0.040 C 
BRANCH  18  19
HETATM   19  C           1     -22.089  -8.551   0.057  0.00  0.00    -0.020 C 
HETATM   20  C           1     -21.136  -8.555   1.246  0.00  0.00     0.009 C 
HETATM   21  C           1     -23.507  -8.288   0.544  0.00  0.00     0.009 C 
ENDBRANCH  18  19
ENDBRANCH  14  18
ENDBRANCH   4  14
TORSDOF 5
ENDMDL
MODEL 4
REMARK VINA RESULT:      -5.1      3.440      6.102
REMARK  5 active torsions:
REMARK  status: ('A' for Active; 'I' for Inactive)
REMARK    1  A    between atoms: C_3  and  C_4 
REMARK    2  A    between atoms: C_4  and  C_5 
REMARK    3  A    between atoms: C_4  and  N_19 
REMARK    4  A    between atoms: C_5  and  C_7 
REMARK    5  A    between atoms: C_8  and  C_18 
REMARK       I    between atoms: C_18  and  N_19 
ROOT
HETATM    1  H           1     -22.449 -10.742  -2.272  0.00  0.00     0.163 HD
HETATM    2  O           1     -19.523 -10.756  -1.140  0.00  0.00    -0.271 OA
HETATM    3  C           1     -20.403 -10.816  -1.966  0.00  0.00     0.249 C 
HETATM    4  N           1     -21.712 -10.692  -1.581  0.00  0.00    -0.345 N 
ENDROOT
BRANCH   3   5
HETATM    5  C           1     -20.061 -11.027  -3.420  0.00  0.00     0.274 C 
HETATM    6  C           1     -19.080  -9.955  -3.872  0.00  0.00     0.042 C 
HETATM    7  C           1     -19.711  -8.580  -3.694  0.00  0.00     0.003 C 
HETATM    8 Se           1     -21.335  -8.466  -4.766  0.00  0.00     0.000 Se
HETATM    9  C           1     -21.751  -6.637  -4.238  0.00  0.00     0.000 C 
HETATM   10  H           1     -21.744  -9.997  -4.122  0.00  0.00     0.275 HD
HETATM   11  N           1     -21.312 -10.940  -4.245  0.00  0.00    -0.067 N 
HETATM   12  H           1     -21.076 -11.087  -5.252  0.00  0.00     0.275 HD
HETATM   13  H           1     -21.985 -11.677  -3.935  0.00  0.00     0.275 HD
ENDBRANCH   3   5
BRANCH   4  14
HETATM   14  C           1     -22.040 -10.489  -0.183  0.00  0.00     0.185 C 
BRANCH  14  15
HETATM   15  C           1     -22.476 -11.799   0.426  0.00  0.00     0.196 C 
HETATM   16  O           1     -23.683 -12.120   0.421  0.00  0.00    -0.646 OA
HETATM   17  O           1     -21.627 -12.563   0.936  0.00  0.00    -0.646 OA
ENDBRANCH  14  15
BRANCH  14  18
HETATM   18  C           1     -23.170  -9.475  -0.071  0.00  0.00     0.040 C 
BRANCH  18  19
HETATM   19  C           1     -22.629  -8.171   0.501  0.00  0.00    -0.020 C 
HETATM   20  C           1     -21.308  -8.438   1.210  0.00  0.00     0.009 C 
HETATM   21  C           1     -22.406  -7.175  -0.629  0.00  0.00     0.009 C 
ENDBRANCH  18  19
ENDBRANCH  14  18
ENDBRANCH   4  14
TORSDOF 5
ENDMDL
MODEL 5
REMARK VINA RESULT:      -5.0      3.453      5.734
REMARK  5 active torsions:
REMARK  status: ('A' for Active; 'I' for Inactive)
REMARK    1  A    between atoms: C_3  and  C_4 
REMARK    2  A    between atoms: C_4  and  C_5 
REMARK    3  A    between atoms: C_4  and  N_19 
REMARK    4  A    between atoms: C_5  and  C_7 
REMARK    5  A    between atoms: C_8  and  C_18 
REMARK       I    between atoms: C_18  and  N_19 
ROOT
HETATM    1  H           1     -22.246 -10.579  -2.899  0.00  0.00     0.163 HD
HETATM    2  O           1     -19.938  -8.454  -2.916  0.00  0.00    -0.271 OA
HETATM    3  C           1     -20.759  -9.217  -3.367  0.00  0.00     0.249 C 
HETATM    4  N           1     -21.558  -9.940  -2.522  0.00  0.00    -0.345 N 
ENDROOT
BRANCH   3   5
HETATM    5  C           1     -20.905  -9.372  -4.861  0.00  0.00     0.274 C 
HETATM    6  C           1     -20.549 -10.797  -5.260  0.00  0.00     0.042 C 
HETATM    7  C           1     -19.110 -11.094  -4.858  0.00  0.00     0.003 C 
HETATM    8 Se           1     -17.913  -9.848  -5.760  0.00  0.00     0.000 Se
HETATM    9  C           1     -16.289 -10.585  -4.974  0.00  0.00     0.000 C 
HETATM   10  H           1     -18.997  -8.617  -5.278  0.00  0.00     0.275 HD
HETATM   11  N           1     -19.984  -8.413  -5.555  0.00  0.00    -0.067 N 
HETATM   12  H           1     -20.085  -8.520  -6.590  0.00  0.00     0.275 HD
HETATM   13  H           1     -20.229  -7.435  -5.281  0.00  0.00     0.275 HD
ENDBRANCH   3   5
BRANCH   4  14
HETATM   14  C           1     -21.417  -9.790  -1.086  0.00  0.00     0.185 C 
BRANCH  14  15
HETATM   15  C           1     -20.897 -11.077  -0.496  0.00  0.00     0.196 C 
HETATM   16  O           1     -21.566 -11.685   0.367  0.00  0.00    -0.646 OA
HETATM   17  O           1     -19.795 -11.535  -0.870  0.00  0.00    -0.646 OA
ENDBRANCH  14  15
BRANCH  14  18
HETATM   18  C           1     -22.774  -9.462  -0.477  0.00  0.00     0.040 C 
BRANCH  18  19
HETATM   19  C           1     -22.701  -8.117   0.233  0.00  0.00    -0.020 C 
HETATM   20  C           1     -21.593  -8.153   1.277  0.00  0.00     0.009 C 
HETATM   21  C           1     -22.405  -7.023  -0.783  0.00  0.00     0.009 C 
ENDBRANCH  18  19
ENDBRANCH  14  18
ENDBRANCH   4  14
TORSDOF 5
ENDMDL
MODEL 6
REMARK VINA RESULT:      -4.9      3.627      5.836
REMARK  5 active torsions:
REMARK  status: ('A' for Active; 'I' for Inactive)
REMARK    1  A    between atoms: C_3  and  C_4 
REMARK    2  A    between atoms: C_4  and  C_5 
REMARK    3  A    between atoms: C_4  and  N_19 
REMARK    4  A    between atoms: C_5  and  C_7 
REMARK    5  A    between atoms: C_8  and  C_18 
REMARK       I    between atoms: C_18  and  N_19 
ROOT
HETATM    1  H           1     -20.096  -8.944  -1.091  0.00  0.00     0.163 HD
HETATM    2  O           1     -21.855  -9.259  -3.669  0.00  0.00    -0.271 OA
HETATM    3  C           1     -20.851  -9.128  -3.009  0.00  0.00     0.249 C 
HETATM    4  N           1     -20.936  -9.054  -1.644  0.00  0.00    -0.345 N 
ENDROOT
BRANCH   3   5
HETATM    5  C           1     -19.507  -9.047  -3.687  0.00  0.00     0.274 C 
HETATM    6  C           1     -19.341 -10.229  -4.631  0.00  0.00     0.042 C 
HETATM    7  C           1     -19.432 -11.528  -3.841  0.00  0.00     0.003 C 
HETATM    8 Se           1     -18.023 -11.571  -2.495  0.00  0.00     0.000 Se
HETATM    9  C           1     -18.525 -13.317  -1.789  0.00  0.00     0.000 C 
HETATM   10  H           1     -18.486  -9.970  -2.109  0.00  0.00     0.275 HD
HETATM   11  N           1     -18.422  -9.079  -2.651  0.00  0.00    -0.067 N 
HETATM   12  H           1     -17.490  -9.022  -3.120  0.00  0.00     0.275 HD
HETATM   13  H           1     -18.535  -8.267  -2.003  0.00  0.00     0.275 HD
ENDBRANCH   3   5
BRANCH   4  14
HETATM   14  C           1     -22.229  -9.133  -0.992  0.00  0.00     0.185 C 
BRANCH  14  15
HETATM   15  C           1     -22.491  -7.851  -0.240  0.00  0.00     0.196 C 
HETATM   16  O           1     -22.670  -6.785  -0.866  0.00  0.00    -0.646 OA
HETATM   17  O           1     -22.528  -7.858   1.010  0.00  0.00    -0.646 OA
ENDBRANCH  14  15
BRANCH  14  18
HETATM   18  C           1     -22.234 -10.304  -0.019  0.00  0.00     0.040 C 
BRANCH  18  19
HETATM   19  C           1     -23.543 -11.071  -0.153  0.00  0.00    -0.020 C 
HETATM   20  C           1     -23.816 -11.355  -1.625  0.00  0.00     0.009 C 
HETATM   21  C           1     -23.441 -12.387   0.607  0.00  0.00     0.009 C 
ENDBRANCH  18  19
ENDBRANCH  14  18
ENDBRANCH   4  14
TORSDOF 5
ENDMDL
MODEL 7
REMARK VINA RESULT:      -4.8     19.422     21.217
REMARK  5 active torsions:
REMARK  status: ('A' for Active; 'I' for Inactive)
REMARK    1  A    between atoms: C_3  and  C_4 
REMARK    2  A    between atoms: C_4  and  C_5 
REMARK    3  A    between atoms: C_4  and  N_19 
REMARK    4  A    between atoms: C_5  and  C_7 
REMARK    5  A    between atoms: C_8  and  C_18 
REMARK       I    between atoms: C_18  and  N_19 
ROOT
HETATM    1  H           1     -15.324  11.057   4.431  0.00  0.00     0.163 HD
HETATM    2  O           1     -17.587   8.889   4.555  0.00  0.00    -0.271 OA
HETATM    3  C           1     -17.097   9.990   4.468  0.00  0.00     0.249 C 
HETATM    4  N           1     -15.736  10.136   4.504  0.00  0.00    -0.345 N 
ENDROOT
BRANCH   3   5
HETATM    5  C           1     -17.982  11.202   4.322  0.00  0.00     0.274 C 
HETATM    6  C           1     -18.762  11.107   3.018  0.00  0.00     0.042 C 
HETATM    7  C           1     -17.788  11.046   1.847  0.00  0.00     0.003 C 
HETATM    8 Se           1     -16.689  12.655   1.831  0.00  0.00     0.000 Se
HETATM    9  C           1     -15.669  12.140   0.252  0.00  0.00     0.000 C 
HETATM   10  H           1     -16.468  12.397   3.507  0.00  0.00     0.275 HD
HETATM   11  N           1     -17.136  12.440   4.310  0.00  0.00    -0.067 N 
HETATM   12  H           1     -17.749  13.281   4.209  0.00  0.00     0.275 HD
HETATM   13  H           1     -16.602  12.505   5.206  0.00  0.00     0.275 HD
ENDBRANCH   3   5
BRANCH   4  14
HETATM   14  C           1     -14.884   8.970   4.644  0.00  0.00     0.185 C 
BRANCH  14  15
HETATM   15  C           1     -14.349   8.906   6.054  0.00  0.00     0.196 C 
HETATM   16  O           1     -15.105   8.583   6.995  0.00  0.00    -0.646 OA
HETATM   17  O           1     -13.149   9.176   6.278  0.00  0.00    -0.646 OA
ENDBRANCH  14  15
BRANCH  14  18
HETATM   18  C           1     -13.724   9.070   3.663  0.00  0.00     0.040 C 
BRANCH  18  19
HETATM   19  C           1     -14.263   9.313   2.259  0.00  0.00    -0.020 C 
HETATM   20  C           1     -13.133   9.792   1.358  0.00  0.00     0.009 C 
HETATM   21  C           1     -14.840   8.017   1.707  0.00  0.00     0.009 C 
ENDBRANCH  18  19
ENDBRANCH  14  18
ENDBRANCH   4  14
TORSDOF 5
ENDMDL
MODEL 8
REMARK VINA RESULT:      -4.8      3.055      4.376
REMARK  5 active torsions:
REMARK  status: ('A' for Active; 'I' for Inactive)
REMARK    1  A    between atoms: C_3  and  C_4 
REMARK    2  A    between atoms: C_4  and  C_5 
REMARK    3  A    between atoms: C_4  and  N_19 
REMARK    4  A    between atoms: C_5  and  C_7 
REMARK    5  A    between atoms: C_8  and  C_18 
REMARK       I    between atoms: C_18  and  N_19 
ROOT
HETATM    1  H           1     -22.345  -9.288  -2.703  0.00  0.00     0.163 HD
HETATM    2  O           1     -20.991  -8.339  -0.038  0.00  0.00    -0.271 OA
HETATM    3  C           1     -21.695  -9.006  -0.759  0.00  0.00     0.249 C 
HETATM    4  N           1     -21.756  -8.730  -2.099  0.00  0.00    -0.345 N 
ENDROOT
BRANCH   3   5
HETATM    5  C           1     -22.506 -10.140  -0.184  0.00  0.00     0.274 C 
HETATM    6  C           1     -21.576 -11.141   0.487  0.00  0.00     0.042 C 
HETATM    7  C           1     -20.594 -11.690  -0.541  0.00  0.00     0.003 C 
HETATM    8 Se           1     -21.577 -12.576  -1.972  0.00  0.00     0.000 Se
HETATM    9  C           1     -19.984 -13.080  -2.975  0.00  0.00     0.000 C 
HETATM   10  H           1     -22.589 -11.197  -1.990  0.00  0.00     0.275 HD
HETATM   11  N           1     -23.263 -10.821  -1.286  0.00  0.00    -0.067 N 
HETATM   12  H           1     -23.826 -11.607  -0.888  0.00  0.00     0.275 HD
HETATM   13  H           1     -23.902 -10.134  -1.745  0.00  0.00     0.275 HD
ENDBRANCH   3   5
BRANCH   4  14
HETATM   14  C           1     -20.975  -7.640  -2.652  0.00  0.00     0.185 C 
BRANCH  14  15
HETATM   15  C           1     -21.882  -6.467  -2.935  0.00  0.00     0.196 C 
HETATM   16  O           1     -22.509  -5.922  -2.001  0.00  0.00    -0.646 OA
HETATM   17  O           1     -22.004  -6.041  -4.104  0.00  0.00    -0.646 OA
ENDBRANCH  14  15
BRANCH  14  18
HETATM   18  C           1     -20.314  -8.096  -3.946  0.00  0.00     0.040 C 
BRANCH  18  19
HETATM   19  C           1     -19.664  -9.457  -3.732  0.00  0.00    -0.020 C 
HETATM   20  C           1     -19.270 -10.047  -5.079  0.00  0.00     0.009 C 
HETATM   21  C           1     -18.422  -9.295  -2.866  0.00  0.00     0.009 C 
ENDBRANCH  18  19
ENDBRANCH  14  18
ENDBRANCH   4  14
TORSDOF 5
ENDMDL
MODEL 9
REMARK VINA RESULT:      -4.8      3.191      4.975
REMARK  5 active torsions:
REMARK  status: ('A' for Active; 'I' for Inactive)
REMARK    1  A    between atoms: C_3  and  C_4 
REMARK    2  A    between atoms: C_4  and  C_5 
REMARK    3  A    between atoms: C_4  and  N_19 
REMARK    4  A    between atoms: C_5  and  C_7 
REMARK    5  A    between atoms: C_8  and  C_18 
REMARK       I    between atoms: C_18  and  N_19 
ROOT
HETATM    1  H           1     -20.544  -8.968  -3.468  0.00  0.00     0.163 HD
HETATM    2  O           1     -22.908 -10.583  -2.184  0.00  0.00    -0.271 OA
HETATM    3  C           1     -21.973 -10.361  -2.917  0.00  0.00     0.249 C 
HETATM    4  N           1     -21.327  -9.155  -2.855  0.00  0.00    -0.345 N 
ENDROOT
BRANCH   3   5
HETATM    5  C           1     -21.517 -11.411  -3.900  0.00  0.00     0.274 C 
HETATM    6  C           1     -21.150 -12.683  -3.150  0.00  0.00     0.042 C 
HETATM    7  C           1     -20.025 -12.388  -2.166  0.00  0.00     0.003 C 
HETATM    8 Se           1     -18.467 -11.735  -3.137  0.00  0.00     0.000 Se
HETATM    9  C           1     -17.364 -11.511  -1.546  0.00  0.00     0.000 C 
HETATM   10  H           1     -19.547 -10.705  -3.972  0.00  0.00     0.275 HD
HETATM   11  N           1     -20.318 -10.908  -4.647  0.00  0.00    -0.067 N 
HETATM   12  H           1     -20.002 -11.634  -5.329  0.00  0.00     0.275 HD
HETATM   13  H           1     -20.570 -10.034  -5.163  0.00  0.00     0.275 HD
ENDBRANCH   3   5
BRANCH   4  14
HETATM   14  C           1     -21.765  -8.146  -1.909  0.00  0.00     0.185 C 
BRANCH  14  15
HETATM   15  C           1     -21.851  -6.810  -2.605  0.00  0.00     0.196 C 
HETATM   16  O           1     -22.555  -5.897  -2.122  0.00  0.00    -0.646 OA
HETATM   17  O           1     -21.217  -6.617  -3.666  0.00  0.00    -0.646 OA
ENDBRANCH  14  15
BRANCH  14  18
HETATM   18  C           1     -20.766  -8.059  -0.763  0.00  0.00     0.040 C 
BRANCH  18  19
HETATM   19  C           1     -21.438  -8.497   0.532  0.00  0.00    -0.020 C 
HETATM   20  C           1     -22.945  -8.315   0.407  0.00  0.00     0.009 C 
HETATM   21  C           1     -21.124  -9.963   0.796  0.00  0.00     0.009 C 
ENDBRANCH  18  19
ENDBRANCH  14  18
ENDBRANCH   4  14
TORSDOF 5
ENDMDL
