MODEL 1
REMARK VINA RESULT:      -6.3      0.000      0.000
REMARK  9 active torsions:
REMARK  status: ('A' for Active; 'I' for Inactive)
REMARK    1  A    between atoms: C_1  and  C_15 
REMARK    2  A    between atoms: N_3  and  C_19 
REMARK    3  A    between atoms: C_8  and  C_17 
REMARK    4  A    between atoms: C_8  and  C_9 
REMARK    5  A    between atoms: C_9  and  C_10 
REMARK    6  A    between atoms: C_9  and  N_22 
REMARK    7  A    between atoms: C_15  and  C_21 
REMARK       I    between atoms: C_18  and  N_22 
REMARK    8  A    between atoms: C_18  and  C_19 
REMARK    9  A    between atoms: C_19  and  C_21 
ROOT
HETATM    1  O           1     -26.443  -7.343 -15.388  0.00  0.00    -0.271 OA
HETATM    2  H           1     -27.570  -6.235 -18.097  0.00  0.00     0.163 HD
HETATM    3  C           1     -26.420  -6.916 -16.517  0.00  0.00     0.249 C 
HETATM    4  N           1     -27.589  -6.594 -17.151  0.00  0.00    -0.344 N 
ENDROOT
BRANCH   3   5
HETATM    5  C           1     -25.101  -6.736 -17.229  0.00  0.00     0.275 C 
BRANCH   5   6
HETATM    6  N           1     -24.166  -7.841 -16.833  0.00  0.00    -0.066 N 
HETATM    7  H           1     -24.411  -8.711 -17.356  0.00  0.00     0.275 HD
HETATM    8  H           1     -23.184  -7.563 -17.059  0.00  0.00     0.275 HD
HETATM    9  H           1     -24.251  -8.016 -15.806  0.00  0.00     0.275 HD
ENDBRANCH   5   6
BRANCH   5  10
HETATM   10  C           1     -25.325  -6.777 -18.734  0.00  0.00     0.053 C 
BRANCH  10  11
HETATM   11  C           1     -24.097  -7.369 -19.415  0.00  0.00     0.115 C 
BRANCH  11  12
HETATM   12  C           1     -24.485  -7.918 -20.765  0.00  0.00     0.172 C 
HETATM   13  O           1     -25.688  -8.127 -21.033  0.00  0.00    -0.648 OA
HETATM   14  O           1     -23.604  -8.162 -21.617  0.00  0.00    -0.648 OA
ENDBRANCH  11  12
ENDBRANCH  10  11
ENDBRANCH   5  10
ENDBRANCH   3   5
BRANCH   4  15
HETATM   15  C           1     -28.856  -6.767 -16.468  0.00  0.00     0.195 C 
BRANCH  15  16
HETATM   16  C           1     -29.377  -5.409 -16.015  0.00  0.00     0.149 C 
BRANCH  16  17
HETATM   17  C           1     -28.803  -4.329 -16.899  0.00  0.00     0.175 C 
HETATM   18  O           1     -27.815  -3.666 -16.516  0.00  0.00    -0.648 OA
HETATM   19  O           1     -29.316  -4.097 -18.016  0.00  0.00    -0.648 OA
ENDBRANCH  16  17
ENDBRANCH  15  16
BRANCH  15  20
HETATM   20  C           1     -29.852  -7.400 -17.408  0.00  0.00     0.197 C 
HETATM   21  O           1     -29.482  -8.291 -18.203  0.00  0.00    -0.646 OA
HETATM   22  O           1     -31.047  -7.034 -17.392  0.00  0.00    -0.646 OA
ENDBRANCH  15  20
ENDBRANCH   4  15
TORSDOF 9
ENDMDL
MODEL 2
REMARK VINA RESULT:      -6.1     10.052     12.311
REMARK  9 active torsions:
REMARK  status: ('A' for Active; 'I' for Inactive)
REMARK    1  A    between atoms: C_1  and  C_15 
REMARK    2  A    between atoms: N_3  and  C_19 
REMARK    3  A    between atoms: C_8  and  C_17 
REMARK    4  A    between atoms: C_8  and  C_9 
REMARK    5  A    between atoms: C_9  and  C_10 
REMARK    6  A    between atoms: C_9  and  N_22 
REMARK    7  A    between atoms: C_15  and  C_21 
REMARK       I    between atoms: C_18  and  N_22 
REMARK    8  A    between atoms: C_18  and  C_19 
REMARK    9  A    between atoms: C_19  and  C_21 
ROOT
HETATM    1  O           1     -21.674  -3.535  -7.138  0.00  0.00    -0.271 OA
HETATM    2  H           1     -22.555  -5.626  -9.303  0.00  0.00     0.163 HD
HETATM    3  C           1     -21.794  -4.614  -7.666  0.00  0.00     0.249 C 
HETATM    4  N           1     -22.455  -4.722  -8.860  0.00  0.00    -0.344 N 
ENDROOT
BRANCH   3   5
HETATM    5  C           1     -21.215  -5.843  -7.011  0.00  0.00     0.275 C 
BRANCH   5   6
HETATM    6  N           1     -19.849  -6.112  -7.572  0.00  0.00    -0.066 N 
HETATM    7  H           1     -19.795  -5.745  -8.548  0.00  0.00     0.275 HD
HETATM    8  H           1     -19.130  -5.638  -6.980  0.00  0.00     0.275 HD
HETATM    9  H           1     -19.673  -7.142  -7.577  0.00  0.00     0.275 HD
ENDBRANCH   5   6
BRANCH   5  10
HETATM   10  C           1     -21.110  -5.618  -5.509  0.00  0.00     0.053 C 
BRANCH  10  11
HETATM   11  C           1     -22.141  -6.481  -4.792  0.00  0.00     0.115 C 
BRANCH  11  12
HETATM   12  C           1     -21.776  -6.594  -3.333  0.00  0.00     0.172 C 
HETATM   13  O           1     -20.867  -7.374  -2.975  0.00  0.00    -0.648 OA
HETATM   14  O           1     -22.382  -5.908  -2.481  0.00  0.00    -0.648 OA
ENDBRANCH  11  12
ENDBRANCH  10  11
ENDBRANCH   5  10
ENDBRANCH   3   5
BRANCH   4  15
HETATM   15  C           1     -23.012  -3.540  -9.490  0.00  0.00     0.195 C 
BRANCH  15  16
HETATM   16  C           1     -22.086  -3.077 -10.606  0.00  0.00     0.149 C 
BRANCH  16  17
HETATM   17  C           1     -21.401  -4.273 -11.221  0.00  0.00     0.175 C 
HETATM   18  O           1     -20.236  -4.571 -10.879  0.00  0.00    -0.648 OA
HETATM   19  O           1     -21.998  -4.966 -12.073  0.00  0.00    -0.648 OA
ENDBRANCH  16  17
ENDBRANCH  15  16
BRANCH  15  20
HETATM   20  C           1     -24.368  -3.869 -10.064  0.00  0.00     0.197 C 
HETATM   21  O           1     -24.930  -4.945  -9.764  0.00  0.00    -0.646 OA
HETATM   22  O           1     -24.930  -3.066 -10.840  0.00  0.00    -0.646 OA
ENDBRANCH  15  20
ENDBRANCH   4  15
TORSDOF 9
ENDMDL
MODEL 3
REMARK VINA RESULT:      -5.8      2.133      6.329
REMARK  9 active torsions:
REMARK  status: ('A' for Active; 'I' for Inactive)
REMARK    1  A    between atoms: C_1  and  C_15 
REMARK    2  A    between atoms: N_3  and  C_19 
REMARK    3  A    between atoms: C_8  and  C_17 
REMARK    4  A    between atoms: C_8  and  C_9 
REMARK    5  A    between atoms: C_9  and  C_10 
REMARK    6  A    between atoms: C_9  and  N_22 
REMARK    7  A    between atoms: C_15  and  C_21 
REMARK       I    between atoms: C_18  and  N_22 
REMARK    8  A    between atoms: C_18  and  C_19 
REMARK    9  A    between atoms: C_19  and  C_21 
ROOT
HETATM    1  O           1     -28.617  -7.009 -17.064  0.00  0.00    -0.271 OA
HETATM    2  H           1     -26.528  -4.752 -17.680  0.00  0.00     0.163 HD
HETATM    3  C           1     -28.201  -5.890 -17.245  0.00  0.00     0.249 C 
HETATM    4  N           1     -26.877  -5.689 -17.528  0.00  0.00    -0.344 N 
ENDROOT
BRANCH   3   5
HETATM    5  C           1     -29.140  -4.713 -17.157  0.00  0.00     0.275 C 
BRANCH   5   6
HETATM    6  N           1     -29.611  -4.346 -18.534  0.00  0.00    -0.066 N 
HETATM    7  H           1     -30.169  -5.133 -18.934  0.00  0.00     0.275 HD
HETATM    8  H           1     -30.205  -3.488 -18.481  0.00  0.00     0.275 HD
HETATM    9  H           1     -28.783  -4.159 -19.145  0.00  0.00     0.275 HD
ENDBRANCH   5   6
BRANCH   5  10
HETATM   10  C           1     -30.339  -5.081 -16.294  0.00  0.00     0.053 C 
BRANCH  10  11
HETATM   11  C           1     -31.573  -5.230 -17.174  0.00  0.00     0.115 C 
BRANCH  11  12
HETATM   12  C           1     -32.497  -4.059 -16.950  0.00  0.00     0.172 C 
HETATM   13  O           1     -32.402  -3.041 -17.670  0.00  0.00    -0.648 OA
HETATM   14  O           1     -33.358  -4.106 -16.045  0.00  0.00    -0.648 OA
ENDBRANCH  11  12
ENDBRANCH  10  11
ENDBRANCH   5  10
ENDBRANCH   3   5
BRANCH   4  15
HETATM   15  C           1     -25.974  -6.821 -17.612  0.00  0.00     0.195 C 
BRANCH  15  16
HETATM   16  C           1     -25.056  -6.649 -18.815  0.00  0.00     0.149 C 
BRANCH  16  17
HETATM   17  C           1     -25.803  -7.012 -20.075  0.00  0.00     0.175 C 
HETATM   18  O           1     -25.381  -7.931 -20.810  0.00  0.00    -0.648 OA
HETATM   19  O           1     -26.845  -6.393 -20.384  0.00  0.00    -0.648 OA
ENDBRANCH  16  17
ENDBRANCH  15  16
BRANCH  15  20
HETATM   20  C           1     -25.146  -6.897 -16.353  0.00  0.00     0.197 C 
HETATM   21  O           1     -25.083  -5.912 -15.586  0.00  0.00    -0.646 OA
HETATM   22  O           1     -24.521  -7.944 -16.078  0.00  0.00    -0.646 OA
ENDBRANCH  15  20
ENDBRANCH   4  15
TORSDOF 9
ENDMDL
MODEL 4
REMARK VINA RESULT:      -5.8      2.091      3.383
REMARK  9 active torsions:
REMARK  status: ('A' for Active; 'I' for Inactive)
REMARK    1  A    between atoms: C_1  and  C_15 
REMARK    2  A    between atoms: N_3  and  C_19 
REMARK    3  A    between atoms: C_8  and  C_17 
REMARK    4  A    between atoms: C_8  and  C_9 
REMARK    5  A    between atoms: C_9  and  C_10 
REMARK    6  A    between atoms: C_9  and  N_22 
REMARK    7  A    between atoms: C_15  and  C_21 
REMARK       I    between atoms: C_18  and  N_22 
REMARK    8  A    between atoms: C_18  and  C_19 
REMARK    9  A    between atoms: C_19  and  C_21 
ROOT
HETATM    1  O           1     -27.665  -5.588 -20.446  0.00  0.00    -0.271 OA
HETATM    2  H           1     -27.541  -7.140 -17.723  0.00  0.00     0.163 HD
HETATM    3  C           1     -27.316  -6.430 -19.654  0.00  0.00     0.249 C 
HETATM    4  N           1     -27.834  -6.434 -18.387  0.00  0.00    -0.344 N 
ENDROOT
BRANCH   3   5
HETATM    5  C           1     -26.309  -7.476 -20.061  0.00  0.00     0.275 C 
BRANCH   5   6
HETATM    6  N           1     -26.950  -8.441 -21.015  0.00  0.00    -0.066 N 
HETATM    7  H           1     -27.105  -7.972 -21.935  0.00  0.00     0.275 HD
HETATM    8  H           1     -26.324  -9.268 -21.147  0.00  0.00     0.275 HD
HETATM    9  H           1     -27.867  -8.757 -20.626  0.00  0.00     0.275 HD
ENDBRANCH   5   6
BRANCH   5  10
HETATM   10  C           1     -25.123  -6.806 -20.740  0.00  0.00     0.053 C 
BRANCH  10  11
HETATM   11  C           1     -23.887  -7.683 -20.588  0.00  0.00     0.115 C 
BRANCH  11  12
HETATM   12  C           1     -23.521  -8.274 -21.927  0.00  0.00     0.172 C 
HETATM   13  O           1     -24.297  -8.150 -22.899  0.00  0.00    -0.648 OA
HETATM   14  O           1     -22.440  -8.886 -22.066  0.00  0.00    -0.648 OA
ENDBRANCH  11  12
ENDBRANCH  10  11
ENDBRANCH   5  10
ENDBRANCH   3   5
BRANCH   4  15
HETATM   15  C           1     -28.801  -5.427 -17.996  0.00  0.00     0.195 C 
BRANCH  15  16
HETATM   16  C           1     -30.185  -6.058 -17.918  0.00  0.00     0.149 C 
BRANCH  16  17
HETATM   17  C           1     -30.058  -7.561 -17.982  0.00  0.00     0.175 C 
HETATM   18  O           1     -29.589  -8.190 -17.010  0.00  0.00    -0.648 OA
HETATM   19  O           1     -30.423  -8.176 -19.007  0.00  0.00    -0.648 OA
ENDBRANCH  16  17
ENDBRANCH  15  16
BRANCH  15  20
HETATM   20  C           1     -28.426  -4.868 -16.645  0.00  0.00     0.197 C 
HETATM   21  O           1     -29.041  -5.241 -15.622  0.00  0.00    -0.646 OA
HETATM   22  O           1     -27.502  -4.033 -16.549  0.00  0.00    -0.646 OA
ENDBRANCH  15  20
ENDBRANCH   4  15
TORSDOF 9
ENDMDL
MODEL 5
REMARK VINA RESULT:      -5.8      9.705     11.883
REMARK  9 active torsions:
REMARK  status: ('A' for Active; 'I' for Inactive)
REMARK    1  A    between atoms: C_1  and  C_15 
REMARK    2  A    between atoms: N_3  and  C_19 
REMARK    3  A    between atoms: C_8  and  C_17 
REMARK    4  A    between atoms: C_8  and  C_9 
REMARK    5  A    between atoms: C_9  and  C_10 
REMARK    6  A    between atoms: C_9  and  N_22 
REMARK    7  A    between atoms: C_15  and  C_21 
REMARK       I    between atoms: C_18  and  N_22 
REMARK    8  A    between atoms: C_18  and  C_19 
REMARK    9  A    between atoms: C_19  and  C_21 
ROOT
HETATM    1  O           1     -19.864  -5.194  -9.179  0.00  0.00    -0.271 OA
HETATM    2  H           1     -22.474  -3.482  -8.874  0.00  0.00     0.163 HD
HETATM    3  C           1     -20.660  -4.453  -8.654  0.00  0.00     0.249 C 
HETATM    4  N           1     -21.807  -4.102  -9.314  0.00  0.00    -0.344 N 
ENDROOT
BRANCH   3   5
HETATM    5  C           1     -20.391  -3.914  -7.271  0.00  0.00     0.275 C 
BRANCH   5   6
HETATM    6  N           1     -21.578  -3.126  -6.802  0.00  0.00    -0.066 N 
HETATM    7  H           1     -21.331  -2.608  -5.929  0.00  0.00     0.275 HD
HETATM    8  H           1     -21.859  -2.445  -7.543  0.00  0.00     0.275 HD
HETATM    9  H           1     -22.372  -3.777  -6.607  0.00  0.00     0.275 HD
ENDBRANCH   5   6
BRANCH   5  10
HETATM   10  C           1     -20.140  -5.070  -6.314  0.00  0.00     0.053 C 
BRANCH  10  11
HETATM   11  C           1     -21.466  -5.726  -5.949  0.00  0.00     0.115 C 
BRANCH  11  12
HETATM   12  C           1     -21.327  -6.446  -4.631  0.00  0.00     0.172 C 
HETATM   13  O           1     -21.937  -6.029  -3.623  0.00  0.00    -0.648 OA
HETATM   14  O           1     -20.602  -7.461  -4.547  0.00  0.00    -0.648 OA
ENDBRANCH  11  12
ENDBRANCH  10  11
ENDBRANCH   5  10
ENDBRANCH   3   5
BRANCH   4  15
HETATM   15  C           1     -22.065  -4.620 -10.643  0.00  0.00     0.195 C 
BRANCH  15  16
HETATM   16  C           1     -23.543  -4.965 -10.775  0.00  0.00     0.149 C 
BRANCH  16  17
HETATM   17  C           1     -24.375  -3.819 -10.252  0.00  0.00     0.175 C 
HETATM   18  O           1     -24.380  -3.557  -9.029  0.00  0.00    -0.648 OA
HETATM   19  O           1     -25.060  -3.133 -11.041  0.00  0.00    -0.648 OA
ENDBRANCH  16  17
ENDBRANCH  15  16
BRANCH  15  20
HETATM   20  C           1     -21.698  -3.577 -11.670  0.00  0.00     0.197 C 
HETATM   21  O           1     -21.159  -2.508 -11.309  0.00  0.00    -0.646 OA
HETATM   22  O           1     -21.933  -3.780 -12.880  0.00  0.00    -0.646 OA
ENDBRANCH  15  20
ENDBRANCH   4  15
TORSDOF 9
ENDMDL
MODEL 6
REMARK VINA RESULT:      -5.7      9.842     11.871
REMARK  9 active torsions:
REMARK  status: ('A' for Active; 'I' for Inactive)
REMARK    1  A    between atoms: C_1  and  C_15 
REMARK    2  A    between atoms: N_3  and  C_19 
REMARK    3  A    between atoms: C_8  and  C_17 
REMARK    4  A    between atoms: C_8  and  C_9 
REMARK    5  A    between atoms: C_9  and  C_10 
REMARK    6  A    between atoms: C_9  and  N_22 
REMARK    7  A    between atoms: C_15  and  C_21 
REMARK       I    between atoms: C_18  and  N_22 
REMARK    8  A    between atoms: C_18  and  C_19 
REMARK    9  A    between atoms: C_19  and  C_21 
ROOT
HETATM    1  O           1     -21.220  -3.526  -7.800  0.00  0.00    -0.271 OA
HETATM    2  H           1     -23.966  -4.973  -8.253  0.00  0.00     0.163 HD
HETATM    3  C           1     -22.159  -4.246  -7.555  0.00  0.00     0.249 C 
HETATM    4  N           1     -23.180  -4.369  -8.458  0.00  0.00    -0.344 N 
ENDROOT
BRANCH   3   5
HETATM    5  C           1     -22.205  -5.008  -6.254  0.00  0.00     0.275 C 
BRANCH   5   6
HETATM    6  N           1     -23.604  -5.493  -6.009  0.00  0.00    -0.066 N 
HETATM    7  H           1     -23.699  -5.796  -5.013  0.00  0.00     0.275 HD
HETATM    8  H           1     -24.280  -4.721  -6.204  0.00  0.00     0.275 HD
HETATM    9  H           1     -23.806  -6.302  -6.639  0.00  0.00     0.275 HD
ENDBRANCH   5   6
BRANCH   5  10
HETATM   10  C           1     -21.261  -6.200  -6.328  0.00  0.00     0.053 C 
BRANCH  10  11
HETATM   11  C           1     -20.917  -6.664  -4.918  0.00  0.00     0.115 C 
BRANCH  11  12
HETATM   12  C           1     -21.031  -8.167  -4.841  0.00  0.00     0.172 C 
HETATM   13  O           1     -20.977  -8.742  -3.732  0.00  0.00    -0.648 OA
HETATM   14  O           1     -21.181  -8.837  -5.885  0.00  0.00    -0.648 OA
ENDBRANCH  11  12
ENDBRANCH  10  11
ENDBRANCH   5  10
ENDBRANCH   3   5
BRANCH   4  15
HETATM   15  C           1     -23.135  -3.637  -9.708  0.00  0.00     0.195 C 
BRANCH  15  16
HETATM   16  C           1     -22.419  -4.473 -10.760  0.00  0.00     0.149 C 
BRANCH  16  17
HETATM   17  C           1     -21.261  -3.687 -11.325  0.00  0.00     0.175 C 
HETATM   18  O           1     -20.107  -4.166 -11.297  0.00  0.00    -0.648 OA
HETATM   19  O           1     -21.456  -2.556 -11.822  0.00  0.00    -0.648 OA
ENDBRANCH  16  17
ENDBRANCH  15  16
BRANCH  15  20
HETATM   20  C           1     -24.542  -3.344 -10.169  0.00  0.00     0.197 C 
HETATM   21  O           1     -24.897  -3.652 -11.327  0.00  0.00    -0.646 OA
HETATM   22  O           1     -25.352  -2.793  -9.393  0.00  0.00    -0.646 OA
ENDBRANCH  15  20
ENDBRANCH   4  15
TORSDOF 9
ENDMDL
MODEL 7
REMARK VINA RESULT:      -5.6     11.917     14.149
REMARK  9 active torsions:
REMARK  status: ('A' for Active; 'I' for Inactive)
REMARK    1  A    between atoms: C_1  and  C_15 
REMARK    2  A    between atoms: N_3  and  C_19 
REMARK    3  A    between atoms: C_8  and  C_17 
REMARK    4  A    between atoms: C_8  and  C_9 
REMARK    5  A    between atoms: C_9  and  C_10 
REMARK    6  A    between atoms: C_9  and  N_22 
REMARK    7  A    between atoms: C_15  and  C_21 
REMARK       I    between atoms: C_18  and  N_22 
REMARK    8  A    between atoms: C_18  and  C_19 
REMARK    9  A    between atoms: C_19  and  C_21 
ROOT
HETATM    1  O           1     -22.692  -5.603  -5.673  0.00  0.00    -0.271 OA
HETATM    2  H           1     -19.922  -6.828  -4.855  0.00  0.00     0.163 HD
HETATM    3  C           1     -21.496  -5.773  -5.687  0.00  0.00     0.249 C 
HETATM    4  N           1     -20.924  -6.685  -4.843  0.00  0.00    -0.344 N 
ENDROOT
BRANCH   3   5
HETATM    5  C           1     -20.633  -4.978  -6.637  0.00  0.00     0.275 C 
BRANCH   5   6
HETATM    6  N           1     -20.050  -5.897  -7.669  0.00  0.00    -0.066 N 
HETATM    7  H           1     -19.376  -5.368  -8.266  0.00  0.00     0.275 HD
HETATM    8  H           1     -19.552  -6.683  -7.194  0.00  0.00     0.275 HD
HETATM    9  H           1     -20.818  -6.281  -8.266  0.00  0.00     0.275 HD
ENDBRANCH   5   6
BRANCH   5  10
HETATM   10  C           1     -21.478  -3.915  -7.324  0.00  0.00     0.053 C 
BRANCH  10  11
HETATM   11  C           1     -21.411  -4.109  -8.834  0.00  0.00     0.115 C 
BRANCH  11  12
HETATM   12  C           1     -22.751  -3.782  -9.445  0.00  0.00     0.172 C 
HETATM   13  O           1     -22.816  -3.358 -10.619  0.00  0.00    -0.648 OA
HETATM   14  O           1     -23.796  -3.935  -8.777  0.00  0.00    -0.648 OA
ENDBRANCH  11  12
ENDBRANCH  10  11
ENDBRANCH   5  10
ENDBRANCH   3   5
BRANCH   4  15
HETATM   15  C           1     -21.753  -7.448  -3.931  0.00  0.00     0.195 C 
BRANCH  15  16
HETATM   16  C           1     -21.294  -8.900  -3.922  0.00  0.00     0.149 C 
BRANCH  16  17
HETATM   17  C           1     -19.973  -9.015  -4.643  0.00  0.00     0.175 C 
HETATM   18  O           1     -19.947  -9.309  -5.857  0.00  0.00    -0.648 OA
HETATM   19  O           1     -18.904  -8.815  -4.026  0.00  0.00    -0.648 OA
ENDBRANCH  16  17
ENDBRANCH  15  16
BRANCH  15  20
HETATM   20  C           1     -21.632  -6.873  -2.541  0.00  0.00     0.197 C 
HETATM   21  O           1     -20.889  -7.423  -1.700  0.00  0.00    -0.646 OA
HETATM   22  O           1     -22.275  -5.847  -2.231  0.00  0.00    -0.646 OA
ENDBRANCH  15  20
ENDBRANCH   4  15
TORSDOF 9
ENDMDL
MODEL 8
REMARK VINA RESULT:      -5.5     11.391     13.467
REMARK  9 active torsions:
REMARK  status: ('A' for Active; 'I' for Inactive)
REMARK    1  A    between atoms: C_1  and  C_15 
REMARK    2  A    between atoms: N_3  and  C_19 
REMARK    3  A    between atoms: C_8  and  C_17 
REMARK    4  A    between atoms: C_8  and  C_9 
REMARK    5  A    between atoms: C_9  and  C_10 
REMARK    6  A    between atoms: C_9  and  N_22 
REMARK    7  A    between atoms: C_15  and  C_21 
REMARK       I    between atoms: C_18  and  N_22 
REMARK    8  A    between atoms: C_18  and  C_19 
REMARK    9  A    between atoms: C_19  and  C_21 
ROOT
HETATM    1  O           1     -20.741  -4.633  -5.930  0.00  0.00    -0.271 OA
HETATM    2  H           1     -21.653  -7.440  -6.991  0.00  0.00     0.163 HD
HETATM    3  C           1     -21.234  -5.437  -6.684  0.00  0.00     0.249 C 
HETATM    4  N           1     -21.239  -6.766  -6.359  0.00  0.00    -0.344 N 
ENDROOT
BRANCH   3   5
HETATM    5  C           1     -21.843  -4.975  -7.985  0.00  0.00     0.275 C 
BRANCH   5   6
HETATM    6  N           1     -23.097  -4.201  -7.702  0.00  0.00    -0.066 N 
HETATM    7  H           1     -23.199  -3.433  -8.403  0.00  0.00     0.275 HD
HETATM    8  H           1     -23.921  -4.840  -7.762  0.00  0.00     0.275 HD
HETATM    9  H           1     -23.042  -3.790  -6.742  0.00  0.00     0.275 HD
ENDBRANCH   5   6
BRANCH   5  10
HETATM   10  C           1     -20.853  -4.085  -8.724  0.00  0.00     0.053 C 
BRANCH  10  11
HETATM   11  C           1     -20.891  -4.408 -10.212  0.00  0.00     0.115 C 
BRANCH  11  12
HETATM   12  C           1     -21.835  -3.461 -10.910  0.00  0.00     0.172 C 
HETATM   13  O           1     -21.383  -2.558 -11.647  0.00  0.00    -0.648 OA
HETATM   14  O           1     -23.069  -3.579 -10.751  0.00  0.00    -0.648 OA
ENDBRANCH  11  12
ENDBRANCH  10  11
ENDBRANCH   5  10
ENDBRANCH   3   5
BRANCH   4  15
HETATM   15  C           1     -20.654  -7.209  -5.109  0.00  0.00     0.195 C 
BRANCH  15  16
HETATM   16  C           1     -21.762  -7.556  -4.125  0.00  0.00     0.149 C 
BRANCH  16  17
HETATM   17  C           1     -21.482  -6.895  -2.797  0.00  0.00     0.175 C 
HETATM   18  O           1     -20.617  -7.372  -2.031  0.00  0.00    -0.648 OA
HETATM   19  O           1     -22.115  -5.870  -2.463  0.00  0.00    -0.648 OA
ENDBRANCH  16  17
ENDBRANCH  15  16
BRANCH  15  20
HETATM   20  C           1     -19.801  -8.430  -5.358  0.00  0.00     0.197 C 
HETATM   21  O           1     -18.880  -8.386  -6.202  0.00  0.00    -0.646 OA
HETATM   22  O           1     -20.018  -9.483  -4.723  0.00  0.00    -0.646 OA
ENDBRANCH  15  20
ENDBRANCH   4  15
TORSDOF 9
ENDMDL
MODEL 9
REMARK VINA RESULT:      -5.3      1.782      5.598
REMARK  9 active torsions:
REMARK  status: ('A' for Active; 'I' for Inactive)
REMARK    1  A    between atoms: C_1  and  C_15 
REMARK    2  A    between atoms: N_3  and  C_19 
REMARK    3  A    between atoms: C_8  and  C_17 
REMARK    4  A    between atoms: C_8  and  C_9 
REMARK    5  A    between atoms: C_9  and  C_10 
REMARK    6  A    between atoms: C_9  and  N_22 
REMARK    7  A    between atoms: C_15  and  C_21 
REMARK       I    between atoms: C_18  and  N_22 
REMARK    8  A    between atoms: C_18  and  C_19 
REMARK    9  A    between atoms: C_19  and  C_21 
ROOT
HETATM    1  O           1     -28.861  -7.818 -16.943  0.00  0.00    -0.271 OA
HETATM    2  H           1     -27.562  -5.372 -18.415  0.00  0.00     0.163 HD
HETATM    3  C           1     -28.811  -6.761 -17.526  0.00  0.00     0.249 C 
HETATM    4  N           1     -27.603  -6.257 -17.926  0.00  0.00    -0.344 N 
ENDROOT
BRANCH   3   5
HETATM    5  C           1     -30.080  -5.997 -17.812  0.00  0.00     0.275 C 
BRANCH   5   6
HETATM    6  N           1     -30.809  -5.741 -16.526  0.00  0.00    -0.066 N 
HETATM    7  H           1     -31.029  -4.723 -16.446  0.00  0.00     0.275 HD
HETATM    8  H           1     -31.697  -6.291 -16.513  0.00  0.00     0.275 HD
HETATM    9  H           1     -30.208  -6.031 -15.721  0.00  0.00     0.275 HD
ENDBRANCH   5   6
BRANCH   5  10
HETATM   10  C           1     -29.738  -4.670 -18.474  0.00  0.00     0.053 C 
BRANCH  10  11
HETATM   11  C           1     -30.262  -3.524 -17.617  0.00  0.00     0.115 C 
BRANCH  11  12
HETATM   12  C           1     -29.107  -2.674 -17.150  0.00  0.00     0.172 C 
HETATM   13  O           1     -28.053  -3.216 -16.753  0.00  0.00    -0.648 OA
HETATM   14  O           1     -29.203  -1.428 -17.161  0.00  0.00    -0.648 OA
ENDBRANCH  11  12
ENDBRANCH  10  11
ENDBRANCH   5  10
ENDBRANCH   3   5
BRANCH   4  15
HETATM   15  C           1     -26.384  -6.991 -17.651  0.00  0.00     0.195 C 
BRANCH  15  16
HETATM   16  C           1     -25.317  -6.600 -18.665  0.00  0.00     0.149 C 
BRANCH  16  17
HETATM   17  C           1     -25.879  -6.721 -20.060  0.00  0.00     0.175 C 
HETATM   18  O           1     -25.447  -5.987 -20.975  0.00  0.00    -0.648 OA
HETATM   19  O           1     -26.778  -7.557 -20.301  0.00  0.00    -0.648 OA
ENDBRANCH  16  17
ENDBRANCH  15  16
BRANCH  15  20
HETATM   20  C           1     -25.902  -6.660 -16.260  0.00  0.00     0.197 C 
HETATM   21  O           1     -25.330  -5.571 -16.039  0.00  0.00    -0.646 OA
HETATM   22  O           1     -26.074  -7.476 -15.329  0.00  0.00    -0.646 OA
ENDBRANCH  15  20
ENDBRANCH   4  15
TORSDOF 9
ENDMDL
