MODEL 1
REMARK VINA RESULT:      -6.7      0.000      0.000
REMARK  9 active torsions:
REMARK  status: ('A' for Active; 'I' for Inactive)
REMARK    1  A    between atoms: C_1  and  C_15 
REMARK    2  A    between atoms: C_1  and  C_8 
REMARK    3  A    between atoms: C_3  and  C_4 
REMARK    4  A    between atoms: C_4  and  C_8 
REMARK    5  A    between atoms: C_4  and  N_10 
REMARK    6  A    between atoms: C_5  and  C_6 
REMARK    7  A    between atoms: C_5  and  C_18 
REMARK    8  A    between atoms: C_6  and  C_7 
REMARK    9  A    between atoms: C_6  and  N_20 
REMARK       I    between atoms: C_7  and  N_10 
ROOT
HETATM    1  C           1     -26.233  -6.265 -17.989  0.00  0.00     0.249 C 
HETATM    2  H           1     -27.512  -6.997 -19.443  0.00  0.00     0.163 HD
HETATM    3  N           1     -27.455  -6.552 -18.536  0.00  0.00    -0.345 N 
HETATM    4  O           1     -26.166  -5.734 -16.906  0.00  0.00    -0.271 OA
ENDROOT
BRANCH   1   5
HETATM    5  C           1     -24.970  -6.610 -18.740  0.00  0.00     0.278 C 
BRANCH   5   6
HETATM    6  C           1     -25.330  -7.140 -20.122  0.00  0.00     0.021 C 
HETATM    7  C           1     -25.496  -5.973 -21.085  0.00  0.00     0.012 C 
BRANCH   6   8
HETATM    8  C           1     -24.219  -8.054 -20.619  0.00  0.00     0.002 C 
HETATM    9  C           1     -24.082  -7.912 -22.129  0.00  0.00     0.005 C 
ENDBRANCH   6   8
ENDBRANCH   5   6
BRANCH   5  10
HETATM   10  N           1     -24.210  -7.659 -17.984  0.00  0.00    -0.066 N 
HETATM   11  H           1     -23.555  -8.150 -18.634  0.00  0.00     0.275 HD
HETATM   12  H           1     -24.881  -8.350 -17.578  0.00  0.00     0.275 HD
HETATM   13  H           1     -23.666  -7.209 -17.214  0.00  0.00     0.275 HD
ENDBRANCH   5  10
ENDBRANCH   1   5
BRANCH   3  14
HETATM   14  C           1     -28.668  -6.220 -17.815  0.00  0.00     0.186 C 
BRANCH  14  15
HETATM   15  C           1     -29.588  -7.416 -17.801  0.00  0.00     0.196 C 
HETATM   16  O           1     -30.517  -7.501 -18.633  0.00  0.00    -0.646 OA
HETATM   17  O           1     -29.421  -8.323 -16.957  0.00  0.00    -0.646 OA
ENDBRANCH  14  15
BRANCH  14  18
HETATM   18  C           1     -29.363  -5.051 -18.500  0.00  0.00     0.046 C 
BRANCH  18  19
HETATM   19  C           1     -29.748  -4.007 -17.460  0.00  0.00     0.116 C 
BRANCH  19  20
HETATM   20  C           1     -31.251  -3.949 -17.337  0.00  0.00     0.172 C 
HETATM   21  O           1     -31.876  -2.963 -17.781  0.00  0.00    -0.648 OA
HETATM   22  O           1     -31.870  -4.888 -16.791  0.00  0.00    -0.648 OA
ENDBRANCH  19  20
ENDBRANCH  18  19
ENDBRANCH  14  18
ENDBRANCH   3  14
TORSDOF 9
ENDMDL
MODEL 2
REMARK VINA RESULT:      -6.7      9.693     11.230
REMARK  9 active torsions:
REMARK  status: ('A' for Active; 'I' for Inactive)
REMARK    1  A    between atoms: C_1  and  C_15 
REMARK    2  A    between atoms: C_1  and  C_8 
REMARK    3  A    between atoms: C_3  and  C_4 
REMARK    4  A    between atoms: C_4  and  C_8 
REMARK    5  A    between atoms: C_4  and  N_10 
REMARK    6  A    between atoms: C_5  and  C_6 
REMARK    7  A    between atoms: C_5  and  C_18 
REMARK    8  A    between atoms: C_6  and  C_7 
REMARK    9  A    between atoms: C_6  and  N_20 
REMARK       I    between atoms: C_7  and  N_10 
ROOT
HETATM    1  C           1     -34.290  -2.326 -11.725  0.00  0.00     0.249 C 
HETATM    2  H           1     -35.794  -2.409 -13.146  0.00  0.00     0.163 HD
HETATM    3  N           1     -35.315  -1.817 -12.479  0.00  0.00    -0.345 N 
HETATM    4  O           1     -33.720  -1.619 -10.928  0.00  0.00    -0.271 OA
ENDROOT
BRANCH   1   5
HETATM    5  C           1     -33.875  -3.767 -11.890  0.00  0.00     0.278 C 
BRANCH   5   6
HETATM    6  C           1     -34.355  -4.574 -10.692  0.00  0.00     0.021 C 
HETATM    7  C           1     -35.875  -4.516 -10.617  0.00  0.00     0.012 C 
BRANCH   6   8
HETATM    8  C           1     -33.910  -6.022 -10.844  0.00  0.00     0.002 C 
HETATM    9  C           1     -34.771  -6.914  -9.960  0.00  0.00     0.005 C 
ENDBRANCH   6   8
ENDBRANCH   5   6
BRANCH   5  10
HETATM   10  N           1     -32.380  -3.849 -11.981  0.00  0.00    -0.066 N 
HETATM   11  H           1     -31.996  -2.913 -12.244  0.00  0.00     0.275 HD
HETATM   12  H           1     -32.114  -4.552 -12.708  0.00  0.00     0.275 HD
HETATM   13  H           1     -31.989  -4.139 -11.057  0.00  0.00     0.275 HD
ENDBRANCH   5  10
ENDBRANCH   1   5
BRANCH   3  14
HETATM   14  C           1     -35.714  -0.433 -12.320  0.00  0.00     0.186 C 
BRANCH  14  15
HETATM   15  C           1     -36.677  -0.316 -11.165  0.00  0.00     0.196 C 
HETATM   16  O           1     -37.689  -1.049 -11.117  0.00  0.00    -0.646 OA
HETATM   17  O           1     -36.463   0.514 -10.255  0.00  0.00    -0.646 OA
ENDBRANCH  14  15
BRANCH  14  18
HETATM   18  C           1     -36.390   0.050 -13.597  0.00  0.00     0.046 C 
BRANCH  18  19
HETATM   19  C           1     -35.343   0.240 -14.686  0.00  0.00     0.116 C 
BRANCH  19  20
HETATM   20  C           1     -35.582  -0.758 -15.793  0.00  0.00     0.172 C 
HETATM   21  O           1     -36.210  -0.415 -16.818  0.00  0.00    -0.648 OA
HETATM   22  O           1     -35.152  -1.927 -15.685  0.00  0.00    -0.648 OA
ENDBRANCH  19  20
ENDBRANCH  18  19
ENDBRANCH  14  18
ENDBRANCH   3  14
TORSDOF 9
ENDMDL
MODEL 3
REMARK VINA RESULT:      -6.6      9.985     11.593
REMARK  9 active torsions:
REMARK  status: ('A' for Active; 'I' for Inactive)
REMARK    1  A    between atoms: C_1  and  C_15 
REMARK    2  A    between atoms: C_1  and  C_8 
REMARK    3  A    between atoms: C_3  and  C_4 
REMARK    4  A    between atoms: C_4  and  C_8 
REMARK    5  A    between atoms: C_4  and  N_10 
REMARK    6  A    between atoms: C_5  and  C_6 
REMARK    7  A    between atoms: C_5  and  C_18 
REMARK    8  A    between atoms: C_6  and  C_7 
REMARK    9  A    between atoms: C_6  and  N_20 
REMARK       I    between atoms: C_7  and  N_10 
ROOT
HETATM    1  C           1     -34.392  -2.360 -12.412  0.00  0.00     0.249 C 
HETATM    2  H           1     -34.949  -0.621 -11.436  0.00  0.00     0.163 HD
HETATM    3  N           1     -35.067  -1.176 -12.274  0.00  0.00    -0.345 N 
HETATM    4  O           1     -34.533  -3.022 -13.413  0.00  0.00    -0.271 OA
ENDROOT
BRANCH   1   5
HETATM    5  C           1     -33.473  -2.837 -11.315  0.00  0.00     0.278 C 
BRANCH   5   6
HETATM    6  C           1     -34.097  -4.036 -10.615  0.00  0.00     0.021 C 
HETATM    7  C           1     -35.608  -4.001 -10.798  0.00  0.00     0.012 C 
BRANCH   6   8
HETATM    8  C           1     -33.543  -5.320 -11.216  0.00  0.00     0.002 C 
HETATM    9  C           1     -34.268  -6.517 -10.616  0.00  0.00     0.005 C 
ENDBRANCH   6   8
ENDBRANCH   5   6
BRANCH   5  10
HETATM   10  N           1     -33.263  -1.732 -10.323  0.00  0.00    -0.066 N 
HETATM   11  H           1     -33.267  -0.813 -10.820  0.00  0.00     0.275 HD
HETATM   12  H           1     -32.344  -1.865  -9.843  0.00  0.00     0.275 HD
HETATM   13  H           1     -34.031  -1.748  -9.614  0.00  0.00     0.275 HD
ENDBRANCH   5  10
ENDBRANCH   1   5
BRANCH   3  14
HETATM   14  C           1     -35.950  -0.717 -13.329  0.00  0.00     0.186 C 
BRANCH  14  15
HETATM   15  C           1     -35.191   0.200 -14.256  0.00  0.00     0.196 C 
HETATM   16  O           1     -34.859   1.342 -13.873  0.00  0.00    -0.646 OA
HETATM   17  O           1     -34.896  -0.183 -15.409  0.00  0.00    -0.646 OA
ENDBRANCH  14  15
BRANCH  14  18
HETATM   18  C           1     -37.124   0.035 -12.717  0.00  0.00     0.046 C 
BRANCH  18  19
HETATM   19  C           1     -37.538  -0.640 -11.416  0.00  0.00     0.116 C 
BRANCH  19  20
HETATM   20  C           1     -37.060   0.186 -10.246  0.00  0.00     0.172 C 
HETATM   21  O           1     -36.034  -0.153  -9.620  0.00  0.00    -0.648 OA
HETATM   22  O           1     -37.692   1.210  -9.904  0.00  0.00    -0.648 OA
ENDBRANCH  19  20
ENDBRANCH  18  19
ENDBRANCH  14  18
ENDBRANCH   3  14
TORSDOF 9
ENDMDL
MODEL 4
REMARK VINA RESULT:      -6.0     13.172     14.853
REMARK  9 active torsions:
REMARK  status: ('A' for Active; 'I' for Inactive)
REMARK    1  A    between atoms: C_1  and  C_15 
REMARK    2  A    between atoms: C_1  and  C_8 
REMARK    3  A    between atoms: C_3  and  C_4 
REMARK    4  A    between atoms: C_4  and  C_8 
REMARK    5  A    between atoms: C_4  and  N_10 
REMARK    6  A    between atoms: C_5  and  C_6 
REMARK    7  A    between atoms: C_5  and  C_18 
REMARK    8  A    between atoms: C_6  and  C_7 
REMARK    9  A    between atoms: C_6  and  N_20 
REMARK       I    between atoms: C_7  and  N_10 
ROOT
HETATM    1  C           1     -21.523  -5.090  -6.854  0.00  0.00     0.249 C 
HETATM    2  H           1     -21.876  -7.130  -6.887  0.00  0.00     0.163 HD
HETATM    3  N           1     -21.462  -6.368  -6.365  0.00  0.00    -0.345 N 
HETATM    4  O           1     -21.028  -4.181  -6.232  0.00  0.00    -0.271 OA
ENDROOT
BRANCH   1   5
HETATM    5  C           1     -22.210  -4.818  -8.170  0.00  0.00     0.278 C 
BRANCH   5   6
HETATM    6  C           1     -21.320  -3.937  -9.035  0.00  0.00     0.021 C 
HETATM    7  C           1     -20.055  -4.700  -9.404  0.00  0.00     0.012 C 
BRANCH   6   8
HETATM    8  C           1     -22.068  -3.550 -10.304  0.00  0.00     0.002 C 
HETATM    9  C           1     -21.260  -3.980 -11.521  0.00  0.00     0.005 C 
ENDBRANCH   6   8
ENDBRANCH   5   6
BRANCH   5  10
HETATM   10  N           1     -23.513  -4.119  -7.919  0.00  0.00    -0.066 N 
HETATM   11  H           1     -23.731  -3.490  -8.725  0.00  0.00     0.275 HD
HETATM   12  H           1     -23.440  -3.552  -7.043  0.00  0.00     0.275 HD
HETATM   13  H           1     -24.275  -4.826  -7.812  0.00  0.00     0.275 HD
ENDBRANCH   5  10
ENDBRANCH   1   5
BRANCH   3  14
HETATM   14  C           1     -20.802  -6.630  -5.101  0.00  0.00     0.186 C 
BRANCH  14  15
HETATM   15  C           1     -19.902  -7.832  -5.244  0.00  0.00     0.196 C 
HETATM   16  O           1     -19.893  -8.716  -4.360  0.00  0.00    -0.646 OA
HETATM   17  O           1     -19.163  -7.944  -6.247  0.00  0.00    -0.646 OA
ENDBRANCH  14  15
BRANCH  14  18
HETATM   18  C           1     -21.848  -6.902  -4.029  0.00  0.00     0.046 C 
BRANCH  18  19
HETATM   19  C           1     -21.507  -6.110  -2.773  0.00  0.00     0.116 C 
BRANCH  19  20
HETATM   20  C           1     -21.764  -6.964  -1.555  0.00  0.00     0.172 C 
HETATM   21  O           1     -20.965  -7.876  -1.252  0.00  0.00    -0.648 OA
HETATM   22  O           1     -22.775  -6.758  -0.850  0.00  0.00    -0.648 OA
ENDBRANCH  19  20
ENDBRANCH  18  19
ENDBRANCH  14  18
ENDBRANCH   3  14
TORSDOF 9
ENDMDL
MODEL 5
REMARK VINA RESULT:      -6.0      9.316     11.750
REMARK  9 active torsions:
REMARK  status: ('A' for Active; 'I' for Inactive)
REMARK    1  A    between atoms: C_1  and  C_15 
REMARK    2  A    between atoms: C_1  and  C_8 
REMARK    3  A    between atoms: C_3  and  C_4 
REMARK    4  A    between atoms: C_4  and  C_8 
REMARK    5  A    between atoms: C_4  and  N_10 
REMARK    6  A    between atoms: C_5  and  C_6 
REMARK    7  A    between atoms: C_5  and  C_18 
REMARK    8  A    between atoms: C_6  and  C_7 
REMARK    9  A    between atoms: C_6  and  N_20 
REMARK       I    between atoms: C_7  and  N_10 
ROOT
HETATM    1  C           1     -35.256  -1.846 -10.991  0.00  0.00     0.249 C 
HETATM    2  H           1     -35.978  -3.366 -12.197  0.00  0.00     0.163 HD
HETATM    3  N           1     -35.257  -3.102 -11.539  0.00  0.00    -0.345 N 
HETATM    4  O           1     -34.393  -1.532 -10.205  0.00  0.00    -0.271 OA
ENDROOT
BRANCH   1   5
HETATM    5  C           1     -36.331  -0.858 -11.367  0.00  0.00     0.278 C 
BRANCH   5   6
HETATM    6  C           1     -36.208  -0.512 -12.845  0.00  0.00     0.021 C 
HETATM    7  C           1     -37.557  -0.037 -13.368  0.00  0.00     0.012 C 
BRANCH   6   8
HETATM    8  C           1     -35.177   0.594 -13.023  0.00  0.00     0.002 C 
HETATM    9  C           1     -35.083   0.968 -14.496  0.00  0.00     0.005 C 
ENDBRANCH   6   8
ENDBRANCH   5   6
BRANCH   5  10
HETATM   10  N           1     -36.174   0.389 -10.547  0.00  0.00    -0.066 N 
HETATM   11  H           1     -36.709   0.287  -9.655  0.00  0.00     0.275 HD
HETATM   12  H           1     -36.543   1.207 -11.084  0.00  0.00     0.275 HD
HETATM   13  H           1     -35.163   0.540 -10.332  0.00  0.00     0.275 HD
ENDBRANCH   5  10
ENDBRANCH   1   5
BRANCH   3  14
HETATM   14  C           1     -34.223  -4.052 -11.177  0.00  0.00     0.186 C 
BRANCH  14  15
HETATM   15  C           1     -33.222  -4.159 -12.301  0.00  0.00     0.196 C 
HETATM   16  O           1     -32.031  -4.446 -12.054  0.00  0.00    -0.646 OA
HETATM   17  O           1     -33.585  -3.959 -13.481  0.00  0.00    -0.646 OA
ENDBRANCH  14  15
BRANCH  14  18
HETATM   18  C           1     -34.852  -5.415 -10.925  0.00  0.00     0.046 C 
BRANCH  18  19
HETATM   19  C           1     -33.756  -6.447 -10.694  0.00  0.00     0.116 C 
BRANCH  19  20
HETATM   20  C           1     -34.359  -7.697 -10.101  0.00  0.00     0.172 C 
HETATM   21  O           1     -33.691  -8.752 -10.058  0.00  0.00    -0.648 OA
HETATM   22  O           1     -35.526  -7.678  -9.653  0.00  0.00    -0.648 OA
ENDBRANCH  19  20
ENDBRANCH  18  19
ENDBRANCH  14  18
ENDBRANCH   3  14
TORSDOF 9
ENDMDL
MODEL 6
REMARK VINA RESULT:      -5.8      2.367      6.226
REMARK  9 active torsions:
REMARK  status: ('A' for Active; 'I' for Inactive)
REMARK    1  A    between atoms: C_1  and  C_15 
REMARK    2  A    between atoms: C_1  and  C_8 
REMARK    3  A    between atoms: C_3  and  C_4 
REMARK    4  A    between atoms: C_4  and  C_8 
REMARK    5  A    between atoms: C_4  and  N_10 
REMARK    6  A    between atoms: C_5  and  C_6 
REMARK    7  A    between atoms: C_5  and  C_18 
REMARK    8  A    between atoms: C_6  and  C_7 
REMARK    9  A    between atoms: C_6  and  N_20 
REMARK       I    between atoms: C_7  and  N_10 
ROOT
HETATM    1  C           1     -27.954  -6.029 -16.744  0.00  0.00     0.249 C 
HETATM    2  H           1     -26.755  -5.020 -18.097  0.00  0.00     0.163 HD
HETATM    3  N           1     -26.872  -5.875 -17.570  0.00  0.00    -0.345 N 
HETATM    4  O           1     -28.093  -7.050 -16.115  0.00  0.00    -0.271 OA
ENDROOT
BRANCH   1   5
HETATM    5  C           1     -28.973  -4.922 -16.622  0.00  0.00     0.278 C 
BRANCH   5   6
HETATM    6  C           1     -30.053  -5.107 -17.679  0.00  0.00     0.021 C 
HETATM    7  C           1     -30.842  -6.374 -17.381  0.00  0.00     0.012 C 
BRANCH   6   8
HETATM    8  C           1     -30.992  -3.908 -17.659  0.00  0.00     0.002 C 
HETATM    9  C           1     -32.253  -4.264 -16.884  0.00  0.00     0.005 C 
ENDBRANCH   6   8
ENDBRANCH   5   6
BRANCH   5  10
HETATM   10  N           1     -28.298  -3.597 -16.823  0.00  0.00    -0.066 N 
HETATM   11  H           1     -28.789  -2.868 -16.257  0.00  0.00     0.275 HD
HETATM   12  H           1     -28.335  -3.338 -17.835  0.00  0.00     0.275 HD
HETATM   13  H           1     -27.301  -3.663 -16.517  0.00  0.00     0.275 HD
ENDBRANCH   5  10
ENDBRANCH   1   5
BRANCH   3  14
HETATM   14  C           1     -25.893  -6.939 -17.687  0.00  0.00     0.186 C 
BRANCH  14  15
HETATM   15  C           1     -24.983  -6.919 -16.484  0.00  0.00     0.196 C 
HETATM   16  O           1     -24.828  -5.864 -15.833  0.00  0.00    -0.646 OA
HETATM   17  O           1     -24.383  -7.960 -16.139  0.00  0.00    -0.646 OA
ENDBRANCH  14  15
BRANCH  14  18
HETATM   18  C           1     -25.070  -6.733 -18.952  0.00  0.00     0.046 C 
BRANCH  18  19
HETATM   19  C           1     -25.991  -6.736 -20.165  0.00  0.00     0.116 C 
BRANCH  19  20
HETATM   20  C           1     -25.636  -7.894 -21.065  0.00  0.00     0.172 C 
HETATM   21  O           1     -26.526  -8.682 -21.449  0.00  0.00    -0.648 OA
HETATM   22  O           1     -24.451  -8.065 -21.425  0.00  0.00    -0.648 OA
ENDBRANCH  19  20
ENDBRANCH  18  19
ENDBRANCH  14  18
ENDBRANCH   3  14
TORSDOF 9
ENDMDL
MODEL 7
REMARK VINA RESULT:      -5.5     15.877     17.785
REMARK  9 active torsions:
REMARK  status: ('A' for Active; 'I' for Inactive)
REMARK    1  A    between atoms: C_1  and  C_15 
REMARK    2  A    between atoms: C_1  and  C_8 
REMARK    3  A    between atoms: C_3  and  C_4 
REMARK    4  A    between atoms: C_4  and  C_8 
REMARK    5  A    between atoms: C_4  and  N_10 
REMARK    6  A    between atoms: C_5  and  C_6 
REMARK    7  A    between atoms: C_5  and  C_18 
REMARK    8  A    between atoms: C_6  and  C_7 
REMARK    9  A    between atoms: C_6  and  N_20 
REMARK       I    between atoms: C_7  and  N_10 
ROOT
HETATM    1  C           1     -21.155  -8.724  -2.207  0.00  0.00     0.249 C 
HETATM    2  H           1     -20.559  -7.043  -3.260  0.00  0.00     0.163 HD
HETATM    3  N           1     -20.754  -8.034  -3.321  0.00  0.00    -0.345 N 
HETATM    4  O           1     -21.387  -9.907  -2.281  0.00  0.00    -0.271 OA
ENDROOT
BRANCH   1   5
HETATM    5  C           1     -21.306  -8.005  -0.889  0.00  0.00     0.278 C 
BRANCH   5   6
HETATM    6  C           1     -21.751  -8.993   0.180  0.00  0.00     0.021 C 
HETATM    7  C           1     -21.077  -8.648   1.501  0.00  0.00     0.012 C 
BRANCH   6   8
HETATM    8  C           1     -23.262  -8.915   0.346  0.00  0.00     0.002 C 
HETATM    9  C           1     -23.877 -10.275   0.042  0.00  0.00     0.005 C 
ENDBRANCH   6   8
ENDBRANCH   5   6
BRANCH   5  10
HETATM   10  N           1     -22.332  -6.920  -1.026  0.00  0.00    -0.066 N 
HETATM   11  H           1     -22.716  -6.926  -1.998  0.00  0.00     0.275 HD
HETATM   12  H           1     -21.888  -5.994  -0.832  0.00  0.00     0.275 HD
HETATM   13  H           1     -23.107  -7.084  -0.344  0.00  0.00     0.275 HD
ENDBRANCH   5  10
ENDBRANCH   1   5
BRANCH   3  14
HETATM   14  C           1     -20.609  -8.725  -4.588  0.00  0.00     0.186 C 
BRANCH  14  15
HETATM   15  C           1     -19.145  -8.955  -4.870  0.00  0.00     0.196 C 
HETATM   16  O           1     -18.342  -9.110  -3.924  0.00  0.00    -0.646 OA
HETATM   17  O           1     -18.734  -8.992  -6.050  0.00  0.00    -0.646 OA
ENDBRANCH  14  15
BRANCH  14  18
HETATM   18  C           1     -21.214  -7.878  -5.700  0.00  0.00     0.046 C 
BRANCH  18  19
HETATM   19  C           1     -21.115  -6.405  -5.329  0.00  0.00     0.116 C 
BRANCH  19  20
HETATM   20  C           1     -20.261  -5.686  -6.345  0.00  0.00     0.172 C 
HETATM   21  O           1     -19.854  -4.528  -6.112  0.00  0.00    -0.648 OA
HETATM   22  O           1     -19.960  -6.250  -7.420  0.00  0.00    -0.648 OA
ENDBRANCH  19  20
ENDBRANCH  18  19
ENDBRANCH  14  18
ENDBRANCH   3  14
TORSDOF 9
ENDMDL
MODEL 8
REMARK VINA RESULT:      -5.5     13.501     15.441
REMARK  9 active torsions:
REMARK  status: ('A' for Active; 'I' for Inactive)
REMARK    1  A    between atoms: C_1  and  C_15 
REMARK    2  A    between atoms: C_1  and  C_8 
REMARK    3  A    between atoms: C_3  and  C_4 
REMARK    4  A    between atoms: C_4  and  C_8 
REMARK    5  A    between atoms: C_4  and  N_10 
REMARK    6  A    between atoms: C_5  and  C_6 
REMARK    7  A    between atoms: C_5  and  C_18 
REMARK    8  A    between atoms: C_6  and  C_7 
REMARK    9  A    between atoms: C_6  and  N_20 
REMARK       I    between atoms: C_7  and  N_10 
ROOT
HETATM    1  C           1     -21.712  -5.537  -5.857  0.00  0.00     0.249 C 
HETATM    2  H           1     -19.957  -6.334  -5.100  0.00  0.00     0.163 HD
HETATM    3  N           1     -20.968  -6.381  -5.075  0.00  0.00    -0.345 N 
HETATM    4  O           1     -22.918  -5.593  -5.826  0.00  0.00    -0.271 OA
ENDROOT
BRANCH   1   5
HETATM    5  C           1     -21.025  -4.539  -6.756  0.00  0.00     0.278 C 
BRANCH   5   6
HETATM    6  C           1     -21.390  -4.826  -8.206  0.00  0.00     0.021 C 
HETATM    7  C           1     -22.393  -3.787  -8.691  0.00  0.00     0.012 C 
BRANCH   6   8
HETATM    8  C           1     -20.137  -4.762  -9.067  0.00  0.00     0.002 C 
HETATM    9  C           1     -20.502  -4.266 -10.460  0.00  0.00     0.005 C 
ENDBRANCH   6   8
ENDBRANCH   5   6
BRANCH   5  10
HETATM   10  N           1     -19.539  -4.651  -6.583  0.00  0.00    -0.066 N 
HETATM   11  H           1     -19.095  -3.728  -6.794  0.00  0.00     0.275 HD
HETATM   12  H           1     -19.166  -5.375  -7.238  0.00  0.00     0.275 HD
HETATM   13  H           1     -19.321  -4.926  -5.599  0.00  0.00     0.275 HD
ENDBRANCH   5  10
ENDBRANCH   1   5
BRANCH   3  14
HETATM   14  C           1     -21.628  -7.340  -4.211  0.00  0.00     0.186 C 
BRANCH  14  15
HETATM   15  C           1     -21.611  -6.832  -2.791  0.00  0.00     0.196 C 
HETATM   16  O           1     -20.803  -7.309  -1.965  0.00  0.00    -0.646 OA
HETATM   17  O           1     -22.405  -5.932  -2.439  0.00  0.00    -0.646 OA
ENDBRANCH  14  15
BRANCH  14  18
HETATM   18  C           1     -20.898  -8.674  -4.283  0.00  0.00     0.046 C 
BRANCH  18  19
HETATM   19  C           1     -19.595  -8.501  -5.052  0.00  0.00     0.116 C 
BRANCH  19  20
HETATM   20  C           1     -18.911  -9.839  -5.192  0.00  0.00     0.172 C 
HETATM   21  O           1     -18.765 -10.351  -6.323  0.00  0.00    -0.648 OA
HETATM   22  O           1     -18.491 -10.436  -4.177  0.00  0.00    -0.648 OA
ENDBRANCH  19  20
ENDBRANCH  18  19
ENDBRANCH  14  18
ENDBRANCH   3  14
TORSDOF 9
ENDMDL
MODEL 9
REMARK VINA RESULT:      -5.4     17.170     18.793
REMARK  9 active torsions:
REMARK  status: ('A' for Active; 'I' for Inactive)
REMARK    1  A    between atoms: C_1  and  C_15 
REMARK    2  A    between atoms: C_1  and  C_8 
REMARK    3  A    between atoms: C_3  and  C_4 
REMARK    4  A    between atoms: C_4  and  C_8 
REMARK    5  A    between atoms: C_4  and  N_10 
REMARK    6  A    between atoms: C_5  and  C_6 
REMARK    7  A    between atoms: C_5  and  C_18 
REMARK    8  A    between atoms: C_6  and  C_7 
REMARK    9  A    between atoms: C_6  and  N_20 
REMARK       I    between atoms: C_7  and  N_10 
ROOT
HETATM    1  C           1     -21.367 -10.125  -0.652  0.00  0.00     0.249 C 
HETATM    2  H           1     -22.177  -9.565  -2.473  0.00  0.00     0.163 HD
HETATM    3  N           1     -21.642  -9.254  -1.672  0.00  0.00    -0.345 N 
HETATM    4  O           1     -20.729  -9.753   0.304  0.00  0.00    -0.271 OA
ENDROOT
BRANCH   1   5
HETATM    5  C           1     -21.861 -11.549  -0.722  0.00  0.00     0.278 C 
BRANCH   5   6
HETATM    6  C           1     -22.953 -11.761   0.317  0.00  0.00     0.021 C 
HETATM    7  C           1     -24.198 -10.984  -0.090  0.00  0.00     0.012 C 
BRANCH   6   8
HETATM    8  C           1     -23.287 -13.243   0.408  0.00  0.00     0.002 C 
HETATM    9  C           1     -23.281 -13.677   1.868  0.00  0.00     0.005 C 
ENDBRANCH   6   8
ENDBRANCH   5   6
BRANCH   5  10
HETATM   10  N           1     -20.722 -12.487  -0.449  0.00  0.00    -0.066 N 
HETATM   11  H           1     -20.352 -12.313   0.512  0.00  0.00     0.275 HD
HETATM   12  H           1     -19.963 -12.326  -1.150  0.00  0.00     0.275 HD
HETATM   13  H           1     -21.058 -13.474  -0.520  0.00  0.00     0.275 HD
ENDBRANCH   5  10
ENDBRANCH   1   5
BRANCH   3  14
HETATM   14  C           1     -21.168  -7.885  -1.605  0.00  0.00     0.186 C 
BRANCH  14  15
HETATM   15  C           1     -22.307  -6.978  -1.208  0.00  0.00     0.196 C 
HETATM   16  O           1     -22.517  -5.923  -1.844  0.00  0.00    -0.646 OA
HETATM   17  O           1     -23.040  -7.282  -0.242  0.00  0.00    -0.646 OA
ENDBRANCH  14  15
BRANCH  14  18
HETATM   18  C           1     -20.634  -7.465  -2.967  0.00  0.00     0.046 C 
BRANCH  18  19
HETATM   19  C           1     -21.296  -8.302  -4.054  0.00  0.00     0.116 C 
BRANCH  19  20
HETATM   20  C           1     -21.694  -7.410  -5.204  0.00  0.00     0.172 C 
HETATM   21  O           1     -22.610  -6.573  -5.057  0.00  0.00    -0.648 OA
HETATM   22  O           1     -21.107  -7.508  -6.304  0.00  0.00    -0.648 OA
ENDBRANCH  19  20
ENDBRANCH  18  19
ENDBRANCH  14  18
ENDBRANCH   3  14
TORSDOF 9
ENDMDL
