MODEL 1
REMARK VINA RESULT:      -5.8      0.000      0.000
REMARK  8 active torsions:
REMARK  status: ('A' for Active; 'I' for Inactive)
REMARK    1  A    between atoms: C_1  and  C_5 
REMARK    2  A    between atoms: C_1  and  C_2 
REMARK    3  A    between atoms: C_2  and  C_12 
REMARK    4  A    between atoms: C_2  and  N_9 
REMARK    5  A    between atoms: O_7  and  C_8 
REMARK    6  A    between atoms: C_8  and  C_14 
REMARK       I    between atoms: N_9  and  C_10 
REMARK    7  A    between atoms: C_10  and  C_14 
REMARK    8  A    between atoms: C_14  and  N_16 
ROOT
HETATM    1  N           1     -27.150  -6.669 -18.718  0.00  0.00    -0.344 N 
HETATM    2  C           1     -26.561  -6.404 -19.925  0.00  0.00     0.251 C 
HETATM    3  O           1     -27.128  -5.707 -20.732  0.00  0.00    -0.271 OA
HETATM    4  H           1     -26.676  -7.253 -18.041  0.00  0.00     0.163 HD
ENDROOT
BRANCH   1   5
HETATM    5  C           1     -28.453  -6.113 -18.409  0.00  0.00     0.195 C 
BRANCH   5   6
HETATM    6  C           1     -29.298  -7.164 -17.702  0.00  0.00     0.149 C 
BRANCH   6   7
HETATM    7  C           1     -30.008  -8.013 -18.727  0.00  0.00     0.175 C 
HETATM    8  O           1     -29.349  -8.735 -19.507  0.00  0.00    -0.648 OA
HETATM    9  O           1     -31.256  -7.996 -18.797  0.00  0.00    -0.648 OA
ENDBRANCH   6   7
ENDBRANCH   5   6
BRANCH   5  10
HETATM   10  C           1     -28.287  -4.913 -17.510  0.00  0.00     0.197 C 
HETATM   11  O           1     -27.370  -4.890 -16.659  0.00  0.00    -0.646 OA
HETATM   12  O           1     -29.064  -3.940 -17.616  0.00  0.00    -0.646 OA
ENDBRANCH   5  10
ENDBRANCH   1   5
BRANCH   2  13
HETATM   13  C           1     -25.205  -6.982 -20.246  0.00  0.00     0.297 C 
BRANCH  13  14
HETATM   14  C           1     -25.367  -8.159 -21.199  0.00  0.00     0.206 C 
BRANCH  14  15
HETATM   15  O           1     -26.700  -8.593 -21.184  0.00  0.00    -0.398 OA
HETATM   16  H           1     -26.811  -9.111 -20.406  0.00  0.00     0.209 HD
ENDBRANCH  14  15
ENDBRANCH  13  14
BRANCH  13  17
HETATM   17  N           1     -24.550  -7.452 -18.981  0.00  0.00    -0.064 N 
HETATM   18  H           1     -23.611  -7.853 -19.202  0.00  0.00     0.275 HD
HETATM   19  H           1     -24.438  -6.644 -18.327  0.00  0.00     0.275 HD
HETATM   20  H           1     -25.145  -8.184 -18.531  0.00  0.00     0.275 HD
ENDBRANCH  13  17
ENDBRANCH   2  13
TORSDOF 8
ENDMDL
MODEL 2
REMARK VINA RESULT:      -5.7     10.372     11.904
REMARK  8 active torsions:
REMARK  status: ('A' for Active; 'I' for Inactive)
REMARK    1  A    between atoms: C_1  and  C_5 
REMARK    2  A    between atoms: C_1  and  C_2 
REMARK    3  A    between atoms: C_2  and  C_12 
REMARK    4  A    between atoms: C_2  and  N_9 
REMARK    5  A    between atoms: O_7  and  C_8 
REMARK    6  A    between atoms: C_8  and  C_14 
REMARK       I    between atoms: N_9  and  C_10 
REMARK    7  A    between atoms: C_10  and  C_14 
REMARK    8  A    between atoms: C_14  and  N_16 
ROOT
HETATM    1  N           1     -35.861  -1.136 -13.270  0.00  0.00    -0.344 N 
HETATM    2  C           1     -35.505  -0.195 -14.197  0.00  0.00     0.251 C 
HETATM    3  O           1     -34.449   0.383 -14.096  0.00  0.00    -0.271 OA
HETATM    4  H           1     -36.746  -1.621 -13.355  0.00  0.00     0.163 HD
ENDROOT
BRANCH   1   5
HETATM    5  C           1     -34.971  -1.441 -12.167  0.00  0.00     0.195 C 
BRANCH   5   6
HETATM    6  C           1     -35.786  -1.629 -10.894  0.00  0.00     0.149 C 
BRANCH   6   7
HETATM    7  C           1     -36.854  -0.565 -10.818  0.00  0.00     0.175 C 
HETATM    8  O           1     -36.550   0.603 -10.490  0.00  0.00    -0.648 OA
HETATM    9  O           1     -38.041  -0.852 -11.081  0.00  0.00    -0.648 OA
ENDBRANCH   6   7
ENDBRANCH   5   6
BRANCH   5  10
HETATM   10  C           1     -34.211  -2.708 -12.470  0.00  0.00     0.197 C 
HETATM   11  O           1     -33.380  -3.151 -11.646  0.00  0.00    -0.646 OA
HETATM   12  O           1     -34.411  -3.317 -13.543  0.00  0.00    -0.646 OA
ENDBRANCH   5  10
ENDBRANCH   1   5
BRANCH   2  13
HETATM   13  C           1     -36.431   0.121 -15.346  0.00  0.00     0.297 C 
BRANCH  13  14
HETATM   14  C           1     -36.155  -0.834 -16.499  0.00  0.00     0.206 C 
BRANCH  14  15
HETATM   15  O           1     -35.225  -1.801 -16.094  0.00  0.00    -0.398 OA
HETATM   16  H           1     -35.091  -1.682 -15.169  0.00  0.00     0.209 HD
ENDBRANCH  14  15
ENDBRANCH  13  14
BRANCH  13  17
HETATM   17  N           1     -36.200   1.532 -15.800  0.00  0.00    -0.064 N 
HETATM   18  H           1     -37.080   1.915 -16.213  0.00  0.00     0.275 HD
HETATM   19  H           1     -35.916   2.118 -14.983  0.00  0.00     0.275 HD
HETATM   20  H           1     -35.442   1.547 -16.519  0.00  0.00     0.275 HD
ENDBRANCH  13  17
ENDBRANCH   2  13
TORSDOF 8
ENDMDL
MODEL 3
REMARK VINA RESULT:      -5.6      1.294      3.223
REMARK  8 active torsions:
REMARK  status: ('A' for Active; 'I' for Inactive)
REMARK    1  A    between atoms: C_1  and  C_5 
REMARK    2  A    between atoms: C_1  and  C_2 
REMARK    3  A    between atoms: C_2  and  C_12 
REMARK    4  A    between atoms: C_2  and  N_9 
REMARK    5  A    between atoms: O_7  and  C_8 
REMARK    6  A    between atoms: C_8  and  C_14 
REMARK       I    between atoms: N_9  and  C_10 
REMARK    7  A    between atoms: C_10  and  C_14 
REMARK    8  A    between atoms: C_14  and  N_16 
ROOT
HETATM    1  N           1     -27.708  -6.593 -19.086  0.00  0.00    -0.344 N 
HETATM    2  C           1     -26.361  -6.550 -18.850  0.00  0.00     0.251 C 
HETATM    3  O           1     -25.948  -6.196 -17.771  0.00  0.00    -0.271 OA
HETATM    4  H           1     -28.054  -6.889 -19.989  0.00  0.00     0.163 HD
ENDROOT
BRANCH   1   5
HETATM    5  C           1     -28.640  -6.215 -18.041  0.00  0.00     0.195 C 
BRANCH   5   6
HETATM    6  C           1     -29.169  -4.813 -18.315  0.00  0.00     0.149 C 
BRANCH   6   7
HETATM    7  C           1     -28.719  -3.881 -17.217  0.00  0.00     0.175 C 
HETATM    8  O           1     -28.945  -2.655 -17.306  0.00  0.00    -0.648 OA
HETATM    9  O           1     -28.120  -4.335 -16.219  0.00  0.00    -0.648 OA
ENDBRANCH   6   7
ENDBRANCH   5   6
BRANCH   5  10
HETATM   10  C           1     -29.790  -7.191 -18.016  0.00  0.00     0.197 C 
HETATM   11  O           1     -29.751  -8.222 -18.723  0.00  0.00    -0.646 OA
HETATM   12  O           1     -30.781  -6.971 -17.287  0.00  0.00    -0.646 OA
ENDBRANCH   5  10
ENDBRANCH   1   5
BRANCH   2  13
HETATM   13  C           1     -25.391  -6.944 -19.937  0.00  0.00     0.297 C 
BRANCH  13  14
HETATM   14  C           1     -26.091  -7.857 -20.935  0.00  0.00     0.206 C 
BRANCH  14  15
HETATM   15  O           1     -25.132  -8.568 -21.671  0.00  0.00    -0.398 OA
HETATM   16  H           1     -24.366  -8.636 -21.128  0.00  0.00     0.209 HD
ENDBRANCH  14  15
ENDBRANCH  13  14
BRANCH  13  17
HETATM   17  N           1     -24.227  -7.668 -19.329  0.00  0.00    -0.064 N 
HETATM   18  H           1     -24.563  -8.285 -18.556  0.00  0.00     0.275 HD
HETATM   19  H           1     -23.760  -8.251 -20.060  0.00  0.00     0.275 HD
HETATM   20  H           1     -23.545  -6.974 -18.949  0.00  0.00     0.275 HD
ENDBRANCH  13  17
ENDBRANCH   2  13
TORSDOF 8
ENDMDL
MODEL 4
REMARK VINA RESULT:      -5.6     10.799     12.586
REMARK  8 active torsions:
REMARK  status: ('A' for Active; 'I' for Inactive)
REMARK    1  A    between atoms: C_1  and  C_5 
REMARK    2  A    between atoms: C_1  and  C_2 
REMARK    3  A    between atoms: C_2  and  C_12 
REMARK    4  A    between atoms: C_2  and  N_9 
REMARK    5  A    between atoms: O_7  and  C_8 
REMARK    6  A    between atoms: C_8  and  C_14 
REMARK       I    between atoms: N_9  and  C_10 
REMARK    7  A    between atoms: C_10  and  C_14 
REMARK    8  A    between atoms: C_14  and  N_16 
ROOT
HETATM    1  N           1     -36.069  -0.282 -12.240  0.00  0.00    -0.344 N 
HETATM    2  C           1     -36.673  -0.201 -13.466  0.00  0.00     0.251 C 
HETATM    3  O           1     -37.775  -0.668 -13.627  0.00  0.00    -0.271 OA
HETATM    4  H           1     -35.145   0.110 -12.105  0.00  0.00     0.163 HD
ENDROOT
BRANCH   1   5
HETATM    5  C           1     -36.752  -0.926 -11.136  0.00  0.00     0.195 C 
BRANCH   5   6
HETATM    6  C           1     -35.925  -2.107 -10.647  0.00  0.00     0.149 C 
BRANCH   6   7
HETATM    7  C           1     -34.572  -2.086 -11.314  0.00  0.00     0.175 C 
HETATM    8  O           1     -33.613  -1.501 -10.766  0.00  0.00    -0.648 OA
HETATM    9  O           1     -34.411  -2.653 -12.417  0.00  0.00    -0.648 OA
ENDBRANCH   6   7
ENDBRANCH   5   6
BRANCH   5  10
HETATM   10  C           1     -36.933   0.063 -10.011  0.00  0.00     0.197 C 
HETATM   11  O           1     -37.791   0.968 -10.105  0.00  0.00    -0.646 OA
HETATM   12  O           1     -36.226  -0.022  -8.984  0.00  0.00    -0.646 OA
ENDBRANCH   5  10
ENDBRANCH   1   5
BRANCH   2  13
HETATM   13  C           1     -35.962   0.471 -14.615  0.00  0.00     0.297 C 
BRANCH  13  14
HETATM   14  C           1     -35.558  -0.577 -15.644  0.00  0.00     0.206 C 
BRANCH  14  15
HETATM   15  O           1     -35.225  -1.772 -14.990  0.00  0.00    -0.398 OA
HETATM   16  H           1     -35.066  -1.554 -14.088  0.00  0.00     0.209 HD
ENDBRANCH  14  15
ENDBRANCH  13  14
BRANCH  13  17
HETATM   17  N           1     -34.735   1.167 -14.104  0.00  0.00    -0.064 N 
HETATM   18  H           1     -34.636   0.993 -13.079  0.00  0.00     0.275 HD
HETATM   19  H           1     -33.894   0.800 -14.603  0.00  0.00     0.275 HD
HETATM   20  H           1     -34.821   2.194 -14.276  0.00  0.00     0.275 HD
ENDBRANCH  13  17
ENDBRANCH   2  13
TORSDOF 8
ENDMDL
MODEL 5
REMARK VINA RESULT:      -5.5      1.890      3.004
REMARK  8 active torsions:
REMARK  status: ('A' for Active; 'I' for Inactive)
REMARK    1  A    between atoms: C_1  and  C_5 
REMARK    2  A    between atoms: C_1  and  C_2 
REMARK    3  A    between atoms: C_2  and  C_12 
REMARK    4  A    between atoms: C_2  and  N_9 
REMARK    5  A    between atoms: O_7  and  C_8 
REMARK    6  A    between atoms: C_8  and  C_14 
REMARK       I    between atoms: N_9  and  C_10 
REMARK    7  A    between atoms: C_10  and  C_14 
REMARK    8  A    between atoms: C_14  and  N_16 
ROOT
HETATM    1  N           1     -26.454  -6.364 -18.174  0.00  0.00    -0.344 N 
HETATM    2  C           1     -26.573  -6.820 -19.459  0.00  0.00     0.251 C 
HETATM    3  O           1     -27.662  -7.097 -19.903  0.00  0.00    -0.271 OA
HETATM    4  H           1     -25.542  -6.132 -17.802  0.00  0.00     0.163 HD
ENDROOT
BRANCH   1   5
HETATM    5  C           1     -27.635  -6.212 -17.346  0.00  0.00     0.195 C 
BRANCH   5   6
HETATM    6  C           1     -27.280  -6.512 -15.896  0.00  0.00     0.149 C 
BRANCH   6   7
HETATM    7  C           1     -25.787  -6.686 -15.768  0.00  0.00     0.175 C 
HETATM    8  O           1     -25.293  -7.834 -15.713  0.00  0.00    -0.648 OA
HETATM    9  O           1     -25.043  -5.683 -15.718  0.00  0.00    -0.648 OA
ENDBRANCH   6   7
ENDBRANCH   5   6
BRANCH   5  10
HETATM   10  C           1     -28.148  -4.798 -17.457  0.00  0.00     0.197 C 
HETATM   11  O           1     -27.734  -3.919 -16.669  0.00  0.00    -0.646 OA
HETATM   12  O           1     -28.986  -4.503 -18.336  0.00  0.00    -0.646 OA
ENDBRANCH   5  10
ENDBRANCH   1   5
BRANCH   2  13
HETATM   13  C           1     -25.344  -6.977 -20.320  0.00  0.00     0.297 C 
BRANCH  13  14
HETATM   14  C           1     -25.592  -8.054 -21.368  0.00  0.00     0.206 C 
BRANCH  14  15
HETATM   15  O           1     -24.370  -8.621 -21.755  0.00  0.00    -0.398 OA
HETATM   16  H           1     -24.303  -9.453 -21.317  0.00  0.00     0.209 HD
ENDBRANCH  14  15
ENDBRANCH  13  14
BRANCH  13  17
HETATM   17  N           1     -24.180  -7.374 -19.461  0.00  0.00    -0.064 N 
HETATM   18  H           1     -24.150  -8.415 -19.374  0.00  0.00     0.275 HD
HETATM   19  H           1     -23.294  -7.037 -19.899  0.00  0.00     0.275 HD
HETATM   20  H           1     -24.285  -6.948 -18.513  0.00  0.00     0.275 HD
ENDBRANCH  13  17
ENDBRANCH   2  13
TORSDOF 8
ENDMDL
MODEL 6
REMARK VINA RESULT:      -5.4      2.159      3.807
REMARK  8 active torsions:
REMARK  status: ('A' for Active; 'I' for Inactive)
REMARK    1  A    between atoms: C_1  and  C_5 
REMARK    2  A    between atoms: C_1  and  C_2 
REMARK    3  A    between atoms: C_2  and  C_12 
REMARK    4  A    between atoms: C_2  and  N_9 
REMARK    5  A    between atoms: O_7  and  C_8 
REMARK    6  A    between atoms: C_8  and  C_14 
REMARK       I    between atoms: N_9  and  C_10 
REMARK    7  A    between atoms: C_10  and  C_14 
REMARK    8  A    between atoms: C_14  and  N_16 
ROOT
HETATM    1  N           1     -27.561  -6.592 -17.049  0.00  0.00    -0.344 N 
HETATM    2  C           1     -26.442  -6.938 -16.342  0.00  0.00     0.251 C 
HETATM    3  O           1     -26.546  -7.367 -15.218  0.00  0.00    -0.271 OA
HETATM    4  H           1     -27.474  -6.232 -17.990  0.00  0.00     0.163 HD
ENDROOT
BRANCH   1   5
HETATM    5  C           1     -28.873  -6.743 -16.449  0.00  0.00     0.195 C 
BRANCH   5   6
HETATM    6  C           1     -29.419  -5.373 -16.071  0.00  0.00     0.149 C 
BRANCH   6   7
HETATM    7  C           1     -28.778  -4.318 -16.939  0.00  0.00     0.175 C 
HETATM    8  O           1     -27.803  -3.662 -16.510  0.00  0.00    -0.648 OA
HETATM    9  O           1     -29.221  -4.100 -18.087  0.00  0.00    -0.648 OA
ENDBRANCH   6   7
ENDBRANCH   5   6
BRANCH   5  10
HETATM   10  C           1     -29.804  -7.402 -17.436  0.00  0.00     0.197 C 
HETATM   11  O           1     -29.397  -8.349 -18.144  0.00  0.00    -0.646 OA
HETATM   12  O           1     -30.983  -7.002 -17.547  0.00  0.00    -0.646 OA
ENDBRANCH   5  10
ENDBRANCH   1   5
BRANCH   2  13
HETATM   13  C           1     -25.077  -6.781 -16.966  0.00  0.00     0.297 C 
BRANCH  13  14
HETATM   14  C           1     -25.207  -6.806 -18.484  0.00  0.00     0.206 C 
BRANCH  14  15
HETATM   15  O           1     -23.940  -6.651 -19.064  0.00  0.00    -0.398 OA
HETATM   16  H           1     -23.438  -7.414 -18.834  0.00  0.00     0.209 HD
ENDBRANCH  14  15
ENDBRANCH  13  14
BRANCH  13  17
HETATM   17  N           1     -24.192  -7.909 -16.523  0.00  0.00    -0.064 N 
HETATM   18  H           1     -24.449  -8.779 -17.041  0.00  0.00     0.275 HD
HETATM   19  H           1     -23.195  -7.667 -16.721  0.00  0.00     0.275 HD
HETATM   20  H           1     -24.315  -8.065 -15.497  0.00  0.00     0.275 HD
ENDBRANCH  13  17
ENDBRANCH   2  13
TORSDOF 8
ENDMDL
MODEL 7
REMARK VINA RESULT:      -5.3     10.516     12.499
REMARK  8 active torsions:
REMARK  status: ('A' for Active; 'I' for Inactive)
REMARK    1  A    between atoms: C_1  and  C_5 
REMARK    2  A    between atoms: C_1  and  C_2 
REMARK    3  A    between atoms: C_2  and  C_12 
REMARK    4  A    between atoms: C_2  and  N_9 
REMARK    5  A    between atoms: O_7  and  C_8 
REMARK    6  A    between atoms: C_8  and  C_14 
REMARK       I    between atoms: N_9  and  C_10 
REMARK    7  A    between atoms: C_10  and  C_14 
REMARK    8  A    between atoms: C_14  and  N_16 
ROOT
HETATM    1  N           1     -22.739  -4.574  -8.611  0.00  0.00    -0.344 N 
HETATM    2  C           1     -22.013  -4.205  -7.511  0.00  0.00     0.251 C 
HETATM    3  O           1     -21.441  -3.141  -7.494  0.00  0.00    -0.271 OA
HETATM    4  H           1     -23.219  -5.465  -8.624  0.00  0.00     0.163 HD
ENDROOT
BRANCH   1   5
HETATM    5  C           1     -22.823  -3.688  -9.755  0.00  0.00     0.195 C 
BRANCH   5   6
HETATM    6  C           1     -22.117  -4.327 -10.944  0.00  0.00     0.149 C 
BRANCH   6   7
HETATM    7  C           1     -20.636  -4.049 -10.860  0.00  0.00     0.175 C 
HETATM    8  O           1     -20.178  -2.964 -11.281  0.00  0.00    -0.648 OA
HETATM    9  O           1     -19.867  -4.903 -10.369  0.00  0.00    -0.648 OA
ENDBRANCH   6   7
ENDBRANCH   5   6
BRANCH   5  10
HETATM   10  C           1     -24.271  -3.446 -10.100  0.00  0.00     0.197 C 
HETATM   11  O           1     -24.730  -3.850 -11.191  0.00  0.00    -0.646 OA
HETATM   12  O           1     -25.014  -2.844  -9.295  0.00  0.00    -0.646 OA
ENDBRANCH   5  10
ENDBRANCH   1   5
BRANCH   2  13
HETATM   13  C           1     -21.928  -5.127  -6.319  0.00  0.00     0.297 C 
BRANCH  13  14
HETATM   14  C           1     -21.105  -6.355  -6.686  0.00  0.00     0.206 C 
BRANCH  14  15
HETATM   15  O           1     -20.190  -6.022  -7.693  0.00  0.00    -0.398 OA
HETATM   16  H           1     -20.657  -5.507  -8.329  0.00  0.00     0.209 HD
ENDBRANCH  14  15
ENDBRANCH  13  14
BRANCH  13  17
HETATM   17  N           1     -23.308  -5.552  -5.916  0.00  0.00    -0.064 N 
HETATM   18  H           1     -23.984  -4.779  -6.113  0.00  0.00     0.275 HD
HETATM   19  H           1     -23.583  -6.401  -6.460  0.00  0.00     0.275 HD
HETATM   20  H           1     -23.321  -5.773  -4.895  0.00  0.00     0.275 HD
ENDBRANCH  13  17
ENDBRANCH   2  13
TORSDOF 8
ENDMDL
MODEL 8
REMARK VINA RESULT:      -5.3      2.262      2.958
REMARK  8 active torsions:
REMARK  status: ('A' for Active; 'I' for Inactive)
REMARK    1  A    between atoms: C_1  and  C_5 
REMARK    2  A    between atoms: C_1  and  C_2 
REMARK    3  A    between atoms: C_2  and  C_12 
REMARK    4  A    between atoms: C_2  and  N_9 
REMARK    5  A    between atoms: O_7  and  C_8 
REMARK    6  A    between atoms: C_8  and  C_14 
REMARK       I    between atoms: N_9  and  C_10 
REMARK    7  A    between atoms: C_10  and  C_14 
REMARK    8  A    between atoms: C_14  and  N_16 
ROOT
HETATM    1  N           1     -26.555  -6.639 -18.247  0.00  0.00    -0.344 N 
HETATM    2  C           1     -25.410  -6.844 -18.969  0.00  0.00     0.251 C 
HETATM    3  O           1     -24.349  -6.459 -18.539  0.00  0.00    -0.271 OA
HETATM    4  H           1     -27.444  -6.962 -18.607  0.00  0.00     0.163 HD
ENDROOT
BRANCH   1   5
HETATM    5  C           1     -26.494  -5.962 -16.967  0.00  0.00     0.195 C 
BRANCH   5   6
HETATM    6  C           1     -27.755  -5.130 -16.773  0.00  0.00     0.149 C 
BRANCH   6   7
HETATM    7  C           1     -28.759  -5.480 -17.843  0.00  0.00     0.175 C 
HETATM    8  O           1     -28.922  -4.719 -18.822  0.00  0.00    -0.648 OA
HETATM    9  O           1     -29.430  -6.531 -17.751  0.00  0.00    -0.648 OA
ENDBRANCH   6   7
ENDBRANCH   5   6
BRANCH   5  10
HETATM   10  C           1     -26.389  -6.983 -15.862  0.00  0.00     0.197 C 
HETATM   11  O           1     -27.426  -7.435 -15.327  0.00  0.00    -0.646 OA
HETATM   12  O           1     -25.267  -7.380 -15.480  0.00  0.00    -0.646 OA
ENDBRANCH   5  10
ENDBRANCH   1   5
BRANCH   2  13
HETATM   13  C           1     -25.474  -7.550 -20.301  0.00  0.00     0.297 C 
BRANCH  13  14
HETATM   14  C           1     -24.888  -6.650 -21.381  0.00  0.00     0.206 C 
BRANCH  14  15
HETATM   15  O           1     -24.265  -7.438 -22.359  0.00  0.00    -0.398 OA
HETATM   16  H           1     -24.914  -8.039 -22.681  0.00  0.00     0.209 HD
ENDBRANCH  14  15
ENDBRANCH  13  14
BRANCH  13  17
HETATM   17  N           1     -26.903  -7.863 -20.632  0.00  0.00    -0.064 N 
HETATM   18  H           1     -27.131  -7.491 -21.581  0.00  0.00     0.275 HD
HETATM   19  H           1     -27.043  -8.899 -20.622  0.00  0.00     0.275 HD
HETATM   20  H           1     -27.530  -7.420 -19.924  0.00  0.00     0.275 HD
ENDBRANCH  13  17
ENDBRANCH   2  13
TORSDOF 8
ENDMDL
MODEL 9
REMARK VINA RESULT:      -5.2     10.260     12.155
REMARK  8 active torsions:
REMARK  status: ('A' for Active; 'I' for Inactive)
REMARK    1  A    between atoms: C_1  and  C_5 
REMARK    2  A    between atoms: C_1  and  C_2 
REMARK    3  A    between atoms: C_2  and  C_12 
REMARK    4  A    between atoms: C_2  and  N_9 
REMARK    5  A    between atoms: O_7  and  C_8 
REMARK    6  A    between atoms: C_8  and  C_14 
REMARK       I    between atoms: N_9  and  C_10 
REMARK    7  A    between atoms: C_10  and  C_14 
REMARK    8  A    between atoms: C_14  and  N_16 
ROOT
HETATM    1  N           1     -22.347  -4.181  -9.276  0.00  0.00    -0.344 N 
HETATM    2  C           1     -21.592  -4.681  -8.250  0.00  0.00     0.251 C 
HETATM    3  O           1     -20.636  -5.379  -8.488  0.00  0.00    -0.271 OA
HETATM    4  H           1     -23.148  -3.596  -9.077  0.00  0.00     0.163 HD
ENDROOT
BRANCH   1   5
HETATM    5  C           1     -21.997  -4.487 -10.649  0.00  0.00     0.195 C 
BRANCH   5   6
HETATM    6  C           1     -23.267  -4.712 -11.458  0.00  0.00     0.149 C 
BRANCH   6   7
HETATM    7  C           1     -24.462  -4.255 -10.658  0.00  0.00     0.175 C 
HETATM    8  O           1     -24.966  -5.010  -9.799  0.00  0.00    -0.648 OA
HETATM    9  O           1     -24.948  -3.120 -10.855  0.00  0.00    -0.648 OA
ENDBRANCH   6   7
ENDBRANCH   5   6
BRANCH   5  10
HETATM   10  C           1     -21.221  -3.336 -11.240  0.00  0.00     0.197 C 
HETATM   11  O           1     -19.971  -3.344 -11.212  0.00  0.00    -0.646 OA
HETATM   12  O           1     -21.828  -2.374 -11.758  0.00  0.00    -0.646 OA
ENDBRANCH   5  10
ENDBRANCH   1   5
BRANCH   2  13
HETATM   13  C           1     -21.956  -4.361  -6.820  0.00  0.00     0.297 C 
BRANCH  13  14
HETATM   14  C           1     -21.196  -5.289  -5.882  0.00  0.00     0.206 C 
BRANCH  14  15
HETATM   15  O           1     -19.945  -4.731  -5.583  0.00  0.00    -0.398 OA
HETATM   16  H           1     -20.108  -3.902  -5.167  0.00  0.00     0.209 HD
ENDBRANCH  14  15
ENDBRANCH  13  14
BRANCH  13  17
HETATM   17  N           1     -23.431  -4.553  -6.626  0.00  0.00    -0.064 N 
HETATM   18  H           1     -23.816  -3.758  -6.068  0.00  0.00     0.275 HD
HETATM   19  H           1     -23.903  -4.585  -7.557  0.00  0.00     0.275 HD
HETATM   20  H           1     -23.601  -5.450  -6.118  0.00  0.00     0.275 HD
ENDBRANCH  13  17
ENDBRANCH   2  13
TORSDOF 8
ENDMDL
