MODEL 1
REMARK VINA RESULT:      -7.9      0.000      0.000
REMARK  10 active torsions:
REMARK  status: ('A' for Active; 'I' for Inactive)
REMARK       I    between atoms: C_3  and  N_4 
REMARK    1  A    between atoms: C_3  and  C_17 
REMARK    2  A    between atoms: N_4  and  C_12 
REMARK    3  A    between atoms: C_6  and  O_10 
REMARK    4  A    between atoms: C_11  and  C_12 
REMARK    5  A    between atoms: C_12  and  C_28 
REMARK    6  A    between atoms: C_13  and  C_28 
REMARK    7  A    between atoms: C_14  and  C_17 
REMARK    8  A    between atoms: C_14  and  C_25 
REMARK    9  A    between atoms: C_17  and  N_21 
REMARK       I    between atoms: N_23  and  C_24 
REMARK   10  A    between atoms: C_24  and  C_25 
ROOT
HETATM    1  C           1     -36.460  -0.372 -14.265  0.00  0.00     0.249 C 
HETATM    2  N           1     -35.424  -0.610 -13.401  0.00  0.00    -0.344 N 
HETATM    3  H           1     -34.503  -0.246 -13.605  0.00  0.00     0.163 HD
HETATM    4  O           1     -37.561  -0.807 -14.021  0.00  0.00    -0.271 OA
ENDROOT
BRANCH   2   5
HETATM    5  C           1     -35.649  -1.382 -12.195  0.00  0.00     0.189 C 
BRANCH   5   6
HETATM    6  C           1     -36.538  -0.603 -11.258  0.00  0.00     0.197 C 
HETATM    7  O           1     -37.637  -1.078 -10.900  0.00  0.00    -0.646 OA
HETATM    8  O           1     -36.174   0.518 -10.838  0.00  0.00    -0.646 OA
ENDBRANCH   5   6
BRANCH   5   9
HETATM    9  C           1     -34.314  -1.661 -11.516  0.00  0.00     0.074 C 
BRANCH   9  10
HETATM   10  C           1     -34.144  -3.138 -11.337  0.00  0.00    -0.056 A 
HETATM   11  C           1     -35.192  -3.903 -10.826  0.00  0.00     0.010 A 
HETATM   12  C           1     -35.035  -5.279 -10.659  0.00  0.00     0.037 A 
HETATM   13  C           1     -33.829  -5.889 -11.003  0.00  0.00     0.065 A 
HETATM   14  C           1     -32.780  -5.124 -11.514  0.00  0.00     0.037 A 
HETATM   15  C           1     -32.939  -3.748 -11.681  0.00  0.00     0.010 A 
BRANCH  13  16
HETATM   16  O           1     -33.675  -7.226 -10.841  0.00  0.00    -0.361 OA
HETATM   17  H           1     -33.363  -7.385  -9.935  0.00  0.00     0.217 HD
ENDBRANCH  13  16
ENDBRANCH   9  10
ENDBRANCH   5   9
ENDBRANCH   2   5
BRANCH   1  18
HETATM   18  C           1     -36.226   0.432 -15.520  0.00  0.00     0.275 C 
BRANCH  18  19
HETATM   19  C           1     -35.131  -0.227 -16.349  0.00  0.00     0.052 C 
BRANCH  19  20
HETATM   20  C           1     -35.613  -1.583 -16.844  0.00  0.00     0.105 C 
BRANCH  20  21
HETATM   21  C           1     -34.589  -2.638 -16.504  0.00  0.00     0.215 C 
HETATM   22  O           1     -34.569  -3.126 -15.400  0.00  0.00    -0.274 OA
HETATM   23  N           1     -33.683  -3.042 -17.447  0.00  0.00    -0.370 N 
HETATM   24  H           1     -33.699  -2.634 -18.373  0.00  0.00     0.159 HD
HETATM   25  H           1     -32.997  -3.750 -17.218  0.00  0.00     0.159 HD
ENDBRANCH  20  21
ENDBRANCH  19  20
ENDBRANCH  18  19
BRANCH  18  26
HETATM   26  N           1     -35.804   1.822 -15.151  0.00  0.00    -0.066 N 
HETATM   27  H           1     -36.215   2.504 -15.828  0.00  0.00     0.275 HD
HETATM   28  H           1     -34.762   1.889 -15.179  0.00  0.00     0.275 HD
HETATM   29  H           1     -36.141   2.044 -14.186  0.00  0.00     0.275 HD
ENDBRANCH  18  26
ENDBRANCH   1  18
TORSDOF 10
ENDMDL
MODEL 2
REMARK VINA RESULT:      -7.4     13.699     16.876
REMARK  10 active torsions:
REMARK  status: ('A' for Active; 'I' for Inactive)
REMARK       I    between atoms: C_3  and  N_4 
REMARK    1  A    between atoms: C_3  and  C_17 
REMARK    2  A    between atoms: N_4  and  C_12 
REMARK    3  A    between atoms: C_6  and  O_10 
REMARK    4  A    between atoms: C_11  and  C_12 
REMARK    5  A    between atoms: C_12  and  C_28 
REMARK    6  A    between atoms: C_13  and  C_28 
REMARK    7  A    between atoms: C_14  and  C_17 
REMARK    8  A    between atoms: C_14  and  C_25 
REMARK    9  A    between atoms: C_17  and  N_21 
REMARK       I    between atoms: N_23  and  C_24 
REMARK   10  A    between atoms: C_24  and  C_25 
ROOT
HETATM    1  C           1     -21.452  -6.732  -5.574  0.00  0.00     0.249 C 
HETATM    2  N           1     -21.522  -5.408  -5.916  0.00  0.00    -0.344 N 
HETATM    3  H           1     -21.952  -4.745  -5.285  0.00  0.00     0.163 HD
HETATM    4  O           1     -20.939  -7.525  -6.328  0.00  0.00    -0.271 OA
ENDROOT
BRANCH   2   5
HETATM    5  C           1     -20.980  -4.957  -7.183  0.00  0.00     0.189 C 
BRANCH   5   6
HETATM    6  C           1     -19.550  -4.517  -6.989  0.00  0.00     0.197 C 
HETATM    7  O           1     -19.055  -4.487  -5.842  0.00  0.00    -0.646 OA
HETATM    8  O           1     -18.860  -4.183  -7.977  0.00  0.00    -0.646 OA
ENDBRANCH   5   6
BRANCH   5   9
HETATM    9  C           1     -21.807  -3.788  -7.700  0.00  0.00     0.074 C 
BRANCH   9  10
HETATM   10  C           1     -22.309  -4.101  -9.076  0.00  0.00    -0.056 A 
HETATM   11  C           1     -23.655  -4.406  -9.273  0.00  0.00     0.010 A 
HETATM   12  C           1     -24.124  -4.698 -10.554  0.00  0.00     0.037 A 
HETATM   13  C           1     -23.245  -4.684 -11.638  0.00  0.00     0.065 A 
HETATM   14  C           1     -21.898  -4.380 -11.440  0.00  0.00     0.037 A 
HETATM   15  C           1     -21.431  -4.088 -10.158  0.00  0.00     0.010 A 
BRANCH  13  16
HETATM   16  O           1     -23.699  -4.968 -12.883  0.00  0.00    -0.361 OA
HETATM   17  H           1     -23.824  -4.128 -13.356  0.00  0.00     0.217 HD
ENDBRANCH  13  16
ENDBRANCH   9  10
ENDBRANCH   5   9
ENDBRANCH   2   5
BRANCH   1  18
HETATM   18  C           1     -22.017  -7.201  -4.255  0.00  0.00     0.275 C 
BRANCH  18  19
HETATM   19  C           1     -21.371  -6.418  -3.119  0.00  0.00     0.052 C 
BRANCH  19  20
HETATM   20  C           1     -22.333  -6.342  -1.942  0.00  0.00     0.105 C 
BRANCH  20  21
HETATM   21  C           1     -21.970  -7.395  -0.924  0.00  0.00     0.215 C 
HETATM   22  O           1     -20.930  -8.001  -1.027  0.00  0.00    -0.274 OA
HETATM   23  N           1     -22.819  -7.664   0.115  0.00  0.00    -0.370 N 
HETATM   24  H           1     -23.690  -7.157   0.202  0.00  0.00     0.159 HD
HETATM   25  H           1     -22.574  -8.370   0.798  0.00  0.00     0.159 HD
ENDBRANCH  20  21
ENDBRANCH  19  20
ENDBRANCH  18  19
BRANCH  18  26
HETATM   26  N           1     -21.728  -8.662  -4.081  0.00  0.00    -0.066 N 
HETATM   27  H           1     -22.534  -9.223  -4.440  0.00  0.00     0.275 HD
HETATM   28  H           1     -21.583  -8.870  -3.067  0.00  0.00     0.275 HD
HETATM   29  H           1     -20.864  -8.914  -4.614  0.00  0.00     0.275 HD
ENDBRANCH  18  26
ENDBRANCH   1  18
TORSDOF 10
ENDMDL
MODEL 3
REMARK VINA RESULT:      -7.2     14.047     17.349
REMARK  10 active torsions:
REMARK  status: ('A' for Active; 'I' for Inactive)
REMARK       I    between atoms: C_3  and  N_4 
REMARK    1  A    between atoms: C_3  and  C_17 
REMARK    2  A    between atoms: N_4  and  C_12 
REMARK    3  A    between atoms: C_6  and  O_10 
REMARK    4  A    between atoms: C_11  and  C_12 
REMARK    5  A    between atoms: C_12  and  C_28 
REMARK    6  A    between atoms: C_13  and  C_28 
REMARK    7  A    between atoms: C_14  and  C_17 
REMARK    8  A    between atoms: C_14  and  C_25 
REMARK    9  A    between atoms: C_17  and  N_21 
REMARK       I    between atoms: N_23  and  C_24 
REMARK   10  A    between atoms: C_24  and  C_25 
ROOT
HETATM    1  C           1     -21.295  -6.539  -4.540  0.00  0.00     0.249 C 
HETATM    2  N           1     -21.124  -5.362  -5.219  0.00  0.00    -0.344 N 
HETATM    3  H           1     -21.010  -4.496  -4.709  0.00  0.00     0.163 HD
HETATM    4  O           1     -21.431  -7.574  -5.149  0.00  0.00    -0.271 OA
ENDROOT
BRANCH   2   5
HETATM    5  C           1     -21.104  -5.358  -6.668  0.00  0.00     0.189 C 
BRANCH   5   6
HETATM    6  C           1     -19.686  -5.535  -7.152  0.00  0.00     0.197 C 
HETATM    7  O           1     -18.918  -4.551  -7.210  0.00  0.00    -0.646 OA
HETATM    8  O           1     -19.280  -6.666  -7.496  0.00  0.00    -0.646 OA
ENDBRANCH   5   6
BRANCH   5   9
HETATM    9  C           1     -21.655  -4.033  -7.179  0.00  0.00     0.074 C 
BRANCH   9  10
HETATM   10  C           1     -22.180  -4.213  -8.569  0.00  0.00    -0.056 A 
HETATM   11  C           1     -21.304  -4.176  -9.654  0.00  0.00     0.010 A 
HETATM   12  C           1     -21.792  -4.343 -10.951  0.00  0.00     0.037 A 
HETATM   13  C           1     -23.156  -4.548 -11.161  0.00  0.00     0.065 A 
HETATM   14  C           1     -24.032  -4.583 -10.076  0.00  0.00     0.037 A 
HETATM   15  C           1     -23.543  -4.416  -8.780  0.00  0.00     0.010 A 
BRANCH  13  16
HETATM   16  O           1     -23.631  -4.710 -12.420  0.00  0.00    -0.361 OA
HETATM   17  H           1     -24.316  -5.399 -12.395  0.00  0.00     0.217 HD
ENDBRANCH  13  16
ENDBRANCH   9  10
ENDBRANCH   5   9
ENDBRANCH   2   5
BRANCH   1  18
HETATM   18  C           1     -21.315  -6.543  -3.031  0.00  0.00     0.275 C 
BRANCH  18  19
HETATM   19  C           1     -21.291  -7.980  -2.526  0.00  0.00     0.052 C 
BRANCH  19  20
HETATM   20  C           1     -20.627  -8.028  -1.157  0.00  0.00     0.105 C 
BRANCH  20  21
HETATM   21  C           1     -21.659  -8.361  -0.108  0.00  0.00     0.215 C 
HETATM   22  O           1     -22.641  -7.668   0.015  0.00  0.00    -0.274 OA
HETATM   23  N           1     -21.482  -9.447   0.706  0.00  0.00    -0.370 N 
HETATM   24  H           1     -20.660 -10.027   0.605  0.00  0.00     0.159 HD
HETATM   25  H           1     -22.175  -9.669   1.410  0.00  0.00     0.159 HD
ENDBRANCH  20  21
ENDBRANCH  19  20
ENDBRANCH  18  19
BRANCH  18  26
HETATM   26  N           1     -22.562  -5.865  -2.546  0.00  0.00    -0.066 N 
HETATM   27  H           1     -22.889  -5.180  -3.265  0.00  0.00     0.275 HD
HETATM   28  H           1     -22.361  -5.364  -1.652  0.00  0.00     0.275 HD
HETATM   29  H           1     -23.307  -6.581  -2.384  0.00  0.00     0.275 HD
ENDBRANCH  18  26
ENDBRANCH   1  18
TORSDOF 10
ENDMDL
MODEL 4
REMARK VINA RESULT:      -7.0      2.616      5.366
REMARK  10 active torsions:
REMARK  status: ('A' for Active; 'I' for Inactive)
REMARK       I    between atoms: C_3  and  N_4 
REMARK    1  A    between atoms: C_3  and  C_17 
REMARK    2  A    between atoms: N_4  and  C_12 
REMARK    3  A    between atoms: C_6  and  O_10 
REMARK    4  A    between atoms: C_11  and  C_12 
REMARK    5  A    between atoms: C_12  and  C_28 
REMARK    6  A    between atoms: C_13  and  C_28 
REMARK    7  A    between atoms: C_14  and  C_17 
REMARK    8  A    between atoms: C_14  and  C_25 
REMARK    9  A    between atoms: C_17  and  N_21 
REMARK       I    between atoms: N_23  and  C_24 
REMARK   10  A    between atoms: C_24  and  C_25 
ROOT
HETATM    1  C           1     -34.525  -2.278 -10.585  0.00  0.00     0.249 C 
HETATM    2  N           1     -35.850  -1.989 -10.397  0.00  0.00    -0.344 N 
HETATM    3  H           1     -36.516  -2.737 -10.255  0.00  0.00     0.163 HD
HETATM    4  O           1     -33.730  -1.384 -10.755  0.00  0.00    -0.271 OA
ENDROOT
BRANCH   2   5
HETATM    5  C           1     -36.299  -0.610 -10.401  0.00  0.00     0.189 C 
BRANCH   5   6
HETATM    6  C           1     -36.624  -0.184  -8.991  0.00  0.00     0.197 C 
HETATM    7  O           1     -37.805  -0.224  -8.582  0.00  0.00    -0.646 OA
HETATM    8  O           1     -35.713   0.210  -8.231  0.00  0.00    -0.646 OA
ENDBRANCH   5   6
BRANCH   5   9
HETATM    9  C           1     -37.543  -0.485 -11.270  0.00  0.00     0.074 C 
BRANCH   9  10
HETATM   10  C           1     -37.142  -0.117 -12.665  0.00  0.00    -0.056 A 
HETATM   11  C           1     -38.075  -0.192 -13.700  0.00  0.00     0.010 A 
HETATM   12  C           1     -37.703   0.151 -15.000  0.00  0.00     0.037 A 
HETATM   13  C           1     -36.398   0.568 -15.265  0.00  0.00     0.065 A 
HETATM   14  C           1     -35.465   0.641 -14.230  0.00  0.00     0.037 A 
HETATM   15  C           1     -35.839   0.299 -12.930  0.00  0.00     0.010 A 
BRANCH  13  16
HETATM   16  O           1     -36.035   0.900 -16.528  0.00  0.00    -0.361 OA
HETATM   17  H           1     -36.589   1.646 -16.812  0.00  0.00     0.217 HD
ENDBRANCH  13  16
ENDBRANCH   9  10
ENDBRANCH   5   9
ENDBRANCH   2   5
BRANCH   1  18
HETATM   18  C           1     -34.058  -3.713 -10.581  0.00  0.00     0.275 C 
BRANCH  18  19
HETATM   19  C           1     -33.188  -3.968 -11.805  0.00  0.00     0.052 C 
BRANCH  19  20
HETATM   20  C           1     -34.005  -4.691 -12.868  0.00  0.00     0.105 C 
BRANCH  20  21
HETATM   21  C           1     -34.117  -3.822 -14.096  0.00  0.00     0.215 C 
HETATM   22  O           1     -34.701  -2.766 -14.037  0.00  0.00    -0.274 OA
HETATM   23  N           1     -33.558  -4.229 -15.277  0.00  0.00    -0.370 N 
HETATM   24  H           1     -33.069  -5.113 -15.327  0.00  0.00     0.159 HD
HETATM   25  H           1     -33.633  -3.645 -16.100  0.00  0.00     0.159 HD
ENDBRANCH  20  21
ENDBRANCH  19  20
ENDBRANCH  18  19
BRANCH  18  26
HETATM   26  N           1     -35.248  -4.625 -10.616  0.00  0.00    -0.066 N 
HETATM   27  H           1     -35.059  -5.469 -10.029  0.00  0.00     0.275 HD
HETATM   28  H           1     -35.432  -4.919 -11.601  0.00  0.00     0.275 HD
HETATM   29  H           1     -36.085  -4.121 -10.241  0.00  0.00     0.275 HD
ENDBRANCH  18  26
ENDBRANCH   1  18
TORSDOF 10
ENDMDL
MODEL 5
REMARK VINA RESULT:      -7.0     14.414     17.120
REMARK  10 active torsions:
REMARK  status: ('A' for Active; 'I' for Inactive)
REMARK       I    between atoms: C_3  and  N_4 
REMARK    1  A    between atoms: C_3  and  C_17 
REMARK    2  A    between atoms: N_4  and  C_12 
REMARK    3  A    between atoms: C_6  and  O_10 
REMARK    4  A    between atoms: C_11  and  C_12 
REMARK    5  A    between atoms: C_12  and  C_28 
REMARK    6  A    between atoms: C_13  and  C_28 
REMARK    7  A    between atoms: C_14  and  C_17 
REMARK    8  A    between atoms: C_14  and  C_25 
REMARK    9  A    between atoms: C_17  and  N_21 
REMARK       I    between atoms: N_23  and  C_24 
REMARK   10  A    between atoms: C_24  and  C_25 
ROOT
HETATM    1  C           1     -20.130  -5.297  -6.101  0.00  0.00     0.249 C 
HETATM    2  N           1     -20.063  -6.662  -6.192  0.00  0.00    -0.344 N 
HETATM    3  H           1     -20.045  -7.107  -7.100  0.00  0.00     0.163 HD
HETATM    4  O           1     -20.153  -4.764  -5.016  0.00  0.00    -0.271 OA
ENDROOT
BRANCH   2   5
HETATM    5  C           1     -20.019  -7.467  -4.988  0.00  0.00     0.189 C 
BRANCH   5   6
HETATM    6  C           1     -19.045  -8.603  -5.179  0.00  0.00     0.197 C 
HETATM    7  O           1     -18.703  -9.305  -4.202  0.00  0.00    -0.646 OA
HETATM    8  O           1     -18.578  -8.842  -6.314  0.00  0.00    -0.646 OA
ENDBRANCH   5   6
BRANCH   5   9
HETATM    9  C           1     -21.406  -8.029  -4.703  0.00  0.00     0.074 C 
BRANCH   9  10
HETATM   10  C           1     -21.684  -7.951  -3.234  0.00  0.00    -0.056 A 
HETATM   11  C           1     -21.938  -6.715  -2.638  0.00  0.00     0.010 A 
HETATM   12  C           1     -22.197  -6.641  -1.269  0.00  0.00     0.037 A 
HETATM   13  C           1     -22.202  -7.803  -0.497  0.00  0.00     0.065 A 
HETATM   14  C           1     -21.947  -9.038  -1.092  0.00  0.00     0.037 A 
HETATM   15  C           1     -21.688  -9.111  -2.462  0.00  0.00     0.010 A 
BRANCH  13  16
HETATM   16  O           1     -22.453  -7.732   0.833  0.00  0.00    -0.361 OA
HETATM   17  H           1     -22.173  -8.570   1.237  0.00  0.00     0.217 HD
ENDBRANCH  13  16
ENDBRANCH   9  10
ENDBRANCH   5   9
ENDBRANCH   2   5
BRANCH   1  18
HETATM   18  C           1     -20.176  -4.458  -7.355  0.00  0.00     0.275 C 
BRANCH  18  19
HETATM   19  C           1     -21.419  -3.578  -7.332  0.00  0.00     0.052 C 
BRANCH  19  20
HETATM   20  C           1     -22.623  -4.386  -7.796  0.00  0.00     0.105 C 
BRANCH  20  21
HETATM   21  C           1     -23.210  -3.753  -9.033  0.00  0.00     0.215 C 
HETATM   22  O           1     -22.541  -3.651 -10.035  0.00  0.00    -0.274 OA
HETATM   23  N           1     -24.499  -3.292  -9.022  0.00  0.00    -0.370 N 
HETATM   24  H           1     -25.059  -3.377  -8.184  0.00  0.00     0.159 HD
HETATM   25  H           1     -24.891  -2.868  -9.853  0.00  0.00     0.159 HD
ENDBRANCH  20  21
ENDBRANCH  19  20
ENDBRANCH  18  19
BRANCH  18  26
HETATM   26  N           1     -20.223  -5.357  -8.555  0.00  0.00    -0.066 N 
HETATM   27  H           1     -19.255  -5.670  -8.795  0.00  0.00     0.275 HD
HETATM   28  H           1     -20.632  -4.837  -9.363  0.00  0.00     0.275 HD
HETATM   29  H           1     -20.816  -6.192  -8.342  0.00  0.00     0.275 HD
ENDBRANCH  18  26
ENDBRANCH   1  18
TORSDOF 10
ENDMDL
MODEL 6
REMARK VINA RESULT:      -7.0     14.111     17.306
REMARK  10 active torsions:
REMARK  status: ('A' for Active; 'I' for Inactive)
REMARK       I    between atoms: C_3  and  N_4 
REMARK    1  A    between atoms: C_3  and  C_17 
REMARK    2  A    between atoms: N_4  and  C_12 
REMARK    3  A    between atoms: C_6  and  O_10 
REMARK    4  A    between atoms: C_11  and  C_12 
REMARK    5  A    between atoms: C_12  and  C_28 
REMARK    6  A    between atoms: C_13  and  C_28 
REMARK    7  A    between atoms: C_14  and  C_17 
REMARK    8  A    between atoms: C_14  and  C_25 
REMARK    9  A    between atoms: C_17  and  N_21 
REMARK       I    between atoms: N_23  and  C_24 
REMARK   10  A    between atoms: C_24  and  C_25 
ROOT
HETATM    1  C           1     -21.349  -6.559  -4.529  0.00  0.00     0.249 C 
HETATM    2  N           1     -21.127  -5.388  -5.203  0.00  0.00    -0.344 N 
HETATM    3  H           1     -20.978  -4.530  -4.690  0.00  0.00     0.163 HD
HETATM    4  O           1     -21.528  -7.585  -5.142  0.00  0.00    -0.271 OA
ENDROOT
BRANCH   2   5
HETATM    5  C           1     -21.106  -5.379  -6.653  0.00  0.00     0.189 C 
BRANCH   5   6
HETATM    6  C           1     -19.688  -5.556  -7.136  0.00  0.00     0.197 C 
HETATM    7  O           1     -18.929  -4.567  -7.222  0.00  0.00    -0.646 OA
HETATM    8  O           1     -19.273  -6.692  -7.452  0.00  0.00    -0.646 OA
ENDBRANCH   5   6
BRANCH   5   9
HETATM    9  C           1     -21.655  -4.052  -7.159  0.00  0.00     0.074 C 
BRANCH   9  10
HETATM   10  C           1     -22.175  -4.225  -8.553  0.00  0.00    -0.056 A 
HETATM   11  C           1     -23.541  -4.413  -8.768  0.00  0.00     0.010 A 
HETATM   12  C           1     -24.026  -4.575 -10.066  0.00  0.00     0.037 A 
HETATM   13  C           1     -23.146  -4.549 -11.148  0.00  0.00     0.065 A 
HETATM   14  C           1     -21.780  -4.362 -10.932  0.00  0.00     0.037 A 
HETATM   15  C           1     -21.296  -4.200  -9.634  0.00  0.00     0.010 A 
BRANCH  13  16
HETATM   16  O           1     -23.617  -4.706 -12.409  0.00  0.00    -0.361 OA
HETATM   17  H           1     -23.799  -5.651 -12.546  0.00  0.00     0.217 HD
ENDBRANCH  13  16
ENDBRANCH   9  10
ENDBRANCH   5   9
ENDBRANCH   2   5
BRANCH   1  18
HETATM   18  C           1     -21.370  -6.568  -3.020  0.00  0.00     0.275 C 
BRANCH  18  19
HETATM   19  C           1     -21.336  -8.007  -2.520  0.00  0.00     0.052 C 
BRANCH  19  20
HETATM   20  C           1     -19.995  -8.282  -1.854  0.00  0.00     0.105 C 
BRANCH  20  21
HETATM   21  C           1     -19.240  -9.318  -2.650  0.00  0.00     0.215 C 
HETATM   22  O           1     -18.865 -10.335  -2.116  0.00  0.00    -0.274 OA
HETATM   23  N           1     -18.978  -9.107  -3.977  0.00  0.00    -0.370 N 
HETATM   24  H           1     -19.291  -8.256  -4.425  0.00  0.00     0.159 HD
HETATM   25  H           1     -18.472  -9.803  -4.510  0.00  0.00     0.159 HD
ENDBRANCH  20  21
ENDBRANCH  19  20
ENDBRANCH  18  19
BRANCH  18  26
HETATM   26  N           1     -22.623  -5.901  -2.535  0.00  0.00    -0.066 N 
HETATM   27  H           1     -23.084  -5.404  -3.330  0.00  0.00     0.275 HD
HETATM   28  H           1     -22.383  -5.214  -1.785  0.00  0.00     0.275 HD
HETATM   29  H           1     -23.275  -6.623  -2.150  0.00  0.00     0.275 HD
ENDBRANCH  18  26
ENDBRANCH   1  18
TORSDOF 10
ENDMDL
MODEL 7
REMARK VINA RESULT:      -6.6      2.786      4.147
REMARK  10 active torsions:
REMARK  status: ('A' for Active; 'I' for Inactive)
REMARK       I    between atoms: C_3  and  N_4 
REMARK    1  A    between atoms: C_3  and  C_17 
REMARK    2  A    between atoms: N_4  and  C_12 
REMARK    3  A    between atoms: C_6  and  O_10 
REMARK    4  A    between atoms: C_11  and  C_12 
REMARK    5  A    between atoms: C_12  and  C_28 
REMARK    6  A    between atoms: C_13  and  C_28 
REMARK    7  A    between atoms: C_14  and  C_17 
REMARK    8  A    between atoms: C_14  and  C_25 
REMARK    9  A    between atoms: C_17  and  N_21 
REMARK       I    between atoms: N_23  and  C_24 
REMARK   10  A    between atoms: C_24  and  C_25 
ROOT
HETATM    1  C           1     -33.978  -4.483 -15.401  0.00  0.00     0.249 C 
HETATM    2  N           1     -33.459  -3.812 -14.326  0.00  0.00    -0.344 N 
HETATM    3  H           1     -32.583  -3.314 -14.416  0.00  0.00     0.163 HD
HETATM    4  O           1     -35.024  -5.078 -15.294  0.00  0.00    -0.271 OA
ENDROOT
BRANCH   2   5
HETATM    5  C           1     -34.165  -3.814 -13.060  0.00  0.00     0.189 C 
BRANCH   5   6
HETATM    6  C           1     -34.826  -2.474 -12.851  0.00  0.00     0.197 C 
HETATM    7  O           1     -35.172  -2.120 -11.703  0.00  0.00    -0.646 OA
HETATM    8  O           1     -35.027  -1.717 -13.825  0.00  0.00    -0.646 OA
ENDBRANCH   5   6
BRANCH   5   9
HETATM    9  C           1     -33.179  -4.078 -11.930  0.00  0.00     0.074 C 
BRANCH   9  10
HETATM   10  C           1     -33.559  -5.340 -11.220  0.00  0.00    -0.056 A 
HETATM   11  C           1     -32.674  -6.418 -11.194  0.00  0.00     0.010 A 
HETATM   12  C           1     -33.027  -7.595 -10.533  0.00  0.00     0.037 A 
HETATM   13  C           1     -34.266  -7.693  -9.898  0.00  0.00     0.065 A 
HETATM   14  C           1     -35.151  -6.615  -9.925  0.00  0.00     0.037 A 
HETATM   15  C           1     -34.797  -5.439 -10.586  0.00  0.00     0.010 A 
BRANCH  13  16
HETATM   16  O           1     -34.609  -8.836  -9.256  0.00  0.00    -0.361 OA
HETATM   17  H           1     -35.040  -9.423  -9.898  0.00  0.00     0.217 HD
ENDBRANCH  13  16
ENDBRANCH   9  10
ENDBRANCH   5   9
ENDBRANCH   2   5
BRANCH   1  18
HETATM   18  C           1     -33.242  -4.480 -16.719  0.00  0.00     0.275 C 
BRANCH  18  19
HETATM   19  C           1     -31.741  -4.474 -16.463  0.00  0.00     0.052 C 
BRANCH  19  20
HETATM   20  C           1     -31.020  -3.890 -17.670  0.00  0.00     0.105 C 
BRANCH  20  21
HETATM   21  C           1     -29.648  -3.416 -17.259  0.00  0.00     0.215 C 
HETATM   22  O           1     -28.846  -4.203 -16.815  0.00  0.00    -0.274 OA
HETATM   23  N           1     -29.312  -2.096 -17.388  0.00  0.00    -0.370 N 
HETATM   24  H           1     -29.983  -1.436 -17.759  0.00  0.00     0.159 HD
HETATM   25  H           1     -28.391  -1.779 -17.112  0.00  0.00     0.159 HD
ENDBRANCH  20  21
ENDBRANCH  19  20
ENDBRANCH  18  19
BRANCH  18  26
HETATM   26  N           1     -33.620  -3.256 -17.498  0.00  0.00    -0.066 N 
HETATM   27  H           1     -33.465  -2.406 -16.910  0.00  0.00     0.275 HD
HETATM   28  H           1     -34.628  -3.313 -17.769  0.00  0.00     0.275 HD
HETATM   29  H           1     -33.031  -3.195 -18.360  0.00  0.00     0.275 HD
ENDBRANCH  18  26
ENDBRANCH   1  18
TORSDOF 10
ENDMDL
MODEL 8
REMARK VINA RESULT:      -6.6     13.786     16.255
REMARK  10 active torsions:
REMARK  status: ('A' for Active; 'I' for Inactive)
REMARK       I    between atoms: C_3  and  N_4 
REMARK    1  A    between atoms: C_3  and  C_17 
REMARK    2  A    between atoms: N_4  and  C_12 
REMARK    3  A    between atoms: C_6  and  O_10 
REMARK    4  A    between atoms: C_11  and  C_12 
REMARK    5  A    between atoms: C_12  and  C_28 
REMARK    6  A    between atoms: C_13  and  C_28 
REMARK    7  A    between atoms: C_14  and  C_17 
REMARK    8  A    between atoms: C_14  and  C_25 
REMARK    9  A    between atoms: C_17  and  N_21 
REMARK       I    between atoms: N_23  and  C_24 
REMARK   10  A    between atoms: C_24  and  C_25 
ROOT
HETATM    1  C           1     -20.705  -5.319  -7.002  0.00  0.00     0.249 C 
HETATM    2  N           1     -21.051  -5.070  -5.701  0.00  0.00    -0.344 N 
HETATM    3  H           1     -21.325  -4.137  -5.421  0.00  0.00     0.163 HD
HETATM    4  O           1     -20.377  -6.433  -7.337  0.00  0.00    -0.271 OA
ENDROOT
BRANCH   2   5
HETATM    5  C           1     -21.024  -6.142  -4.725  0.00  0.00     0.189 C 
BRANCH   5   6
HETATM    6  C           1     -22.265  -6.986  -4.873  0.00  0.00     0.197 C 
HETATM    7  O           1     -23.393  -6.449  -4.856  0.00  0.00    -0.646 OA
HETATM    8  O           1     -22.165  -8.225  -5.012  0.00  0.00    -0.646 OA
ENDBRANCH   5   6
BRANCH   5   9
HETATM    9  C           1     -20.974  -5.550  -3.323  0.00  0.00     0.074 C 
BRANCH   9  10
HETATM   10  C           1     -21.201  -6.633  -2.315  0.00  0.00    -0.056 A 
HETATM   11  C           1     -22.273  -6.545  -1.426  0.00  0.00     0.010 A 
HETATM   12  C           1     -22.485  -7.554  -0.487  0.00  0.00     0.037 A 
HETATM   13  C           1     -21.625  -8.652  -0.437  0.00  0.00     0.065 A 
HETATM   14  C           1     -20.554  -8.740  -1.325  0.00  0.00     0.037 A 
HETATM   15  C           1     -20.342  -7.730  -2.265  0.00  0.00     0.010 A 
BRANCH  13  16
HETATM   16  O           1     -21.831  -9.633   0.475  0.00  0.00    -0.361 OA
HETATM   17  H           1     -22.270 -10.374   0.026  0.00  0.00     0.217 HD
ENDBRANCH  13  16
ENDBRANCH   9  10
ENDBRANCH   5   9
ENDBRANCH   2   5
BRANCH   1  18
HETATM   18  C           1     -20.734  -4.203  -8.017  0.00  0.00     0.275 C 
BRANCH  18  19
HETATM   19  C           1     -22.172  -3.750  -8.234  0.00  0.00     0.052 C 
BRANCH  19  20
HETATM   20  C           1     -22.465  -3.683  -9.726  0.00  0.00     0.105 C 
BRANCH  20  21
HETATM   21  C           1     -23.798  -4.332 -10.008  0.00  0.00     0.215 C 
HETATM   22  O           1     -23.843  -5.393 -10.585  0.00  0.00    -0.274 OA
HETATM   23  N           1     -24.956  -3.720  -9.610  0.00  0.00    -0.370 N 
HETATM   24  H           1     -24.919  -2.833  -9.127  0.00  0.00     0.159 HD
HETATM   25  H           1     -25.849  -4.157  -9.799  0.00  0.00     0.159 HD
ENDBRANCH  20  21
ENDBRANCH  19  20
ENDBRANCH  18  19
BRANCH  18  26
HETATM   26  N           1     -20.165  -4.694  -9.315  0.00  0.00    -0.066 N 
HETATM   27  H           1     -19.875  -3.879  -9.901  0.00  0.00     0.275 HD
HETATM   28  H           1     -20.889  -5.250  -9.824  0.00  0.00     0.275 HD
HETATM   29  H           1     -19.333  -5.298  -9.124  0.00  0.00     0.275 HD
ENDBRANCH  18  26
ENDBRANCH   1  18
TORSDOF 10
ENDMDL
MODEL 9
REMARK VINA RESULT:      -6.4     15.293     17.508
REMARK  10 active torsions:
REMARK  status: ('A' for Active; 'I' for Inactive)
REMARK       I    between atoms: C_3  and  N_4 
REMARK    1  A    between atoms: C_3  and  C_17 
REMARK    2  A    between atoms: N_4  and  C_12 
REMARK    3  A    between atoms: C_6  and  O_10 
REMARK    4  A    between atoms: C_11  and  C_12 
REMARK    5  A    between atoms: C_12  and  C_28 
REMARK    6  A    between atoms: C_13  and  C_28 
REMARK    7  A    between atoms: C_14  and  C_17 
REMARK    8  A    between atoms: C_14  and  C_25 
REMARK    9  A    between atoms: C_17  and  N_21 
REMARK       I    between atoms: N_23  and  C_24 
REMARK   10  A    between atoms: C_24  and  C_25 
ROOT
HETATM    1  C           1     -20.833  -6.263  -6.010  0.00  0.00     0.249 C 
HETATM    2  N           1     -20.647  -7.616  -5.903  0.00  0.00    -0.344 N 
HETATM    3  H           1     -20.781  -8.210  -6.711  0.00  0.00     0.163 HD
HETATM    4  O           1     -20.672  -5.553  -5.046  0.00  0.00    -0.271 OA
ENDROOT
BRANCH   2   5
HETATM    5  C           1     -20.257  -8.196  -4.633  0.00  0.00     0.189 C 
BRANCH   5   6
HETATM    6  C           1     -18.980  -8.979  -4.809  0.00  0.00     0.197 C 
HETATM    7  O           1     -18.599  -9.306  -5.954  0.00  0.00    -0.646 OA
HETATM    8  O           1     -18.302  -9.301  -3.809  0.00  0.00    -0.646 OA
ENDBRANCH   5   6
BRANCH   5   9
HETATM    9  C           1     -21.360  -9.123  -4.140  0.00  0.00     0.074 C 
BRANCH   9  10
HETATM   10  C           1     -21.689  -8.796  -2.717  0.00  0.00    -0.056 A 
HETATM   11  C           1     -22.017  -9.818  -1.825  0.00  0.00     0.010 A 
HETATM   12  C           1     -22.324  -9.514  -0.499  0.00  0.00     0.037 A 
HETATM   13  C           1     -22.301  -8.188  -0.064  0.00  0.00     0.065 A 
HETATM   14  C           1     -21.974  -7.167  -0.956  0.00  0.00     0.037 A 
HETATM   15  C           1     -21.667  -7.472  -2.282  0.00  0.00     0.010 A 
BRANCH  13  16
HETATM   16  O           1     -22.599  -7.893   1.225  0.00  0.00    -0.361 OA
HETATM   17  H           1     -21.789  -7.569   1.653  0.00  0.00     0.217 HD
ENDBRANCH  13  16
ENDBRANCH   9  10
ENDBRANCH   5   9
ENDBRANCH   2   5
BRANCH   1  18
HETATM   18  C           1     -21.238  -5.660  -7.333  0.00  0.00     0.275 C 
BRANCH  18  19
HETATM   19  C           1     -20.013  -5.063  -8.016  0.00  0.00     0.052 C 
BRANCH  19  20
HETATM   20  C           1     -20.408  -3.785  -8.742  0.00  0.00     0.105 C 
BRANCH  20  21
HETATM   21  C           1     -20.643  -4.087 -10.202  0.00  0.00     0.215 C 
HETATM   22  O           1     -19.917  -4.858 -10.784  0.00  0.00    -0.274 OA
HETATM   23  N           1     -21.677  -3.487 -10.867  0.00  0.00    -0.370 N 
HETATM   24  H           1     -22.285  -2.841 -10.381  0.00  0.00     0.159 HD
HETATM   25  H           1     -21.835  -3.690 -11.847  0.00  0.00     0.159 HD
ENDBRANCH  20  21
ENDBRANCH  19  20
ENDBRANCH  18  19
BRANCH  18  26
HETATM   26  N           1     -22.253  -4.582  -7.099  0.00  0.00    -0.066 N 
HETATM   27  H           1     -22.003  -4.048  -6.237  0.00  0.00     0.275 HD
HETATM   28  H           1     -23.198  -5.013  -6.981  0.00  0.00     0.275 HD
HETATM   29  H           1     -22.268  -3.932  -7.919  0.00  0.00     0.275 HD
ENDBRANCH  18  26
ENDBRANCH   1  18
TORSDOF 10
ENDMDL
