MODEL 1
REMARK VINA RESULT:      -7.4      0.000      0.000
REMARK  11 active torsions:
REMARK  status: ('A' for Active; 'I' for Inactive)
REMARK    1  A    between atoms: N_3  and  C_6 
REMARK    2  A    between atoms: Se_4  and  C_5 
REMARK    3  A    between atoms: C_5  and  C_6 
REMARK    4  A    between atoms: C_6  and  C_7 
REMARK       I    between atoms: C_7  and  N_8 
REMARK    5  A    between atoms: N_8  and  C_21 
REMARK    6  A    between atoms: O_12  and  P_14 
REMARK    7  A    between atoms: P_14  and  O_15 
REMARK    8  A    between atoms: O_15  and  C_16 
REMARK    9  A    between atoms: C_19  and  C_20 
REMARK   10  A    between atoms: C_20  and  C_21 
REMARK   11  A    between atoms: C_21  and  C_23 
ROOT
HETATM    1  C           1     -32.474  -4.351 -16.242  0.00  0.00     0.189 C 
ENDROOT
BRANCH   1   2
HETATM    2  N           1     -33.793  -4.568 -15.680  0.00  0.00    -0.344 N 
HETATM    3  C           1     -34.139  -3.970 -14.498  0.00  0.00     0.249 C 
HETATM    4  O           1     -34.652  -2.876 -14.501  0.00  0.00    -0.271 OA
HETATM    5  H           1     -34.457  -5.160 -16.161  0.00  0.00     0.163 HD
BRANCH   3   6
HETATM    6  C           1     -33.882  -4.679 -13.190  0.00  0.00     0.274 C 
BRANCH   6   7
HETATM    7  N           1     -32.442  -4.503 -12.803  0.00  0.00    -0.067 N 
HETATM    8  H           1     -31.875  -4.293 -13.656  0.00  0.00     0.275 HD
HETATM    9  H           1     -32.359  -3.711 -12.127  0.00  0.00     0.275 HD
HETATM   10  H           1     -32.091  -5.381 -12.359  0.00  0.00     0.275 HD
ENDBRANCH   6   7
BRANCH   6  11
HETATM   11  C           1     -34.773  -4.085 -12.107  0.00  0.00     0.045 C 
BRANCH  11  12
HETATM   12 Se           1     -33.703  -2.968 -10.923  0.00  0.00     0.000 Se
HETATM   13  H           1     -33.905  -1.739 -11.709  0.00  0.00     0.000 HD
ENDBRANCH  11  12
ENDBRANCH   6  11
ENDBRANCH   3   6
ENDBRANCH   1   2
BRANCH   1  14
HETATM   14  C           1     -31.954  -5.656 -16.832  0.00  0.00     0.074 C 
BRANCH  14  15
HETATM   15  C           1     -30.456  -5.644 -16.830  0.00  0.00    -0.056 A 
HETATM   16  C           1     -29.764  -5.184 -15.710  0.00  0.00     0.010 A 
HETATM   17  C           1     -28.369  -5.173 -15.709  0.00  0.00     0.038 A 
HETATM   18  C           1     -27.667  -5.621 -16.827  0.00  0.00     0.081 A 
HETATM   19  C           1     -28.360  -6.082 -17.947  0.00  0.00     0.038 A 
HETATM   20  C           1     -29.755  -6.093 -17.948  0.00  0.00     0.010 A 
BRANCH  18  21
HETATM   21  O           1     -26.312  -5.611 -16.826  0.00  0.00    -0.247 OA
BRANCH  21  22
HETATM   22  P           1     -25.547  -6.704 -15.916  0.00  0.00     0.411 P 
HETATM   23  O           1     -26.528  -7.676 -15.383  0.00  0.00    -0.624 OA
HETATM   24  O           1     -24.544  -7.417 -16.738  0.00  0.00    -0.624 OA
BRANCH  22  25
HETATM   25  O           1     -24.806  -5.958 -14.690  0.00  0.00    -0.300 OA
HETATM   26  H           1     -25.066  -6.436 -13.921  0.00  0.00     0.223 HD
ENDBRANCH  22  25
ENDBRANCH  21  22
ENDBRANCH  18  21
ENDBRANCH  14  15
ENDBRANCH   1  14
BRANCH   1  27
HETATM   27  C           1     -32.556  -3.306 -17.328  0.00  0.00     0.197 C 
HETATM   28  O           1     -33.648  -2.753 -17.581  0.00  0.00    -0.646 OA
HETATM   29  O           1     -31.532  -2.994 -17.973  0.00  0.00    -0.646 OA
ENDBRANCH   1  27
TORSDOF 11
ENDMDL
MODEL 2
REMARK VINA RESULT:      -6.7     11.914     14.404
REMARK  11 active torsions:
REMARK  status: ('A' for Active; 'I' for Inactive)
REMARK    1  A    between atoms: N_3  and  C_6 
REMARK    2  A    between atoms: Se_4  and  C_5 
REMARK    3  A    between atoms: C_5  and  C_6 
REMARK    4  A    between atoms: C_6  and  C_7 
REMARK       I    between atoms: C_7  and  N_8 
REMARK    5  A    between atoms: N_8  and  C_21 
REMARK    6  A    between atoms: O_12  and  P_14 
REMARK    7  A    between atoms: P_14  and  O_15 
REMARK    8  A    between atoms: O_15  and  C_16 
REMARK    9  A    between atoms: C_19  and  C_20 
REMARK   10  A    between atoms: C_20  and  C_21 
REMARK   11  A    between atoms: C_21  and  C_23 
ROOT
HETATM    1  C           1     -21.104  -7.842  -5.437  0.00  0.00     0.189 C 
ENDROOT
BRANCH   1   2
HETATM    2  N           1     -22.140  -7.697  -4.433  0.00  0.00    -0.344 N 
HETATM    3  C           1     -21.840  -7.145  -3.216  0.00  0.00     0.249 C 
HETATM    4  O           1     -21.938  -5.952  -3.053  0.00  0.00    -0.271 OA
HETATM    5  H           1     -23.084  -8.003  -4.631  0.00  0.00     0.163 HD
BRANCH   3   6
HETATM    6  C           1     -21.390  -8.028  -2.078  0.00  0.00     0.274 C 
BRANCH   6   7
HETATM    7  N           1     -19.903  -7.907  -1.913  0.00  0.00    -0.067 N 
HETATM    8  H           1     -19.428  -8.640  -2.487  0.00  0.00     0.275 HD
HETATM    9  H           1     -19.594  -6.962  -2.232  0.00  0.00     0.275 HD
HETATM   10  H           1     -19.653  -8.037  -0.907  0.00  0.00     0.275 HD
ENDBRANCH   6   7
BRANCH   6  11
HETATM   11  C           1     -22.079  -7.589  -0.792  0.00  0.00     0.045 C 
BRANCH  11  12
HETATM   12 Se           1     -21.447  -8.683   0.691  0.00  0.00     0.000 Se
HETATM   13  H           1     -22.798  -9.059   1.141  0.00  0.00     0.000 HD
ENDBRANCH  11  12
ENDBRANCH   6  11
ENDBRANCH   3   6
ENDBRANCH   1   2
BRANCH   1  14
HETATM   14  C           1     -20.327  -6.537  -5.555  0.00  0.00     0.074 C 
BRANCH  14  15
HETATM   15  C           1     -20.910  -5.707  -6.658  0.00  0.00    -0.056 A 
HETATM   16  C           1     -20.210  -5.546  -7.853  0.00  0.00     0.010 A 
HETATM   17  C           1     -20.753  -4.773  -8.880  0.00  0.00     0.038 A 
HETATM   18  C           1     -21.995  -4.161  -8.710  0.00  0.00     0.081 A 
HETATM   19  C           1     -22.695  -4.323  -7.515  0.00  0.00     0.038 A 
HETATM   20  C           1     -22.151  -5.096  -6.488  0.00  0.00     0.010 A 
BRANCH  18  21
HETATM   21  O           1     -22.522  -3.411  -9.708  0.00  0.00    -0.247 OA
BRANCH  21  22
HETATM   22  P           1     -23.541  -4.126 -10.736  0.00  0.00     0.411 P 
HETATM   23  O           1     -22.896  -4.252 -12.062  0.00  0.00    -0.624 OA
HETATM   24  O           1     -23.893  -5.471 -10.230  0.00  0.00    -0.624 OA
BRANCH  22  25
HETATM   25  O           1     -24.881  -3.235 -10.872  0.00  0.00    -0.300 OA
HETATM   26  H           1     -24.938  -2.755 -10.062  0.00  0.00     0.223 HD
ENDBRANCH  22  25
ENDBRANCH  21  22
ENDBRANCH  18  21
ENDBRANCH  14  15
ENDBRANCH   1  14
BRANCH   1  27
HETATM   27  C           1     -20.165  -8.952  -5.034  0.00  0.00     0.197 C 
HETATM   28  O           1     -18.999  -8.684  -4.672  0.00  0.00    -0.646 OA
HETATM   29  O           1     -20.553 -10.140  -5.062  0.00  0.00    -0.646 OA
ENDBRANCH   1  27
TORSDOF 11
ENDMDL
MODEL 3
REMARK VINA RESULT:      -6.5     12.889     15.256
REMARK  11 active torsions:
REMARK  status: ('A' for Active; 'I' for Inactive)
REMARK    1  A    between atoms: N_3  and  C_6 
REMARK    2  A    between atoms: Se_4  and  C_5 
REMARK    3  A    between atoms: C_5  and  C_6 
REMARK    4  A    between atoms: C_6  and  C_7 
REMARK       I    between atoms: C_7  and  N_8 
REMARK    5  A    between atoms: N_8  and  C_21 
REMARK    6  A    between atoms: O_12  and  P_14 
REMARK    7  A    between atoms: P_14  and  O_15 
REMARK    8  A    between atoms: O_15  and  C_16 
REMARK    9  A    between atoms: C_19  and  C_20 
REMARK   10  A    between atoms: C_20  and  C_21 
REMARK   11  A    between atoms: C_21  and  C_23 
ROOT
HETATM    1  C           1     -20.747  -5.060  -6.183  0.00  0.00     0.189 C 
ENDROOT
BRANCH   1   2
HETATM    2  N           1     -21.586  -4.033  -6.770  0.00  0.00    -0.344 N 
HETATM    3  C           1     -22.758  -4.379  -7.388  0.00  0.00     0.249 C 
HETATM    4  O           1     -23.785  -4.429  -6.752  0.00  0.00    -0.271 OA
HETATM    5  H           1     -21.306  -3.062  -6.721  0.00  0.00     0.163 HD
BRANCH   3   6
HETATM    6  C           1     -22.769  -4.694  -8.863  0.00  0.00     0.274 C 
BRANCH   6   7
HETATM    7  N           1     -24.150  -4.479  -9.409  0.00  0.00    -0.067 N 
HETATM    8  H           1     -24.178  -3.582  -9.943  0.00  0.00     0.275 HD
HETATM    9  H           1     -24.399  -5.270 -10.045  0.00  0.00     0.275 HD
HETATM   10  H           1     -24.834  -4.436  -8.620  0.00  0.00     0.275 HD
ENDBRANCH   6   7
BRANCH   6  11
HETATM   11  C           1     -21.791  -3.777  -9.586  0.00  0.00     0.045 C 
BRANCH  11  12
HETATM   12 Se           1     -21.764  -4.218 -11.483  0.00  0.00     0.000 Se
HETATM   13  H           1     -23.017  -4.990 -11.440  0.00  0.00     0.000 HD
ENDBRANCH  11  12
ENDBRANCH   6  11
ENDBRANCH   3   6
ENDBRANCH   1   2
BRANCH   1  14
HETATM   14  C           1     -21.574  -6.318  -5.949  0.00  0.00     0.074 C 
BRANCH  14  15
HETATM   15  C           1     -21.342  -6.815  -4.555  0.00  0.00    -0.056 A 
HETATM   16  C           1     -21.952  -6.175  -3.476  0.00  0.00     0.010 A 
HETATM   17  C           1     -21.736  -6.639  -2.178  0.00  0.00     0.038 A 
HETATM   18  C           1     -20.910  -7.742  -1.960  0.00  0.00     0.081 A 
HETATM   19  C           1     -20.301  -8.382  -3.040  0.00  0.00     0.038 A 
HETATM   20  C           1     -20.517  -7.918  -4.337  0.00  0.00     0.010 A 
BRANCH  18  21
HETATM   21  O           1     -20.701  -8.193  -0.700  0.00  0.00    -0.247 OA
BRANCH  21  22
HETATM   22  P           1     -21.873  -9.054   0.001  0.00  0.00     0.411 P 
HETATM   23  O           1     -22.656  -9.760  -1.038  0.00  0.00    -0.624 OA
HETATM   24  O           1     -21.275 -10.044   0.925  0.00  0.00    -0.624 OA
BRANCH  22  25
HETATM   25  O           1     -22.845  -8.065   0.829  0.00  0.00    -0.300 OA
HETATM   26  H           1     -23.585  -8.596   1.071  0.00  0.00     0.223 HD
ENDBRANCH  22  25
ENDBRANCH  21  22
ENDBRANCH  18  21
ENDBRANCH  14  15
ENDBRANCH   1  14
BRANCH   1  27
HETATM   27  C           1     -19.608  -5.375  -7.123  0.00  0.00     0.197 C 
HETATM   28  O           1     -18.872  -4.456  -7.543  0.00  0.00    -0.646 OA
HETATM   29  O           1     -19.402  -6.554  -7.482  0.00  0.00    -0.646 OA
ENDBRANCH   1  27
TORSDOF 11
ENDMDL
MODEL 4
REMARK VINA RESULT:      -6.1     12.096     14.568
REMARK  11 active torsions:
REMARK  status: ('A' for Active; 'I' for Inactive)
REMARK    1  A    between atoms: N_3  and  C_6 
REMARK    2  A    between atoms: Se_4  and  C_5 
REMARK    3  A    between atoms: C_5  and  C_6 
REMARK    4  A    between atoms: C_6  and  C_7 
REMARK       I    between atoms: C_7  and  N_8 
REMARK    5  A    between atoms: N_8  and  C_21 
REMARK    6  A    between atoms: O_12  and  P_14 
REMARK    7  A    between atoms: P_14  and  O_15 
REMARK    8  A    between atoms: O_15  and  C_16 
REMARK    9  A    between atoms: C_19  and  C_20 
REMARK   10  A    between atoms: C_20  and  C_21 
REMARK   11  A    between atoms: C_21  and  C_23 
ROOT
HETATM    1  C           1     -20.955  -7.128  -4.000  0.00  0.00     0.189 C 
ENDROOT
BRANCH   1   2
HETATM    2  N           1     -20.358  -8.450  -3.980  0.00  0.00    -0.344 N 
HETATM    3  C           1     -20.994  -9.497  -4.593  0.00  0.00     0.249 C 
HETATM    4  O           1     -20.769  -9.744  -5.754  0.00  0.00    -0.271 OA
HETATM    5  H           1     -19.472  -8.599  -3.514  0.00  0.00     0.163 HD
BRANCH   3   6
HETATM    6  C           1     -21.974 -10.342  -3.817  0.00  0.00     0.274 C 
BRANCH   6   7
HETATM    7  N           1     -22.248 -11.609  -4.575  0.00  0.00    -0.067 N 
HETATM    8  H           1     -22.682 -11.377  -5.497  0.00  0.00     0.275 HD
HETATM    9  H           1     -21.350 -12.120  -4.732  0.00  0.00     0.275 HD
HETATM   10  H           1     -22.901 -12.210  -4.024  0.00  0.00     0.275 HD
ENDBRANCH   6   7
BRANCH   6  11
HETATM   11  C           1     -21.383 -10.685  -2.456  0.00  0.00     0.045 C 
BRANCH  11  12
HETATM   12 Se           1     -22.741 -10.455  -1.079  0.00  0.00     0.000 Se
HETATM   13  H           1     -22.066  -9.314  -0.439  0.00  0.00     0.000 HD
ENDBRANCH  11  12
ENDBRANCH   6  11
ENDBRANCH   3   6
ENDBRANCH   1   2
BRANCH   1  14
HETATM   14  C           1     -22.125  -7.116  -4.976  0.00  0.00     0.074 C 
BRANCH  14  15
HETATM   15  C           1     -21.841  -6.148  -6.083  0.00  0.00    -0.056 A 
HETATM   16  C           1     -20.633  -6.216  -6.777  0.00  0.00     0.010 A 
HETATM   17  C           1     -20.370  -5.314  -7.808  0.00  0.00     0.038 A 
HETATM   18  C           1     -21.314  -4.345  -8.145  0.00  0.00     0.081 A 
HETATM   19  C           1     -22.523  -4.277  -7.451  0.00  0.00     0.038 A 
HETATM   20  C           1     -22.786  -5.179  -6.420  0.00  0.00     0.010 A 
BRANCH  18  21
HETATM   21  O           1     -21.059  -3.469  -9.147  0.00  0.00    -0.247 OA
BRANCH  21  22
HETATM   22  P           1     -21.436  -3.911 -10.654  0.00  0.00     0.411 P 
HETATM   23  O           1     -21.694  -2.705 -11.472  0.00  0.00    -0.624 OA
HETATM   24  O           1     -20.312  -4.674 -11.242  0.00  0.00    -0.624 OA
BRANCH  22  25
HETATM   25  O           1     -22.758  -4.837 -10.627  0.00  0.00    -0.300 OA
HETATM   26  H           1     -23.429  -4.294 -10.247  0.00  0.00     0.223 HD
ENDBRANCH  22  25
ENDBRANCH  21  22
ENDBRANCH  18  21
ENDBRANCH  14  15
ENDBRANCH   1  14
BRANCH   1  27
HETATM   27  C           1     -21.449  -6.779  -2.618  0.00  0.00     0.197 C 
HETATM   28  O           1     -22.371  -5.948  -2.475  0.00  0.00    -0.646 OA
HETATM   29  O           1     -20.935  -7.321  -1.616  0.00  0.00    -0.646 OA
ENDBRANCH   1  27
TORSDOF 11
ENDMDL
MODEL 5
REMARK VINA RESULT:      -5.9     12.225     14.791
REMARK  11 active torsions:
REMARK  status: ('A' for Active; 'I' for Inactive)
REMARK    1  A    between atoms: N_3  and  C_6 
REMARK    2  A    between atoms: Se_4  and  C_5 
REMARK    3  A    between atoms: C_5  and  C_6 
REMARK    4  A    between atoms: C_6  and  C_7 
REMARK       I    between atoms: C_7  and  N_8 
REMARK    5  A    between atoms: N_8  and  C_21 
REMARK    6  A    between atoms: O_12  and  P_14 
REMARK    7  A    between atoms: P_14  and  O_15 
REMARK    8  A    between atoms: O_15  and  C_16 
REMARK    9  A    between atoms: C_19  and  C_20 
REMARK   10  A    between atoms: C_20  and  C_21 
REMARK   11  A    between atoms: C_21  and  C_23 
ROOT
HETATM    1  C           1     -21.273  -8.324  -5.380  0.00  0.00     0.189 C 
ENDROOT
BRANCH   1   2
HETATM    2  N           1     -21.774  -8.459  -4.026  0.00  0.00    -0.344 N 
HETATM    3  C           1     -20.955  -8.185  -2.964  0.00  0.00     0.249 C 
HETATM    4  O           1     -20.907  -7.066  -2.511  0.00  0.00    -0.271 OA
HETATM    5  H           1     -22.729  -8.755  -3.867  0.00  0.00     0.163 HD
BRANCH   3   6
HETATM    6  C           1     -20.115  -9.281  -2.357  0.00  0.00     0.274 C 
BRANCH   6   7
HETATM    7  N           1     -20.561 -10.608  -2.898  0.00  0.00    -0.067 N 
HETATM    8  H           1     -21.602 -10.678  -2.836  0.00  0.00     0.275 HD
HETATM    9  H           1     -20.266 -10.693  -3.897  0.00  0.00     0.275 HD
HETATM   10  H           1     -20.126 -11.377  -2.339  0.00  0.00     0.275 HD
ENDBRANCH   6   7
BRANCH   6  11
HETATM   11  C           1     -18.651  -9.056  -2.712  0.00  0.00     0.045 C 
BRANCH  11  12
HETATM   12 Se           1     -17.729 -10.770  -2.791  0.00  0.00     0.000 Se
HETATM   13  H           1     -18.966 -11.567  -2.823  0.00  0.00     0.000 HD
ENDBRANCH  11  12
ENDBRANCH   6  11
ENDBRANCH   3   6
ENDBRANCH   1   2
BRANCH   1  14
HETATM   14  C           1     -20.329  -7.131  -5.455  0.00  0.00     0.074 C 
BRANCH  14  15
HETATM   15  C           1     -20.880  -6.117  -6.409  0.00  0.00    -0.056 A 
HETATM   16  C           1     -22.134  -5.551  -6.177  0.00  0.00     0.010 A 
HETATM   17  C           1     -22.647  -4.606  -7.067  0.00  0.00     0.038 A 
HETATM   18  C           1     -21.906  -4.228  -8.186  0.00  0.00     0.081 A 
HETATM   19  C           1     -20.652  -4.793  -8.417  0.00  0.00     0.038 A 
HETATM   20  C           1     -20.139  -5.738  -7.527  0.00  0.00     0.010 A 
BRANCH  18  21
HETATM   21  O           1     -22.404  -3.309  -9.049  0.00  0.00    -0.247 OA
BRANCH  21  22
HETATM   22  P           1     -23.182  -3.844 -10.359  0.00  0.00     0.411 P 
HETATM   23  O           1     -23.562  -5.261 -10.164  0.00  0.00    -0.624 OA
HETATM   24  O           1     -24.400  -3.032 -10.577  0.00  0.00    -0.624 OA
BRANCH  22  25
HETATM   25  O           1     -22.214  -3.718 -11.646  0.00  0.00    -0.300 OA
HETATM   26  H           1     -22.603  -3.045 -12.179  0.00  0.00     0.223 HD
ENDBRANCH  22  25
ENDBRANCH  21  22
ENDBRANCH  18  21
ENDBRANCH  14  15
ENDBRANCH   1  14
BRANCH   1  27
HETATM   27  C           1     -20.530  -9.579  -5.768  0.00  0.00     0.197 C 
HETATM   28  O           1     -21.160 -10.635  -5.995  0.00  0.00    -0.646 OA
HETATM   29  O           1     -19.283  -9.563  -5.862  0.00  0.00    -0.646 OA
ENDBRANCH   1  27
TORSDOF 11
ENDMDL
MODEL 6
REMARK VINA RESULT:      -5.8     14.732     17.016
REMARK  11 active torsions:
REMARK  status: ('A' for Active; 'I' for Inactive)
REMARK    1  A    between atoms: N_3  and  C_6 
REMARK    2  A    between atoms: Se_4  and  C_5 
REMARK    3  A    between atoms: C_5  and  C_6 
REMARK    4  A    between atoms: C_6  and  C_7 
REMARK       I    between atoms: C_7  and  N_8 
REMARK    5  A    between atoms: N_8  and  C_21 
REMARK    6  A    between atoms: O_12  and  P_14 
REMARK    7  A    between atoms: P_14  and  O_15 
REMARK    8  A    between atoms: O_15  and  C_16 
REMARK    9  A    between atoms: C_19  and  C_20 
REMARK   10  A    between atoms: C_20  and  C_21 
REMARK   11  A    between atoms: C_21  and  C_23 
ROOT
HETATM    1  C           1     -21.207  -9.341  -0.683  0.00  0.00     0.189 C 
ENDROOT
BRANCH   1   2
HETATM    2  N           1     -22.600  -9.583  -1.005  0.00  0.00    -0.344 N 
HETATM    3  C           1     -23.099 -10.858  -0.968  0.00  0.00     0.249 C 
HETATM    4  O           1     -23.573 -11.292   0.055  0.00  0.00    -0.271 OA
HETATM    5  H           1     -23.204  -8.810  -1.255  0.00  0.00     0.163 HD
BRANCH   3   6
HETATM    6  C           1     -23.058 -11.719  -2.206  0.00  0.00     0.274 C 
BRANCH   6   7
HETATM    7  N           1     -22.783 -10.858  -3.404  0.00  0.00    -0.067 N 
HETATM    8  H           1     -21.775 -10.583  -3.412  0.00  0.00     0.275 HD
HETATM    9  H           1     -23.005 -11.392  -4.274  0.00  0.00     0.275 HD
HETATM   10  H           1     -23.378 -10.000  -3.359  0.00  0.00     0.275 HD
ENDBRANCH   6   7
BRANCH   6  11
HETATM   11  C           1     -21.952 -12.757  -2.066  0.00  0.00     0.045 C 
BRANCH  11  12
HETATM   12 Se           1     -20.406 -12.209  -3.118  0.00  0.00     0.000 Se
HETATM   13  H           1     -19.723 -11.557  -1.988  0.00  0.00     0.000 HD
ENDBRANCH  11  12
ENDBRANCH   6  11
ENDBRANCH   3   6
ENDBRANCH   1   2
BRANCH   1  14
HETATM   14  C           1     -20.862  -7.889  -0.990  0.00  0.00     0.074 C 
BRANCH  14  15
HETATM   15  C           1     -20.941  -7.658  -2.468  0.00  0.00    -0.056 A 
HETATM   16  C           1     -20.106  -8.370  -3.330  0.00  0.00     0.010 A 
HETATM   17  C           1     -20.180  -8.155  -4.706  0.00  0.00     0.038 A 
HETATM   18  C           1     -21.088  -7.229  -5.220  0.00  0.00     0.081 A 
HETATM   19  C           1     -21.923  -6.518  -4.358  0.00  0.00     0.038 A 
HETATM   20  C           1     -21.849  -6.733  -2.981  0.00  0.00     0.010 A 
BRANCH  18  21
HETATM   21  O           1     -21.160  -7.021  -6.557  0.00  0.00    -0.247 OA
BRANCH  21  22
HETATM   22  P           1     -20.733  -5.569  -7.122  0.00  0.00     0.411 P 
HETATM   23  O           1     -20.058  -5.728  -8.429  0.00  0.00    -0.624 OA
HETATM   24  O           1     -21.940  -4.729  -7.290  0.00  0.00    -0.624 OA
BRANCH  22  25
HETATM   25  O           1     -19.726  -4.861  -6.077  0.00  0.00    -0.300 OA
HETATM   26  H           1     -20.227  -4.164  -5.689  0.00  0.00     0.223 HD
ENDBRANCH  22  25
ENDBRANCH  21  22
ENDBRANCH  18  21
ENDBRANCH  14  15
ENDBRANCH   1  14
BRANCH   1  27
HETATM   27  C           1     -20.975  -9.614   0.783  0.00  0.00     0.197 C 
HETATM   28  O           1     -21.264  -8.745   1.634  0.00  0.00    -0.646 OA
HETATM   29  O           1     -20.493 -10.709   1.145  0.00  0.00    -0.646 OA
ENDBRANCH   1  27
TORSDOF 11
ENDMDL
MODEL 7
REMARK VINA RESULT:      -5.8     16.808     18.772
REMARK  11 active torsions:
REMARK  status: ('A' for Active; 'I' for Inactive)
REMARK    1  A    between atoms: N_3  and  C_6 
REMARK    2  A    between atoms: Se_4  and  C_5 
REMARK    3  A    between atoms: C_5  and  C_6 
REMARK    4  A    between atoms: C_6  and  C_7 
REMARK       I    between atoms: C_7  and  N_8 
REMARK    5  A    between atoms: N_8  and  C_21 
REMARK    6  A    between atoms: O_12  and  P_14 
REMARK    7  A    between atoms: P_14  and  O_15 
REMARK    8  A    between atoms: O_15  and  C_16 
REMARK    9  A    between atoms: C_19  and  C_20 
REMARK   10  A    between atoms: C_20  and  C_21 
REMARK   11  A    between atoms: C_21  and  C_23 
ROOT
HETATM    1  C           1     -21.501  -8.026  -1.696  0.00  0.00     0.189 C 
ENDROOT
BRANCH   1   2
HETATM    2  N           1     -20.094  -8.096  -2.039  0.00  0.00    -0.344 N 
HETATM    3  C           1     -19.669  -8.958  -3.015  0.00  0.00     0.249 C 
HETATM    4  O           1     -19.621  -8.592  -4.165  0.00  0.00    -0.271 OA
HETATM    5  H           1     -19.426  -7.507  -1.559  0.00  0.00     0.163 HD
BRANCH   3   6
HETATM    6  C           1     -19.260 -10.364  -2.652  0.00  0.00     0.274 C 
BRANCH   6   7
HETATM    7  N           1     -20.397 -11.302  -2.934  0.00  0.00    -0.067 N 
HETATM    8  H           1     -20.026 -12.271  -3.062  0.00  0.00     0.275 HD
HETATM    9  H           1     -21.064 -11.290  -2.130  0.00  0.00     0.275 HD
HETATM   10  H           1     -20.891 -11.000  -3.804  0.00  0.00     0.275 HD
ENDBRANCH   6   7
BRANCH   6  11
HETATM   11  C           1     -18.050 -10.771  -3.484  0.00  0.00     0.045 C 
BRANCH  11  12
HETATM   12 Se           1     -16.484  -9.779  -2.886  0.00  0.00     0.000 Se
HETATM   13  H           1     -16.446 -10.413  -1.558  0.00  0.00     0.000 HD
ENDBRANCH  11  12
ENDBRANCH   6  11
ENDBRANCH   3   6
ENDBRANCH   1   2
BRANCH   1  14
HETATM   14  C           1     -21.671  -8.280  -0.203  0.00  0.00     0.074 C 
BRANCH  14  15
HETATM   15  C           1     -22.121  -9.691   0.016  0.00  0.00    -0.056 A 
HETATM   16  C           1     -23.432 -10.060  -0.289  0.00  0.00     0.010 A 
HETATM   17  C           1     -23.851 -11.375  -0.085  0.00  0.00     0.038 A 
HETATM   18  C           1     -22.960 -12.320   0.424  0.00  0.00     0.081 A 
HETATM   19  C           1     -21.649 -11.951   0.728  0.00  0.00     0.038 A 
HETATM   20  C           1     -21.230 -10.636   0.524  0.00  0.00     0.010 A 
BRANCH  18  21
HETATM   21  O           1     -23.367 -13.597   0.621  0.00  0.00    -0.247 OA
BRANCH  21  22
HETATM   22  P           1     -23.464 -14.569  -0.665  0.00  0.00     0.411 P 
HETATM   23  O           1     -24.852 -14.574  -1.177  0.00  0.00    -0.624 OA
HETATM   24  O           1     -22.550 -14.082  -1.723  0.00  0.00    -0.624 OA
BRANCH  22  25
HETATM   25  O           1     -23.041 -16.068  -0.238  0.00  0.00    -0.300 OA
HETATM   26  H           1     -23.512 -16.632  -0.829  0.00  0.00     0.223 HD
ENDBRANCH  22  25
ENDBRANCH  21  22
ENDBRANCH  18  21
ENDBRANCH  14  15
ENDBRANCH   1  14
BRANCH   1  27
HETATM   27  C           1     -22.034  -6.656  -2.037  0.00  0.00     0.197 C 
HETATM   28  O           1     -22.109  -6.295  -3.232  0.00  0.00    -0.646 OA
HETATM   29  O           1     -22.400  -5.883  -1.126  0.00  0.00    -0.646 OA
ENDBRANCH   1  27
TORSDOF 11
ENDMDL
MODEL 8
REMARK VINA RESULT:      -5.8     13.390     15.710
REMARK  11 active torsions:
REMARK  status: ('A' for Active; 'I' for Inactive)
REMARK    1  A    between atoms: N_3  and  C_6 
REMARK    2  A    between atoms: Se_4  and  C_5 
REMARK    3  A    between atoms: C_5  and  C_6 
REMARK    4  A    between atoms: C_6  and  C_7 
REMARK       I    between atoms: C_7  and  N_8 
REMARK    5  A    between atoms: N_8  and  C_21 
REMARK    6  A    between atoms: O_12  and  P_14 
REMARK    7  A    between atoms: P_14  and  O_15 
REMARK    8  A    between atoms: O_15  and  C_16 
REMARK    9  A    between atoms: C_19  and  C_20 
REMARK   10  A    between atoms: C_20  and  C_21 
REMARK   11  A    between atoms: C_21  and  C_23 
ROOT
HETATM    1  C           1     -21.123  -7.041  -5.972  0.00  0.00     0.189 C 
ENDROOT
BRANCH   1   2
HETATM    2  N           1     -20.662  -6.203  -7.063  0.00  0.00    -0.344 N 
HETATM    3  C           1     -21.237  -4.978  -7.273  0.00  0.00     0.249 C 
HETATM    4  O           1     -20.785  -3.997  -6.730  0.00  0.00    -0.271 OA
HETATM    5  H           1     -19.916  -6.523  -7.667  0.00  0.00     0.163 HD
BRANCH   3   6
HETATM    6  C           1     -22.432  -4.852  -8.185  0.00  0.00     0.274 C 
BRANCH   6   7
HETATM    7  N           1     -23.576  -4.247  -7.426  0.00  0.00    -0.067 N 
HETATM    8  H           1     -24.476  -4.660  -7.763  0.00  0.00     0.275 HD
HETATM    9  H           1     -23.462  -4.449  -6.407  0.00  0.00     0.275 HD
HETATM   10  H           1     -23.588  -3.214  -7.579  0.00  0.00     0.275 HD
ENDBRANCH   6   7
BRANCH   6  11
HETATM   11  C           1     -22.079  -3.957  -9.366  0.00  0.00     0.045 C 
BRANCH  11  12
HETATM   12 Se           1     -23.076  -4.528 -10.938  0.00  0.00     0.000 Se
HETATM   13  H           1     -22.849  -5.964 -10.705  0.00  0.00     0.000 HD
ENDBRANCH  11  12
ENDBRANCH   6  11
ENDBRANCH   3   6
ENDBRANCH   1   2
BRANCH   1  14
HETATM   14  C           1     -19.928  -7.726  -5.321  0.00  0.00     0.074 C 
BRANCH  14  15
HETATM   15  C           1     -20.412  -8.738  -4.329  0.00  0.00    -0.056 A 
HETATM   16  C           1     -21.501  -9.553  -4.639  0.00  0.00     0.010 A 
HETATM   17  C           1     -21.951 -10.496  -3.714  0.00  0.00     0.038 A 
HETATM   18  C           1     -21.313 -10.622  -2.480  0.00  0.00     0.081 A 
HETATM   19  C           1     -20.224  -9.807  -2.170  0.00  0.00     0.038 A 
HETATM   20  C           1     -19.774  -8.865  -3.096  0.00  0.00     0.010 A 
BRANCH  18  21
HETATM   21  O           1     -21.751 -11.538  -1.582  0.00  0.00    -0.247 OA
BRANCH  21  22
HETATM   22  P           1     -22.413 -10.999  -0.212  0.00  0.00     0.411 P 
HETATM   23  O           1     -23.138  -9.736  -0.477  0.00  0.00    -0.624 OA
HETATM   24  O           1     -23.360 -12.010   0.311  0.00  0.00    -0.624 OA
BRANCH  22  25
HETATM   25  O           1     -21.252 -10.736   0.879  0.00  0.00    -0.300 OA
HETATM   26  H           1     -21.134 -11.563   1.316  0.00  0.00     0.223 HD
ENDBRANCH  22  25
ENDBRANCH  21  22
ENDBRANCH  18  21
ENDBRANCH  14  15
ENDBRANCH   1  14
BRANCH   1  27
HETATM   27  C           1     -21.833  -6.189  -4.949  0.00  0.00     0.197 C 
HETATM   28  O           1     -21.176  -5.587  -4.072  0.00  0.00    -0.646 OA
HETATM   29  O           1     -23.078  -6.085  -4.979  0.00  0.00    -0.646 OA
ENDBRANCH   1  27
TORSDOF 11
ENDMDL
MODEL 9
REMARK VINA RESULT:      -5.7     14.590     16.556
REMARK  11 active torsions:
REMARK  status: ('A' for Active; 'I' for Inactive)
REMARK    1  A    between atoms: N_3  and  C_6 
REMARK    2  A    between atoms: Se_4  and  C_5 
REMARK    3  A    between atoms: C_5  and  C_6 
REMARK    4  A    between atoms: C_6  and  C_7 
REMARK       I    between atoms: C_7  and  N_8 
REMARK    5  A    between atoms: N_8  and  C_21 
REMARK    6  A    between atoms: O_12  and  P_14 
REMARK    7  A    between atoms: P_14  and  O_15 
REMARK    8  A    between atoms: O_15  and  C_16 
REMARK    9  A    between atoms: C_19  and  C_20 
REMARK   10  A    between atoms: C_20  and  C_21 
REMARK   11  A    between atoms: C_21  and  C_23 
ROOT
HETATM    1  C           1     -21.336  -7.753  -2.411  0.00  0.00     0.189 C 
ENDROOT
BRANCH   1   2
HETATM    2  N           1     -21.427  -6.433  -3.005  0.00  0.00    -0.344 N 
HETATM    3  C           1     -21.681  -6.303  -4.344  0.00  0.00     0.249 C 
HETATM    4  O           1     -22.821  -6.226  -4.738  0.00  0.00    -0.271 OA
HETATM    5  H           1     -21.302  -5.610  -2.431  0.00  0.00     0.163 HD
BRANCH   3   6
HETATM    6  C           1     -20.539  -6.251  -5.328  0.00  0.00     0.274 C 
BRANCH   6   7
HETATM    7  N           1     -20.963  -6.889  -6.618  0.00  0.00    -0.067 N 
HETATM    8  H           1     -21.666  -7.638  -6.423  0.00  0.00     0.275 HD
HETATM    9  H           1     -21.391  -6.166  -7.239  0.00  0.00     0.275 HD
HETATM   10  H           1     -20.131  -7.308  -7.091  0.00  0.00     0.275 HD
ENDBRANCH   6   7
BRANCH   6  11
HETATM   11  C           1     -20.153  -4.800  -5.584  0.00  0.00     0.045 C 
BRANCH  11  12
HETATM   12 Se           1     -21.105  -4.140  -7.150  0.00  0.00     0.000 Se
HETATM   13  H           1     -19.893  -4.009  -7.976  0.00  0.00     0.000 HD
ENDBRANCH  11  12
ENDBRANCH   6  11
ENDBRANCH   3   6
ENDBRANCH   1   2
BRANCH   1  14
HETATM   14  C           1     -19.886  -8.046  -2.047  0.00  0.00     0.074 C 
BRANCH  14  15
HETATM   15  C           1     -19.396  -9.213  -2.847  0.00  0.00    -0.056 A 
HETATM   16  C           1     -20.293 -10.194  -3.269  0.00  0.00     0.010 A 
HETATM   17  C           1     -19.836 -11.281  -4.016  0.00  0.00     0.038 A 
HETATM   18  C           1     -18.483 -11.385  -4.339  0.00  0.00     0.081 A 
HETATM   19  C           1     -17.587 -10.403  -3.917  0.00  0.00     0.038 A 
HETATM   20  C           1     -18.044  -9.317  -3.171  0.00  0.00     0.010 A 
BRANCH  18  21
HETATM   21  O           1     -18.040 -12.441  -5.064  0.00  0.00    -0.247 OA
BRANCH  21  22
HETATM   22  P           1     -18.331 -12.445  -6.653  0.00  0.00     0.411 P 
HETATM   23  O           1     -17.139 -12.945  -7.372  0.00  0.00    -0.624 OA
HETATM   24  O           1     -19.486 -13.324  -6.942  0.00  0.00    -0.624 OA
BRANCH  22  25
HETATM   25  O           1     -18.665 -10.942  -7.141  0.00  0.00    -0.300 OA
HETATM   26  H           1     -17.833 -10.499  -7.154  0.00  0.00     0.223 HD
ENDBRANCH  22  25
ENDBRANCH  21  22
ENDBRANCH  18  21
ENDBRANCH  14  15
ENDBRANCH   1  14
BRANCH   1  27
HETATM   27  C           1     -22.187  -7.802  -1.165  0.00  0.00     0.197 C 
HETATM   28  O           1     -22.334  -8.880  -0.550  0.00  0.00    -0.646 OA
HETATM   29  O           1     -22.746  -6.764  -0.749  0.00  0.00    -0.646 OA
ENDBRANCH   1  27
TORSDOF 11
ENDMDL
