MODEL 1
REMARK VINA RESULT:      -5.3      0.000      0.000
REMARK  6 active torsions:
REMARK  status: ('A' for Active; 'I' for Inactive)
REMARK    1  A    between atoms: C_1  and  C_11 
REMARK    2  A    between atoms: N_4  and  C_11 
REMARK       I    between atoms: N_4  and  C_5 
REMARK    3  A    between atoms: C_5  and  C_6 
REMARK    4  A    between atoms: C_6  and  N_7 
REMARK    5  A    between atoms: C_8  and  C_10 
REMARK    6  A    between atoms: C_8  and  C_11 
ROOT
HETATM    1  N           1     -34.939  -1.746 -13.079  0.00  0.00    -0.345 N 
HETATM    2  C           1     -34.227  -2.607 -12.287  0.00  0.00     0.243 C 
HETATM    3  H           1     -35.359  -2.079 -13.938  0.00  0.00     0.163 HD
HETATM    4  O           1     -33.726  -2.210 -11.262  0.00  0.00    -0.272 OA
ENDROOT
BRANCH   1   5
HETATM    5  C           1     -35.091  -0.359 -12.688  0.00  0.00     0.195 C 
BRANCH   5   6
HETATM    6  C           1     -36.268  -0.227 -11.753  0.00  0.00     0.197 C 
HETATM    7  O           1     -37.355  -0.776 -12.035  0.00  0.00    -0.646 OA
HETATM    8  O           1     -36.157   0.432 -10.696  0.00  0.00    -0.646 OA
ENDBRANCH   5   6
BRANCH   5   9
HETATM    9  C           1     -35.328   0.494 -13.927  0.00  0.00     0.149 C 
BRANCH   9  10
HETATM   10  C           1     -35.689  -0.396 -15.090  0.00  0.00     0.175 C 
HETATM   11  O           1     -34.795  -0.816 -15.857  0.00  0.00    -0.648 OA
HETATM   12  O           1     -36.882  -0.713 -15.287  0.00  0.00    -0.648 OA
ENDBRANCH   9  10
ENDBRANCH   5   9
ENDBRANCH   1   5
BRANCH   2  13
HETATM   13  C           1     -34.069  -4.051 -12.695  0.00  0.00     0.332 C 
BRANCH  13  14
HETATM   14  N           1     -33.832  -4.131 -14.174  0.00  0.00    -0.071 N 
HETATM   15  H           1     -34.192  -3.264 -14.633  0.00  0.00     0.274 HD
HETATM   16  H           1     -32.808  -4.222 -14.358  0.00  0.00     0.274 HD
HETATM   17  H           1     -34.332  -4.964 -14.562  0.00  0.00     0.274 HD
ENDBRANCH  13  14
ENDBRANCH   2  13
TORSDOF 6
ENDMDL
MODEL 2
REMARK VINA RESULT:      -5.3      2.274      3.934
REMARK  6 active torsions:
REMARK  status: ('A' for Active; 'I' for Inactive)
REMARK    1  A    between atoms: C_1  and  C_11 
REMARK    2  A    between atoms: N_4  and  C_11 
REMARK       I    between atoms: N_4  and  C_5 
REMARK    3  A    between atoms: C_5  and  C_6 
REMARK    4  A    between atoms: C_6  and  N_7 
REMARK    5  A    between atoms: C_8  and  C_10 
REMARK    6  A    between atoms: C_8  and  C_11 
ROOT
HETATM    1  N           1     -36.142   0.146 -11.474  0.00  0.00    -0.345 N 
HETATM    2  C           1     -37.262   0.047 -10.692  0.00  0.00     0.243 C 
HETATM    3  H           1     -35.461   0.872 -11.291  0.00  0.00     0.163 HD
HETATM    4  O           1     -38.075  -0.819 -10.910  0.00  0.00    -0.272 OA
ENDROOT
BRANCH   1   5
HETATM    5  C           1     -35.933  -0.787 -12.563  0.00  0.00     0.195 C 
BRANCH   5   6
HETATM    6  C           1     -34.718  -1.633 -12.274  0.00  0.00     0.197 C 
HETATM    7  O           1     -34.386  -2.542 -13.066  0.00  0.00    -0.646 OA
HETATM    8  O           1     -34.043  -1.425 -11.242  0.00  0.00    -0.646 OA
ENDBRANCH   5   6
BRANCH   5   9
HETATM    9  C           1     -35.718  -0.014 -13.858  0.00  0.00     0.149 C 
BRANCH   9  10
HETATM   10  C           1     -36.989  -0.028 -14.671  0.00  0.00     0.175 C 
HETATM   11  O           1     -37.975  -0.690 -14.280  0.00  0.00    -0.648 OA
HETATM   12  O           1     -37.057   0.623 -15.736  0.00  0.00    -0.648 OA
ENDBRANCH   9  10
ENDBRANCH   5   9
ENDBRANCH   1   5
BRANCH   2  13
HETATM   13  C           1     -37.479   1.018  -9.558  0.00  0.00     0.332 C 
BRANCH  13  14
HETATM   14  N           1     -36.213   1.153  -8.765  0.00  0.00    -0.071 N 
HETATM   15  H           1     -36.339   1.881  -8.027  0.00  0.00     0.274 HD
HETATM   16  H           1     -35.985   0.238  -8.315  0.00  0.00     0.274 HD
HETATM   17  H           1     -35.431   1.433  -9.400  0.00  0.00     0.274 HD
ENDBRANCH  13  14
ENDBRANCH   2  13
TORSDOF 6
ENDMDL
MODEL 3
REMARK VINA RESULT:      -5.2      1.837      3.826
REMARK  6 active torsions:
REMARK  status: ('A' for Active; 'I' for Inactive)
REMARK    1  A    between atoms: C_1  and  C_11 
REMARK    2  A    between atoms: N_4  and  C_11 
REMARK       I    between atoms: N_4  and  C_5 
REMARK    3  A    between atoms: C_5  and  C_6 
REMARK    4  A    between atoms: C_6  and  N_7 
REMARK    5  A    between atoms: C_8  and  C_10 
REMARK    6  A    between atoms: C_8  and  C_11 
ROOT
HETATM    1  N           1     -35.090  -0.407 -12.725  0.00  0.00    -0.345 N 
HETATM    2  C           1     -35.664  -0.149 -13.940  0.00  0.00     0.243 C 
HETATM    3  H           1     -34.377   0.213 -12.360  0.00  0.00     0.163 HD
HETATM    4  O           1     -36.514  -0.889 -14.375  0.00  0.00    -0.272 OA
ENDROOT
BRANCH   1   5
HETATM    5  C           1     -35.502  -1.568 -11.960  0.00  0.00     0.195 C 
BRANCH   5   6
HETATM    6  C           1     -36.403  -1.131 -10.831  0.00  0.00     0.197 C 
HETATM    7  O           1     -37.645  -1.201 -10.960  0.00  0.00    -0.646 OA
HETATM    8  O           1     -35.908  -0.700  -9.767  0.00  0.00    -0.646 OA
ENDBRANCH   5   6
BRANCH   5   9
HETATM    9  C           1     -34.272  -2.261 -11.389  0.00  0.00     0.149 C 
BRANCH   9  10
HETATM   10  C           1     -33.769  -3.288 -12.374  0.00  0.00     0.175 C 
HETATM   11  O           1     -32.810  -4.030 -12.070  0.00  0.00    -0.648 OA
HETATM   12  O           1     -34.313  -3.397 -13.494  0.00  0.00    -0.648 OA
ENDBRANCH   9  10
ENDBRANCH   5   9
ENDBRANCH   1   5
BRANCH   2  13
HETATM   13  C           1     -35.235   1.059 -14.736  0.00  0.00     0.332 C 
BRANCH  13  14
HETATM   14  N           1     -36.291   1.393 -15.748  0.00  0.00    -0.071 N 
HETATM   15  H           1     -37.227   1.398 -15.286  0.00  0.00     0.274 HD
HETATM   16  H           1     -36.098   2.337 -16.154  0.00  0.00     0.274 HD
HETATM   17  H           1     -36.282   0.677 -16.510  0.00  0.00     0.274 HD
ENDBRANCH  13  14
ENDBRANCH   2  13
TORSDOF 6
ENDMDL
MODEL 4
REMARK VINA RESULT:      -5.2     12.487     14.175
REMARK  6 active torsions:
REMARK  status: ('A' for Active; 'I' for Inactive)
REMARK    1  A    between atoms: C_1  and  C_11 
REMARK    2  A    between atoms: N_4  and  C_11 
REMARK       I    between atoms: N_4  and  C_5 
REMARK    3  A    between atoms: C_5  and  C_6 
REMARK    4  A    between atoms: C_6  and  N_7 
REMARK    5  A    between atoms: C_8  and  C_10 
REMARK    6  A    between atoms: C_8  and  C_11 
ROOT
HETATM    1  N           1     -22.478  -4.882  -8.934  0.00  0.00    -0.345 N 
HETATM    2  C           1     -21.900  -4.472  -7.763  0.00  0.00     0.243 C 
HETATM    3  H           1     -22.639  -5.867  -9.101  0.00  0.00     0.163 HD
HETATM    4  O           1     -21.709  -3.296  -7.564  0.00  0.00    -0.272 OA
ENDROOT
BRANCH   1   5
HETATM    5  C           1     -22.859  -3.906  -9.935  0.00  0.00     0.195 C 
BRANCH   5   6
HETATM    6  C           1     -24.348  -3.983 -10.171  0.00  0.00     0.197 C 
HETATM    7  O           1     -25.008  -4.930  -9.692  0.00  0.00    -0.646 OA
HETATM    8  O           1     -24.921  -3.100 -10.846  0.00  0.00    -0.646 OA
ENDBRANCH   5   6
BRANCH   5   9
HETATM    9  C           1     -22.123  -4.199 -11.236  0.00  0.00     0.149 C 
BRANCH   9  10
HETATM   10  C           1     -20.653  -3.908 -11.059  0.00  0.00     0.175 C 
HETATM   11  O           1     -19.878  -4.811 -10.675  0.00  0.00    -0.648 OA
HETATM   12  O           1     -20.210  -2.763 -11.297  0.00  0.00    -0.648 OA
ENDBRANCH   9  10
ENDBRANCH   5   9
ENDBRANCH   1   5
BRANCH   2  13
HETATM   13  C           1     -21.503  -5.489  -6.721  0.00  0.00     0.332 C 
BRANCH  13  14
HETATM   14  N           1     -20.350  -6.303  -7.229  0.00  0.00    -0.071 N 
HETATM   15  H           1     -20.501  -6.531  -8.237  0.00  0.00     0.274 HD
HETATM   16  H           1     -19.466  -5.757  -7.125  0.00  0.00     0.274 HD
HETATM   17  H           1     -20.280  -7.189  -6.679  0.00  0.00     0.274 HD
ENDBRANCH  13  14
ENDBRANCH   2  13
TORSDOF 6
ENDMDL
MODEL 5
REMARK VINA RESULT:      -4.9      2.390      4.680
REMARK  6 active torsions:
REMARK  status: ('A' for Active; 'I' for Inactive)
REMARK    1  A    between atoms: C_1  and  C_11 
REMARK    2  A    between atoms: N_4  and  C_11 
REMARK       I    between atoms: N_4  and  C_5 
REMARK    3  A    between atoms: C_5  and  C_6 
REMARK    4  A    between atoms: C_6  and  N_7 
REMARK    5  A    between atoms: C_8  and  C_10 
REMARK    6  A    between atoms: C_8  and  C_11 
ROOT
HETATM    1  N           1     -36.435  -0.054 -13.331  0.00  0.00    -0.345 N 
HETATM    2  C           1     -35.659   0.689 -14.179  0.00  0.00     0.243 C 
HETATM    3  H           1     -37.262  -0.521 -13.681  0.00  0.00     0.163 HD
HETATM    4  O           1     -34.672   1.246 -13.761  0.00  0.00    -0.272 OA
ENDROOT
BRANCH   1   5
HETATM    5  C           1     -36.073  -0.172 -11.932  0.00  0.00     0.195 C 
BRANCH   5   6
HETATM    6  C           1     -35.236  -1.412 -11.733  0.00  0.00     0.197 C 
HETATM    7  O           1     -34.134  -1.335 -11.147  0.00  0.00    -0.646 OA
HETATM    8  O           1     -35.644  -2.516 -12.155  0.00  0.00    -0.646 OA
ENDBRANCH   5   6
BRANCH   5   9
HETATM    9  C           1     -37.336  -0.271 -11.088  0.00  0.00     0.149 C 
BRANCH   9  10
HETATM   10  C           1     -37.210   0.630  -9.884  0.00  0.00     0.175 C 
HETATM   11  O           1     -38.057   1.528  -9.683  0.00  0.00    -0.648 OA
HETATM   12  O           1     -36.258   0.480  -9.088  0.00  0.00    -0.648 OA
ENDBRANCH   9  10
ENDBRANCH   5   9
ENDBRANCH   1   5
BRANCH   2  13
HETATM   13  C           1     -36.036   0.812 -15.635  0.00  0.00     0.332 C 
BRANCH  13  14
HETATM   14  N           1     -37.498   1.130 -15.748  0.00  0.00    -0.071 N 
HETATM   15  H           1     -37.813   0.979 -16.732  0.00  0.00     0.274 HD
HETATM   16  H           1     -38.041   0.507 -15.109  0.00  0.00     0.274 HD
HETATM   17  H           1     -37.659   2.128 -15.481  0.00  0.00     0.274 HD
ENDBRANCH  13  14
ENDBRANCH   2  13
TORSDOF 6
ENDMDL
MODEL 6
REMARK VINA RESULT:      -4.7     12.488     14.247
REMARK  6 active torsions:
REMARK  status: ('A' for Active; 'I' for Inactive)
REMARK    1  A    between atoms: C_1  and  C_11 
REMARK    2  A    between atoms: N_4  and  C_11 
REMARK       I    between atoms: N_4  and  C_5 
REMARK    3  A    between atoms: C_5  and  C_6 
REMARK    4  A    between atoms: C_6  and  N_7 
REMARK    5  A    between atoms: C_8  and  C_10 
REMARK    6  A    between atoms: C_8  and  C_11 
ROOT
HETATM    1  N           1     -21.189  -4.257  -8.757  0.00  0.00    -0.345 N 
HETATM    2  C           1     -21.649  -4.441  -7.481  0.00  0.00     0.243 C 
HETATM    3  H           1     -20.211  -4.053  -8.918  0.00  0.00     0.163 HD
HETATM    4  O           1     -22.816  -4.684  -7.289  0.00  0.00    -0.272 OA
ENDROOT
BRANCH   1   5
HETATM    5  C           1     -22.103  -4.354  -9.878  0.00  0.00     0.195 C 
BRANCH   5   6
HETATM    6  C           1     -21.330  -4.231 -11.168  0.00  0.00     0.197 C 
HETATM    7  O           1     -20.085  -4.350 -11.165  0.00  0.00    -0.646 OA
HETATM    8  O           1     -21.934  -4.011 -12.240  0.00  0.00    -0.646 OA
ENDBRANCH   5   6
BRANCH   5   9
HETATM    9  C           1     -23.131  -3.233  -9.793  0.00  0.00     0.149 C 
BRANCH   9  10
HETATM   10  C           1     -24.482  -3.756 -10.213  0.00  0.00     0.175 C 
HETATM   11  O           1     -25.223  -3.060 -10.942  0.00  0.00    -0.648 OA
HETATM   12  O           1     -24.862  -4.884  -9.832  0.00  0.00    -0.648 OA
ENDBRANCH   9  10
ENDBRANCH   5   9
ENDBRANCH   1   5
BRANCH   2  13
HETATM   13  C           1     -20.697  -4.340  -6.314  0.00  0.00     0.332 C 
BRANCH  13  14
HETATM   14  N           1     -20.010  -5.659  -6.113  0.00  0.00    -0.071 N 
HETATM   15  H           1     -19.023  -5.496  -5.813  0.00  0.00     0.274 HD
HETATM   16  H           1     -20.512  -6.203  -5.375  0.00  0.00     0.274 HD
HETATM   17  H           1     -20.018  -6.196  -7.009  0.00  0.00     0.274 HD
ENDBRANCH  13  14
ENDBRANCH   2  13
TORSDOF 6
ENDMDL
MODEL 7
REMARK VINA RESULT:      -4.4     13.138     15.174
REMARK  6 active torsions:
REMARK  status: ('A' for Active; 'I' for Inactive)
REMARK    1  A    between atoms: C_1  and  C_11 
REMARK    2  A    between atoms: N_4  and  C_11 
REMARK       I    between atoms: N_4  and  C_5 
REMARK    3  A    between atoms: C_5  and  C_6 
REMARK    4  A    between atoms: C_6  and  N_7 
REMARK    5  A    between atoms: C_8  and  C_10 
REMARK    6  A    between atoms: C_8  and  C_11 
ROOT
HETATM    1  N           1     -23.038  -4.130  -7.599  0.00  0.00    -0.345 N 
HETATM    2  C           1     -23.463  -4.147  -8.900  0.00  0.00     0.243 C 
HETATM    3  H           1     -23.545  -3.592  -6.908  0.00  0.00     0.163 HD
HETATM    4  O           1     -22.857  -4.790  -9.724  0.00  0.00    -0.272 OA
ENDROOT
BRANCH   1   5
HETATM    5  C           1     -21.860  -4.881  -7.211  0.00  0.00     0.195 C 
BRANCH   5   6
HETATM    6  C           1     -22.132  -5.607  -5.915  0.00  0.00     0.197 C 
HETATM    7  O           1     -21.180  -6.029  -5.224  0.00  0.00    -0.646 OA
HETATM    8  O           1     -23.309  -5.786  -5.534  0.00  0.00    -0.646 OA
ENDBRANCH   5   6
BRANCH   5   9
HETATM    9  C           1     -20.689  -3.927  -7.022  0.00  0.00     0.149 C 
BRANCH   9  10
HETATM   10  C           1     -19.543  -4.354  -7.906  0.00  0.00     0.175 C 
HETATM   11  O           1     -19.760  -4.701  -9.088  0.00  0.00    -0.648 OA
HETATM   12  O           1     -18.377  -4.362  -7.457  0.00  0.00    -0.648 OA
ENDBRANCH   9  10
ENDBRANCH   5   9
ENDBRANCH   1   5
BRANCH   2  13
HETATM   13  C           1     -24.689  -3.365  -9.304  0.00  0.00     0.332 C 
BRANCH  13  14
HETATM   14  N           1     -24.937  -3.546 -10.772  0.00  0.00    -0.071 N 
HETATM   15  H           1     -24.316  -4.301 -11.140  0.00  0.00     0.274 HD
HETATM   16  H           1     -25.936  -3.811 -10.926  0.00  0.00     0.274 HD
HETATM   17  H           1     -24.733  -2.651 -11.273  0.00  0.00     0.274 HD
ENDBRANCH  13  14
ENDBRANCH   2  13
TORSDOF 6
ENDMDL
MODEL 8
REMARK VINA RESULT:      -4.1     16.143     18.074
REMARK  6 active torsions:
REMARK  status: ('A' for Active; 'I' for Inactive)
REMARK    1  A    between atoms: C_1  and  C_11 
REMARK    2  A    between atoms: N_4  and  C_11 
REMARK       I    between atoms: N_4  and  C_5 
REMARK    3  A    between atoms: C_5  and  C_6 
REMARK    4  A    between atoms: C_6  and  N_7 
REMARK    5  A    between atoms: C_8  and  C_10 
REMARK    6  A    between atoms: C_8  and  C_11 
ROOT
HETATM    1  N           1     -20.728  -6.548  -4.706  0.00  0.00    -0.345 N 
HETATM    2  C           1     -21.225  -5.624  -5.584  0.00  0.00     0.243 C 
HETATM    3  H           1     -19.728  -6.648  -4.589  0.00  0.00     0.163 HD
HETATM    4  O           1     -22.419  -5.504  -5.723  0.00  0.00    -0.272 OA
ENDROOT
BRANCH   1   5
HETATM    5  C           1     -21.634  -7.384  -3.943  0.00  0.00     0.195 C 
BRANCH   5   6
HETATM    6  C           1     -21.677  -6.903  -2.513  0.00  0.00     0.197 C 
HETATM    7  O           1     -21.019  -7.501  -1.633  0.00  0.00    -0.646 OA
HETATM    8  O           1     -22.369  -5.908  -2.208  0.00  0.00    -0.646 OA
ENDBRANCH   5   6
BRANCH   5   9
HETATM    9  C           1     -21.146  -8.826  -3.980  0.00  0.00     0.149 C 
BRANCH   9  10
HETATM   10  C           1     -19.767  -8.876  -4.590  0.00  0.00     0.175 C 
HETATM   11  O           1     -18.756  -8.857  -3.854  0.00  0.00    -0.648 OA
HETATM   12  O           1     -19.636  -8.937  -5.832  0.00  0.00    -0.648 OA
ENDBRANCH   9  10
ENDBRANCH   5   9
ENDBRANCH   1   5
BRANCH   2  13
HETATM   13  C           1     -20.282  -4.754  -6.378  0.00  0.00     0.332 C 
BRANCH  13  14
HETATM   14  N           1     -21.064  -3.703  -7.109  0.00  0.00    -0.071 N 
HETATM   15  H           1     -21.389  -4.085  -8.026  0.00  0.00     0.274 HD
HETATM   16  H           1     -21.892  -3.424  -6.536  0.00  0.00     0.274 HD
HETATM   17  H           1     -20.457  -2.869  -7.275  0.00  0.00     0.274 HD
ENDBRANCH  13  14
ENDBRANCH   2  13
TORSDOF 6
ENDMDL
MODEL 9
REMARK VINA RESULT:      -4.0     18.113     19.765
REMARK  6 active torsions:
REMARK  status: ('A' for Active; 'I' for Inactive)
REMARK    1  A    between atoms: C_1  and  C_11 
REMARK    2  A    between atoms: N_4  and  C_11 
REMARK       I    between atoms: N_4  and  C_5 
REMARK    3  A    between atoms: C_5  and  C_6 
REMARK    4  A    between atoms: C_6  and  N_7 
REMARK    5  A    between atoms: C_8  and  C_10 
REMARK    6  A    between atoms: C_8  and  C_11 
ROOT
HETATM    1  N           1     -21.677  -8.522  -1.494  0.00  0.00    -0.345 N 
HETATM    2  C           1     -21.944  -7.193  -1.682  0.00  0.00     0.243 C 
HETATM    3  H           1     -21.033  -9.001  -2.110  0.00  0.00     0.163 HD
HETATM    4  O           1     -22.713  -6.621  -0.946  0.00  0.00    -0.272 OA
ENDROOT
BRANCH   1   5
HETATM    5  C           1     -22.319  -9.244  -0.413  0.00  0.00     0.195 C 
BRANCH   5   6
HETATM    6  C           1     -21.337  -9.431   0.718  0.00  0.00     0.197 C 
HETATM    7  O           1     -20.806 -10.547   0.907  0.00  0.00    -0.646 OA
HETATM    8  O           1     -21.055  -8.470   1.466  0.00  0.00    -0.646 OA
ENDBRANCH   5   6
BRANCH   5   9
HETATM    9  C           1     -22.779 -10.606  -0.916  0.00  0.00     0.149 C 
BRANCH   9  10
HETATM   10  C           1     -22.158 -10.883  -2.262  0.00  0.00     0.175 C 
HETATM   11  O           1     -20.974 -11.279  -2.336  0.00  0.00    -0.648 OA
HETATM   12  O           1     -22.827 -10.716  -3.305  0.00  0.00    -0.648 OA
ENDBRANCH   9  10
ENDBRANCH   5   9
ENDBRANCH   1   5
BRANCH   2  13
HETATM   13  C           1     -21.276  -6.441  -2.807  0.00  0.00     0.332 C 
BRANCH  13  14
HETATM   14  N           1     -22.256  -6.240  -3.926  0.00  0.00    -0.071 N 
HETATM   15  H           1     -23.080  -6.866  -3.785  0.00  0.00     0.274 HD
HETATM   16  H           1     -22.574  -5.244  -3.935  0.00  0.00     0.274 HD
HETATM   17  H           1     -21.797  -6.468  -4.837  0.00  0.00     0.274 HD
ENDBRANCH  13  14
ENDBRANCH   2  13
TORSDOF 6
ENDMDL
