MODEL 1
REMARK VINA RESULT:      -6.7      0.000      0.000
REMARK  2 active torsions:
REMARK  status: ('A' for Active; 'I' for Inactive)
REMARK    1  A    between atoms: C_9  and  C_15 
REMARK    2  A    between atoms: C_12  and  C_13 
REMARK       I    between atoms: C_13  and  N_16 
ROOT
HETATM    1  C           1     -35.073   0.766 -12.847  0.00  0.00     0.038 C 
HETATM    2  C           1     -35.447   0.379 -14.272  0.00  0.00     0.022 C 
HETATM    3  C           1     -35.771  -1.104 -14.209  0.00  0.00     0.127 C 
HETATM    4  O           1     -34.297  -3.527 -13.811  0.00  0.00    -0.271 OA
HETATM    5  C           1     -34.349  -2.743 -12.893  0.00  0.00     0.254 C 
HETATM    6  C           1     -35.211  -0.514 -12.039  0.00  0.00     0.188 C 
HETATM    7  N           1     -35.042  -1.571 -13.033  0.00  0.00    -0.336 N 
ENDROOT
BRANCH   5   8
HETATM    8  C           1     -33.651  -3.057 -11.592  0.00  0.00     0.311 C 
HETATM    9  C           1     -32.730  -4.255 -11.747  0.00  0.00     0.047 C 
HETATM   10  C           1     -33.557  -5.454 -11.299  0.00  0.00     0.033 C 
HETATM   11  C           1     -34.906  -4.877 -10.903  0.00  0.00     0.271 C 
HETATM   12  N           1     -34.610  -3.485 -10.578  0.00  0.00     0.097 N 
HETATM   13  H           1     -34.198  -3.434  -9.646  0.00  0.00     0.317 HD
ENDBRANCH   5   8
BRANCH   6  14
HETATM   14  C           1     -36.572  -0.598 -11.393  0.00  0.00     0.196 C 
HETATM   15  O           1     -37.310   0.410 -11.359  0.00  0.00    -0.646 OA
HETATM   16  O           1     -36.961  -1.675 -10.892  0.00  0.00    -0.646 OA
ENDBRANCH   6  14
TORSDOF 2
ENDMDL
MODEL 2
REMARK VINA RESULT:      -6.0     12.202     14.170
REMARK  2 active torsions:
REMARK  status: ('A' for Active; 'I' for Inactive)
REMARK    1  A    between atoms: C_9  and  C_15 
REMARK    2  A    between atoms: C_12  and  C_13 
REMARK       I    between atoms: C_13  and  N_16 
ROOT
HETATM    1  C           1     -23.581  -4.753 -11.128  0.00  0.00     0.038 C 
HETATM    2  C           1     -24.597  -3.865 -10.421  0.00  0.00     0.022 C 
HETATM    3  C           1     -23.869  -3.318  -9.205  0.00  0.00     0.127 C 
HETATM    4  O           1     -22.894  -4.378  -6.729  0.00  0.00    -0.271 OA
HETATM    5  C           1     -22.385  -4.775  -7.750  0.00  0.00     0.254 C 
HETATM    6  C           1     -22.320  -4.662 -10.285  0.00  0.00     0.188 C 
HETATM    7  N           1     -22.815  -4.299  -8.960  0.00  0.00    -0.336 N 
ENDROOT
BRANCH   5   8
HETATM    8  C           1     -21.274  -5.795  -7.692  0.00  0.00     0.311 C 
HETATM    9  C           1     -21.223  -6.463  -6.329  0.00  0.00     0.047 C 
HETATM   10  C           1     -20.193  -5.670  -5.535  0.00  0.00     0.033 C 
HETATM   11  C           1     -19.702  -4.594  -6.489  0.00  0.00     0.271 C 
HETATM   12  N           1     -19.969  -5.150  -7.812  0.00  0.00     0.097 N 
HETATM   13  H           1     -19.249  -5.833  -8.046  0.00  0.00     0.317 HD
ENDBRANCH   5   8
BRANCH   6  14
HETATM   14  C           1     -21.392  -3.600 -10.820  0.00  0.00     0.196 C 
HETATM   15  O           1     -20.279  -3.413 -10.281  0.00  0.00    -0.646 OA
HETATM   16  O           1     -21.735  -2.907 -11.802  0.00  0.00    -0.646 OA
ENDBRANCH   6  14
TORSDOF 2
ENDMDL
MODEL 3
REMARK VINA RESULT:      -5.8     25.645     26.798
REMARK  2 active torsions:
REMARK  status: ('A' for Active; 'I' for Inactive)
REMARK    1  A    between atoms: C_9  and  C_15 
REMARK    2  A    between atoms: C_12  and  C_13 
REMARK       I    between atoms: C_13  and  N_16 
ROOT
HETATM    1  C           1     -12.131   3.608 -21.847  0.00  0.00     0.038 C 
HETATM    2  C           1     -11.209   2.841 -20.908  0.00  0.00     0.022 C 
HETATM    3  C           1     -10.744   3.862 -19.885  0.00  0.00     0.127 C 
HETATM    4  O           1      -9.030   6.157 -19.885  0.00  0.00    -0.271 OA
HETATM    5  C           1     -10.043   6.211 -20.541  0.00  0.00     0.254 C 
HETATM    6  C           1     -12.154   5.028 -21.307  0.00  0.00     0.188 C 
HETATM    7  N           1     -10.896   5.141 -20.574  0.00  0.00    -0.336 N 
ENDROOT
BRANCH   5   8
HETATM    8  C           1     -10.368   7.459 -21.326  0.00  0.00     0.311 C 
HETATM    9  C           1      -9.251   8.481 -21.203  0.00  0.00     0.047 C 
HETATM   10  C           1      -9.672   9.396 -20.060  0.00  0.00     0.033 C 
HETATM   11  C           1     -11.013   8.853 -19.593  0.00  0.00     0.271 C 
HETATM   12  N           1     -11.527   8.142 -20.760  0.00  0.00     0.097 N 
HETATM   13  H           1     -11.912   8.812 -21.425  0.00  0.00     0.317 HD
ENDBRANCH   5   8
BRANCH   6  14
HETATM   14  C           1     -13.331   5.234 -20.386  0.00  0.00     0.196 C 
HETATM   15  O           1     -14.195   4.338 -20.267  0.00  0.00    -0.646 OA
HETATM   16  O           1     -13.444   6.300 -19.744  0.00  0.00    -0.646 OA
ENDBRANCH   6  14
TORSDOF 2
ENDMDL
MODEL 4
REMARK VINA RESULT:      -5.6      2.006      4.594
REMARK  2 active torsions:
REMARK  status: ('A' for Active; 'I' for Inactive)
REMARK    1  A    between atoms: C_9  and  C_15 
REMARK    2  A    between atoms: C_12  and  C_13 
REMARK       I    between atoms: C_13  and  N_16 
ROOT
HETATM    1  C           1     -35.435  -4.145 -10.923  0.00  0.00     0.038 C 
HETATM    2  C           1     -34.836  -4.988 -12.041  0.00  0.00     0.022 C 
HETATM    3  C           1     -34.157  -3.995 -12.968  0.00  0.00     0.127 C 
HETATM    4  O           1     -35.004  -1.959 -14.796  0.00  0.00    -0.271 OA
HETATM    5  C           1     -35.243  -1.796 -13.623  0.00  0.00     0.254 C 
HETATM    6  C           1     -35.060  -2.712 -11.263  0.00  0.00     0.188 C 
HETATM    7  N           1     -34.858  -2.740 -12.709  0.00  0.00    -0.336 N 
ENDROOT
BRANCH   5   8
HETATM    8  C           1     -35.965  -0.552 -13.165  0.00  0.00     0.311 C 
HETATM    9  C           1     -36.577   0.182 -14.345  0.00  0.00     0.047 C 
HETATM   10  C           1     -35.547   1.232 -14.739  0.00  0.00     0.033 C 
HETATM   11  C           1     -34.400   1.049 -13.758  0.00  0.00     0.271 C 
HETATM   12  N           1     -35.027   0.415 -12.602  0.00  0.00     0.097 N 
HETATM   13  H           1     -35.521   1.120 -12.054  0.00  0.00     0.317 HD
ENDBRANCH   5   8
BRANCH   6  14
HETATM   14  C           1     -33.793  -2.305 -10.551  0.00  0.00     0.196 C 
HETATM   15  O           1     -33.854  -1.602  -9.520  0.00  0.00    -0.646 OA
HETATM   16  O           1     -32.683  -2.670 -10.994  0.00  0.00    -0.646 OA
ENDBRANCH   6  14
TORSDOF 2
ENDMDL
MODEL 5
REMARK VINA RESULT:      -5.4     25.829     26.805
REMARK  2 active torsions:
REMARK  status: ('A' for Active; 'I' for Inactive)
REMARK    1  A    between atoms: C_9  and  C_15 
REMARK    2  A    between atoms: C_12  and  C_13 
REMARK       I    between atoms: C_13  and  N_16 
ROOT
HETATM    1  C           1     -11.778  10.006 -21.554  0.00  0.00     0.038 C 
HETATM    2  C           1     -12.572  10.296 -20.287  0.00  0.00     0.022 C 
HETATM    3  C           1     -12.410   9.058 -19.423  0.00  0.00     0.127 C 
HETATM    4  O           1     -13.317   6.342 -19.511  0.00  0.00    -0.271 OA
HETATM    5  C           1     -12.565   6.713 -20.381  0.00  0.00     0.254 C 
HETATM    6  C           1     -11.195   8.618 -21.347  0.00  0.00     0.188 C 
HETATM    7  N           1     -12.102   8.001 -20.383  0.00  0.00    -0.336 N 
ENDROOT
BRANCH   5   8
HETATM    8  C           1     -12.135   5.754 -21.465  0.00  0.00     0.311 C 
HETATM    9  C           1     -12.973   4.488 -21.430  0.00  0.00     0.047 C 
HETATM   10  C           1     -12.169   3.502 -20.592  0.00  0.00     0.033 C 
HETATM   11  C           1     -10.909   4.254 -20.197  0.00  0.00     0.271 C 
HETATM   12  N           1     -10.775   5.278 -21.228  0.00  0.00     0.097 N 
HETATM   13  H           1     -10.386   4.861 -22.074  0.00  0.00     0.317 HD
ENDBRANCH   5   8
BRANCH   6  14
HETATM   14  C           1      -9.796   8.701 -20.789  0.00  0.00     0.196 C 
HETATM   15  O           1      -9.192   9.796 -20.778  0.00  0.00    -0.646 OA
HETATM   16  O           1      -9.240   7.676 -20.338  0.00  0.00    -0.646 OA
ENDBRANCH   6  14
TORSDOF 2
ENDMDL
MODEL 6
REMARK VINA RESULT:      -5.3     16.157     18.311
REMARK  2 active torsions:
REMARK  status: ('A' for Active; 'I' for Inactive)
REMARK    1  A    between atoms: C_9  and  C_15 
REMARK    2  A    between atoms: C_12  and  C_13 
REMARK       I    between atoms: C_13  and  N_16 
ROOT
HETATM    1  C           1     -20.972  -8.841   0.707  0.00  0.00     0.038 C 
HETATM    2  C           1     -22.182  -8.086   1.241  0.00  0.00     0.022 C 
HETATM    3  C           1     -22.994  -7.715   0.012  0.00  0.00     0.127 C 
HETATM    4  O           1     -22.696  -5.916  -2.197  0.00  0.00    -0.271 OA
HETATM    5  C           1     -21.911  -6.830  -2.106  0.00  0.00     0.254 C 
HETATM    6  C           1     -21.157  -8.871  -0.801  0.00  0.00     0.188 C 
HETATM    7  N           1     -22.011  -7.717  -1.068  0.00  0.00    -0.336 N 
ENDROOT
BRANCH   5   8
HETATM    8  C           1     -20.820  -6.992  -3.136  0.00  0.00     0.311 C 
HETATM    9  C           1     -20.769  -5.791  -4.063  0.00  0.00     0.047 C 
HETATM   10  C           1     -21.615  -6.181  -5.268  0.00  0.00     0.033 C 
HETATM   11  C           1     -22.101  -7.590  -4.971  0.00  0.00     0.271 C 
HETATM   12  N           1     -21.112  -8.109  -4.030  0.00  0.00     0.097 N 
HETATM   13  H           1     -20.275  -8.393  -4.539  0.00  0.00     0.317 HD
ENDBRANCH   5   8
BRANCH   6  14
HETATM   14  C           1     -21.833 -10.150  -1.233  0.00  0.00     0.196 C 
HETATM   15  O           1     -21.904 -11.117  -0.444  0.00  0.00    -0.646 OA
HETATM   16  O           1     -22.320 -10.242  -2.380  0.00  0.00    -0.646 OA
ENDBRANCH   6  14
TORSDOF 2
ENDMDL
MODEL 7
REMARK VINA RESULT:      -5.2     16.445     18.291
REMARK  2 active torsions:
REMARK  status: ('A' for Active; 'I' for Inactive)
REMARK    1  A    between atoms: C_9  and  C_15 
REMARK    2  A    between atoms: C_12  and  C_13 
REMARK       I    between atoms: C_13  and  N_16 
ROOT
HETATM    1  C           1     -21.688  -8.030  -5.115  0.00  0.00     0.038 C 
HETATM    2  C           1     -21.668  -6.507  -5.124  0.00  0.00     0.022 C 
HETATM    3  C           1     -21.223  -6.107  -3.728  0.00  0.00     0.127 C 
HETATM    4  O           1     -22.346  -6.195  -1.095  0.00  0.00    -0.271 OA
HETATM    5  C           1     -22.119  -7.246  -1.645  0.00  0.00     0.254 C 
HETATM    6  C           1     -21.245  -8.424  -3.716  0.00  0.00     0.188 C 
HETATM    7  N           1     -21.582  -7.258  -2.905  0.00  0.00    -0.336 N 
ENDROOT
BRANCH   5   8
HETATM    8  C           1     -22.428  -8.547  -0.944  0.00  0.00     0.311 C 
HETATM    9  C           1     -23.268  -8.305   0.298  0.00  0.00     0.047 C 
HETATM   10  C           1     -22.267  -8.219   1.444  0.00  0.00     0.033 C 
HETATM   11  C           1     -20.907  -8.424   0.797  0.00  0.00     0.271 C 
HETATM   12  N           1     -21.209  -9.160  -0.427  0.00  0.00     0.097 N 
HETATM   13  H           1     -21.366 -10.143  -0.202  0.00  0.00     0.317 HD
ENDBRANCH   5   8
BRANCH   6  14
HETATM   14  C           1     -19.761  -8.693  -3.679  0.00  0.00     0.196 C 
HETATM   15  O           1     -19.180  -8.840  -2.582  0.00  0.00    -0.646 OA
HETATM   16  O           1     -19.112  -8.767  -4.745  0.00  0.00    -0.646 OA
ENDBRANCH   6  14
TORSDOF 2
ENDMDL
MODEL 8
REMARK VINA RESULT:      -5.1     10.256     11.923
REMARK  2 active torsions:
REMARK  status: ('A' for Active; 'I' for Inactive)
REMARK    1  A    between atoms: C_9  and  C_15 
REMARK    2  A    between atoms: C_12  and  C_13 
REMARK       I    between atoms: C_13  and  N_16 
ROOT
HETATM    1  C           1     -28.762  -4.608 -17.811  0.00  0.00     0.038 C 
HETATM    2  C           1     -29.805  -5.681 -18.096  0.00  0.00     0.022 C 
HETATM    3  C           1     -29.008  -6.925 -18.453  0.00  0.00     0.127 C 
HETATM    4  O           1     -27.366  -7.770 -20.642  0.00  0.00    -0.271 OA
HETATM    5  C           1     -26.980  -6.839 -19.976  0.00  0.00     0.254 C 
HETATM    6  C           1     -27.421  -5.294 -18.012  0.00  0.00     0.188 C 
HETATM    7  N           1     -27.728  -6.397 -18.918  0.00  0.00    -0.336 N 
ENDROOT
BRANCH   5   8
HETATM    8  C           1     -25.672  -6.163 -20.310  0.00  0.00     0.311 C 
HETATM    9  C           1     -25.284  -6.422 -21.756  0.00  0.00     0.047 C 
HETATM   10  C           1     -24.356  -7.629 -21.708  0.00  0.00     0.033 C 
HETATM   11  C           1     -24.256  -7.993 -20.236  0.00  0.00     0.271 C 
HETATM   12  N           1     -24.575  -6.748 -19.545  0.00  0.00     0.097 N 
HETATM   13  H           1     -23.760  -6.134 -19.556  0.00  0.00     0.317 HD
ENDBRANCH   5   8
BRANCH   6  14
HETATM   14  C           1     -26.882  -5.812 -16.701  0.00  0.00     0.196 C 
HETATM   15  O           1     -25.808  -6.451 -16.676  0.00  0.00    -0.646 OA
HETATM   16  O           1     -27.510  -5.603 -15.640  0.00  0.00    -0.646 OA
ENDBRANCH   6  14
TORSDOF 2
ENDMDL
MODEL 9
REMARK VINA RESULT:      -5.0     17.451     19.221
REMARK  2 active torsions:
REMARK  status: ('A' for Active; 'I' for Inactive)
REMARK    1  A    between atoms: C_9  and  C_15 
REMARK    2  A    between atoms: C_12  and  C_13 
REMARK       I    between atoms: C_13  and  N_16 
ROOT
HETATM    1  C           1     -23.841 -11.148   0.167  0.00  0.00     0.038 C 
HETATM    2  C           1     -24.210 -11.807  -1.155  0.00  0.00     0.022 C 
HETATM    3  C           1     -23.001 -11.605  -2.051  0.00  0.00     0.127 C 
HETATM    4  O           1     -21.752  -9.389  -3.368  0.00  0.00    -0.271 OA
HETATM    5  C           1     -21.754  -9.397  -2.160  0.00  0.00     0.254 C 
HETATM    6  C           1     -22.436 -10.608  -0.037  0.00  0.00     0.188 C 
HETATM    7  N           1     -22.338 -10.434  -1.484  0.00  0.00    -0.336 N 
ENDROOT
BRANCH   5   8
HETATM    8  C           1     -21.113  -8.263  -1.397  0.00  0.00     0.311 C 
HETATM    9  C           1     -22.167  -7.321  -0.842  0.00  0.00     0.047 C 
HETATM   10  C           1     -22.297  -6.213  -1.879  0.00  0.00     0.033 C 
HETATM   11  C           1     -21.304  -6.575  -2.971  0.00  0.00     0.271 C 
HETATM   12  N           1     -20.325  -7.417  -2.289  0.00  0.00     0.097 N 
HETATM   13  H           1     -19.684  -6.829  -1.756  0.00  0.00     0.317 HD
ENDBRANCH   5   8
BRANCH   6  14
HETATM   14  C           1     -21.405 -11.595   0.454  0.00  0.00     0.196 C 
HETATM   15  O           1     -20.193 -11.404   0.215  0.00  0.00    -0.646 OA
HETATM   16  O           1     -21.763 -12.603   1.100  0.00  0.00    -0.646 OA
ENDBRANCH   6  14
TORSDOF 2
ENDMDL
