MODEL 1
REMARK VINA RESULT:      -6.7      0.000      0.000
REMARK  8 active torsions:
REMARK  status: ('A' for Active; 'I' for Inactive)
REMARK    1  A    between atoms: C_1  and  C_3 
REMARK    2  A    between atoms: C_3  and  C_15 
REMARK    3  A    between atoms: N_5  and  C_19 
REMARK       I    between atoms: N_5  and  C_13 
REMARK    4  A    between atoms: C_6  and  O_14 
REMARK    5  A    between atoms: C_6  and  C_19 
REMARK    6  A    between atoms: N_8  and  C_15 
REMARK    7  A    between atoms: C_13  and  C_15 
REMARK    8  A    between atoms: C_19  and  C_20 
ROOT
HETATM    1  H           1     -33.957  -0.703 -14.156  0.00  0.00     0.163 HD
HETATM    2  N           1     -34.949  -0.742 -13.963  0.00  0.00    -0.343 N 
HETATM    3  O           1     -36.581  -1.329 -12.556  0.00  0.00    -0.271 OA
HETATM    4  C           1     -35.397  -1.282 -12.788  0.00  0.00     0.249 C 
ENDROOT
BRANCH   4   5
HETATM    5  C           1     -34.411  -1.818 -11.779  0.00  0.00     0.278 C 
BRANCH   5   6
HETATM    6  C           1     -34.250  -3.320 -11.973  0.00  0.00     0.021 C 
HETATM    7  C           1     -32.795  -3.709 -11.749  0.00  0.00     0.012 C 
BRANCH   6   8
HETATM    8  C           1     -35.131  -4.057 -10.972  0.00  0.00     0.002 C 
HETATM    9  C           1     -34.435  -5.336 -10.527  0.00  0.00     0.005 C 
ENDBRANCH   6   8
ENDBRANCH   5   6
BRANCH   5  10
HETATM   10  N           1     -34.913  -1.544 -10.393  0.00  0.00    -0.066 N 
HETATM   11  H           1     -35.181  -0.537 -10.311  0.00  0.00     0.275 HD
HETATM   12  H           1     -35.746  -2.144 -10.200  0.00  0.00     0.275 HD
HETATM   13  H           1     -34.159  -1.760  -9.702  0.00  0.00     0.275 HD
ENDBRANCH   5  10
ENDBRANCH   4   5
BRANCH   2  14
HETATM   14  C           1     -35.898  -0.228 -14.931  0.00  0.00     0.209 C 
BRANCH  14  15
HETATM   15  C           1     -35.554   1.220 -15.258  0.00  0.00     0.200 C 
BRANCH  15  16
HETATM   16  O           1     -36.585   1.786 -16.020  0.00  0.00    -0.398 OA
HETATM   17  H           1     -36.657   2.687 -15.756  0.00  0.00     0.209 HD
ENDBRANCH  15  16
ENDBRANCH  14  15
BRANCH  14  18
HETATM   18  C           1     -35.833  -1.057 -16.190  0.00  0.00     0.198 C 
HETATM   19  O           1     -35.037  -2.018 -16.265  0.00  0.00    -0.646 OA
HETATM   20  O           1     -36.574  -0.782 -17.158  0.00  0.00    -0.646 OA
ENDBRANCH  14  18
ENDBRANCH   2  14
TORSDOF 8
ENDMDL
MODEL 2
REMARK VINA RESULT:      -5.9      1.663      2.155
REMARK  8 active torsions:
REMARK  status: ('A' for Active; 'I' for Inactive)
REMARK    1  A    between atoms: C_1  and  C_3 
REMARK    2  A    between atoms: C_3  and  C_15 
REMARK    3  A    between atoms: N_5  and  C_19 
REMARK       I    between atoms: N_5  and  C_13 
REMARK    4  A    between atoms: C_6  and  O_14 
REMARK    5  A    between atoms: C_6  and  C_19 
REMARK    6  A    between atoms: N_8  and  C_15 
REMARK    7  A    between atoms: C_13  and  C_15 
REMARK    8  A    between atoms: C_19  and  C_20 
ROOT
HETATM    1  H           1     -35.002  -0.408 -11.866  0.00  0.00     0.163 HD
HETATM    2  N           1     -35.128  -0.956 -12.708  0.00  0.00    -0.343 N 
HETATM    3  O           1     -34.705  -2.848 -13.816  0.00  0.00    -0.271 OA
HETATM    4  C           1     -34.554  -2.194 -12.812  0.00  0.00     0.249 C 
ENDROOT
BRANCH   4   5
HETATM    5  C           1     -33.735  -2.744 -11.671  0.00  0.00     0.278 C 
BRANCH   5   6
HETATM    6  C           1     -33.659  -4.261 -11.783  0.00  0.00     0.021 C 
HETATM    7  C           1     -32.209  -4.685 -11.970  0.00  0.00     0.012 C 
BRANCH   6   8
HETATM    8  C           1     -34.212  -4.892 -10.512  0.00  0.00     0.002 C 
HETATM    9  C           1     -34.142  -6.409 -10.625  0.00  0.00     0.005 C 
ENDBRANCH   6   8
ENDBRANCH   5   6
BRANCH   5  10
HETATM   10  N           1     -34.378  -2.372 -10.368  0.00  0.00    -0.066 N 
HETATM   11  H           1     -34.048  -1.425 -10.073  0.00  0.00     0.275 HD
HETATM   12  H           1     -35.416  -2.359 -10.483  0.00  0.00     0.275 HD
HETATM   13  H           1     -34.117  -3.074  -9.639  0.00  0.00     0.275 HD
ENDBRANCH   5  10
ENDBRANCH   4   5
BRANCH   2  14
HETATM   14  C           1     -35.916  -0.428 -13.805  0.00  0.00     0.209 C 
BRANCH  14  15
HETATM   15  C           1     -37.319  -0.100 -13.311  0.00  0.00     0.200 C 
BRANCH  15  16
HETATM   16  O           1     -38.074   0.435 -14.364  0.00  0.00    -0.398 OA
HETATM   17  H           1     -38.811   0.872 -13.977  0.00  0.00     0.209 HD
ENDBRANCH  15  16
ENDBRANCH  14  15
BRANCH  14  18
HETATM   18  C           1     -35.264   0.824 -14.336  0.00  0.00     0.198 C 
HETATM   19  O           1     -34.401   1.418 -13.654  0.00  0.00    -0.646 OA
HETATM   20  O           1     -35.588   1.270 -15.458  0.00  0.00    -0.646 OA
ENDBRANCH  14  18
ENDBRANCH   2  14
TORSDOF 8
ENDMDL
MODEL 3
REMARK VINA RESULT:      -5.8     12.909     14.641
REMARK  8 active torsions:
REMARK  status: ('A' for Active; 'I' for Inactive)
REMARK    1  A    between atoms: C_1  and  C_3 
REMARK    2  A    between atoms: C_3  and  C_15 
REMARK    3  A    between atoms: N_5  and  C_19 
REMARK       I    between atoms: N_5  and  C_13 
REMARK    4  A    between atoms: C_6  and  O_14 
REMARK    5  A    between atoms: C_6  and  C_19 
REMARK    6  A    between atoms: N_8  and  C_15 
REMARK    7  A    between atoms: C_13  and  C_15 
REMARK    8  A    between atoms: C_19  and  C_20 
ROOT
HETATM    1  H           1     -22.215  -5.878  -9.553  0.00  0.00     0.163 HD
HETATM    2  N           1     -22.141  -4.946  -9.165  0.00  0.00    -0.343 N 
HETATM    3  O           1     -21.574  -3.658  -7.431  0.00  0.00    -0.271 OA
HETATM    4  C           1     -21.663  -4.769  -7.895  0.00  0.00     0.249 C 
ENDROOT
BRANCH   4   5
HETATM    5  C           1     -21.244  -5.964  -7.073  0.00  0.00     0.278 C 
BRANCH   5   6
HETATM    6  C           1     -21.637  -5.744  -5.619  0.00  0.00     0.021 C 
HETATM    7  C           1     -23.079  -6.186  -5.409  0.00  0.00     0.012 C 
BRANCH   6   8
HETATM    8  C           1     -20.721  -6.560  -4.717  0.00  0.00     0.002 C 
HETATM    9  C           1     -21.312  -6.627  -3.316  0.00  0.00     0.005 C 
ENDBRANCH   6   8
ENDBRANCH   5   6
BRANCH   5  10
HETATM   10  N           1     -19.758  -6.140  -7.168  0.00  0.00    -0.066 N 
HETATM   11  H           1     -19.534  -6.823  -7.927  0.00  0.00     0.275 HD
HETATM   12  H           1     -19.312  -5.220  -7.384  0.00  0.00     0.275 HD
HETATM   13  H           1     -19.392  -6.500  -6.257  0.00  0.00     0.275 HD
ENDBRANCH   5  10
ENDBRANCH   4   5
BRANCH   2  14
HETATM   14  C           1     -22.543  -3.798  -9.954  0.00  0.00     0.209 C 
BRANCH  14  15
HETATM   15  C           1     -21.770  -3.788 -11.267  0.00  0.00     0.200 C 
BRANCH  15  16
HETATM   16  O           1     -22.534  -4.411 -12.264  0.00  0.00    -0.398 OA
HETATM   17  H           1     -21.929  -4.734 -12.910  0.00  0.00     0.209 HD
ENDBRANCH  15  16
ENDBRANCH  14  15
BRANCH  14  18
HETATM   18  C           1     -24.022  -3.877 -10.241  0.00  0.00     0.198 C 
HETATM   19  O           1     -24.618  -2.891 -10.729  0.00  0.00    -0.646 OA
HETATM   20  O           1     -24.653  -4.926  -9.989  0.00  0.00    -0.646 OA
ENDBRANCH  14  18
ENDBRANCH   2  14
TORSDOF 8
ENDMDL
MODEL 4
REMARK VINA RESULT:      -5.4      5.046      6.641
REMARK  8 active torsions:
REMARK  status: ('A' for Active; 'I' for Inactive)
REMARK    1  A    between atoms: C_1  and  C_3 
REMARK    2  A    between atoms: C_3  and  C_15 
REMARK    3  A    between atoms: N_5  and  C_19 
REMARK       I    between atoms: N_5  and  C_13 
REMARK    4  A    between atoms: C_6  and  O_14 
REMARK    5  A    between atoms: C_6  and  C_19 
REMARK    6  A    between atoms: N_8  and  C_15 
REMARK    7  A    between atoms: C_13  and  C_15 
REMARK    8  A    between atoms: C_19  and  C_20 
ROOT
HETATM    1  H           1     -32.187  -5.185 -15.511  0.00  0.00     0.163 HD
HETATM    2  N           1     -32.771  -4.503 -15.978  0.00  0.00    -0.343 N 
HETATM    3  O           1     -32.994  -3.016 -17.630  0.00  0.00    -0.271 OA
HETATM    4  C           1     -32.298  -3.830 -17.072  0.00  0.00     0.249 C 
ENDROOT
BRANCH   4   5
HETATM    5  C           1     -30.906  -4.107 -17.584  0.00  0.00     0.278 C 
BRANCH   5   6
HETATM    6  C           1     -30.236  -5.150 -16.700  0.00  0.00     0.021 C 
HETATM    7  C           1     -30.278  -6.505 -17.391  0.00  0.00     0.012 C 
BRANCH   6   8
HETATM    8  C           1     -28.787  -4.750 -16.454  0.00  0.00     0.002 C 
HETATM    9  C           1     -27.862  -5.712 -17.187  0.00  0.00     0.005 C 
ENDBRANCH   6   8
ENDBRANCH   5   6
BRANCH   5  10
HETATM   10  N           1     -30.102  -2.840 -17.559  0.00  0.00    -0.066 N 
HETATM   11  H           1     -29.098  -3.059 -17.749  0.00  0.00     0.275 HD
HETATM   12  H           1     -30.461  -2.187 -18.291  0.00  0.00     0.275 HD
HETATM   13  H           1     -30.189  -2.393 -16.619  0.00  0.00     0.275 HD
ENDBRANCH   5  10
ENDBRANCH   4   5
BRANCH   2  14
HETATM   14  C           1     -34.109  -4.237 -15.487  0.00  0.00     0.209 C 
BRANCH  14  15
HETATM   15  C           1     -34.917  -5.528 -15.492  0.00  0.00     0.200 C 
BRANCH  15  16
HETATM   16  O           1     -35.260  -5.871 -14.177  0.00  0.00    -0.398 OA
HETATM   17  H           1     -34.469  -5.828 -13.669  0.00  0.00     0.209 HD
ENDBRANCH  15  16
ENDBRANCH  14  15
BRANCH  14  18
HETATM   18  C           1     -34.031  -3.698 -14.080  0.00  0.00     0.198 C 
HETATM   19  O           1     -34.824  -2.806 -13.707  0.00  0.00    -0.646 OA
HETATM   20  O           1     -33.172  -4.140 -13.287  0.00  0.00    -0.646 OA
ENDBRANCH  14  18
ENDBRANCH   2  14
TORSDOF 8
ENDMDL
MODEL 5
REMARK VINA RESULT:      -5.2     15.473     17.307
REMARK  8 active torsions:
REMARK  status: ('A' for Active; 'I' for Inactive)
REMARK    1  A    between atoms: C_1  and  C_3 
REMARK    2  A    between atoms: C_3  and  C_15 
REMARK    3  A    between atoms: N_5  and  C_19 
REMARK       I    between atoms: N_5  and  C_13 
REMARK    4  A    between atoms: C_6  and  O_14 
REMARK    5  A    between atoms: C_6  and  C_19 
REMARK    6  A    between atoms: N_8  and  C_15 
REMARK    7  A    between atoms: C_13  and  C_15 
REMARK    8  A    between atoms: C_19  and  C_20 
ROOT
HETATM    1  H           1     -21.041  -4.732  -4.520  0.00  0.00     0.163 HD
HETATM    2  N           1     -21.360  -5.595  -4.942  0.00  0.00    -0.343 N 
HETATM    3  O           1     -21.965  -7.727  -4.664  0.00  0.00    -0.271 OA
HETATM    4  C           1     -21.585  -6.697  -4.161  0.00  0.00     0.249 C 
ENDROOT
BRANCH   4   5
HETATM    5  C           1     -21.358  -6.625  -2.671  0.00  0.00     0.278 C 
BRANCH   5   6
HETATM    6  C           1     -21.511  -8.014  -2.065  0.00  0.00     0.021 C 
HETATM    7  C           1     -20.138  -8.648  -1.896  0.00  0.00     0.012 C 
BRANCH   6   8
HETATM    8  C           1     -22.189  -7.902  -0.707  0.00  0.00     0.002 C 
HETATM    9  C           1     -22.742  -9.262  -0.300  0.00  0.00     0.005 C 
ENDBRANCH   6   8
ENDBRANCH   5   6
BRANCH   5  10
HETATM   10  N           1     -22.365  -5.699  -2.056  0.00  0.00    -0.066 N 
HETATM   11  H           1     -22.374  -4.794  -2.581  0.00  0.00     0.275 HD
HETATM   12  H           1     -23.312  -6.136  -2.099  0.00  0.00     0.275 HD
HETATM   13  H           1     -22.108  -5.520  -1.059  0.00  0.00     0.275 HD
ENDBRANCH   5  10
ENDBRANCH   4   5
BRANCH   2  14
HETATM   14  C           1     -21.578  -5.665  -6.374  0.00  0.00     0.209 C 
BRANCH  14  15
HETATM   15  C           1     -22.626  -4.636  -6.778  0.00  0.00     0.200 C 
BRANCH  15  16
HETATM   16  O           1     -22.013  -3.604  -7.502  0.00  0.00    -0.398 OA
HETATM   17  H           1     -21.878  -3.927  -8.376  0.00  0.00     0.209 HD
ENDBRANCH  15  16
ENDBRANCH  14  15
BRANCH  14  18
HETATM   18  C           1     -20.285  -5.377  -7.095  0.00  0.00     0.198 C 
HETATM   19  O           1     -20.080  -5.862  -8.229  0.00  0.00    -0.646 OA
HETATM   20  O           1     -19.417  -4.655  -6.558  0.00  0.00    -0.646 OA
ENDBRANCH  14  18
ENDBRANCH   2  14
TORSDOF 8
ENDMDL
MODEL 6
REMARK VINA RESULT:      -5.1     12.463     14.289
REMARK  8 active torsions:
REMARK  status: ('A' for Active; 'I' for Inactive)
REMARK    1  A    between atoms: C_1  and  C_3 
REMARK    2  A    between atoms: C_3  and  C_15 
REMARK    3  A    between atoms: N_5  and  C_19 
REMARK       I    between atoms: N_5  and  C_13 
REMARK    4  A    between atoms: C_6  and  O_14 
REMARK    5  A    between atoms: C_6  and  C_19 
REMARK    6  A    between atoms: N_8  and  C_15 
REMARK    7  A    between atoms: C_13  and  C_15 
REMARK    8  A    between atoms: C_19  and  C_20 
ROOT
HETATM    1  H           1     -22.571  -5.445  -9.161  0.00  0.00     0.163 HD
HETATM    2  N           1     -22.219  -4.765  -9.823  0.00  0.00    -0.343 N 
HETATM    3  O           1     -20.503  -3.518 -10.522  0.00  0.00    -0.271 OA
HETATM    4  C           1     -20.924  -4.329  -9.733  0.00  0.00     0.249 C 
ENDROOT
BRANCH   4   5
HETATM    5  C           1     -20.022  -4.864  -8.648  0.00  0.00     0.278 C 
BRANCH   5   6
HETATM    6  C           1     -20.860  -5.571  -7.591  0.00  0.00     0.021 C 
HETATM    7  C           1     -19.946  -6.348  -6.654  0.00  0.00     0.012 C 
BRANCH   6   8
HETATM    8  C           1     -21.645  -4.538  -6.794  0.00  0.00     0.002 C 
HETATM    9  C           1     -22.962  -5.146  -6.331  0.00  0.00     0.005 C 
ENDBRANCH   6   8
ENDBRANCH   5   6
BRANCH   5  10
HETATM   10  N           1     -19.273  -3.729  -8.016  0.00  0.00    -0.066 N 
HETATM   11  H           1     -19.430  -2.855  -8.568  0.00  0.00     0.275 HD
HETATM   12  H           1     -19.613  -3.590  -7.038  0.00  0.00     0.275 HD
HETATM   13  H           1     -18.252  -3.952  -8.002  0.00  0.00     0.275 HD
ENDBRANCH   5  10
ENDBRANCH   4   5
BRANCH   2  14
HETATM   14  C           1     -23.085  -4.250 -10.865  0.00  0.00     0.209 C 
BRANCH  14  15
HETATM   15  C           1     -23.622  -5.409 -11.696  0.00  0.00     0.200 C 
BRANCH  15  16
HETATM   16  O           1     -23.831  -4.983 -13.015  0.00  0.00    -0.398 OA
HETATM   17  H           1     -24.379  -4.218 -12.972  0.00  0.00     0.209 HD
ENDBRANCH  15  16
ENDBRANCH  14  15
BRANCH  14  18
HETATM   18  C           1     -24.237  -3.504 -10.240  0.00  0.00     0.198 C 
HETATM   19  O           1     -25.201  -3.135 -10.947  0.00  0.00    -0.646 OA
HETATM   20  O           1     -24.228  -3.251  -9.016  0.00  0.00    -0.646 OA
ENDBRANCH  14  18
ENDBRANCH   2  14
TORSDOF 8
ENDMDL
MODEL 7
REMARK VINA RESULT:      -5.1      4.424      6.414
REMARK  8 active torsions:
REMARK  status: ('A' for Active; 'I' for Inactive)
REMARK    1  A    between atoms: C_1  and  C_3 
REMARK    2  A    between atoms: C_3  and  C_15 
REMARK    3  A    between atoms: N_5  and  C_19 
REMARK       I    between atoms: N_5  and  C_13 
REMARK    4  A    between atoms: C_6  and  O_14 
REMARK    5  A    between atoms: C_6  and  C_19 
REMARK    6  A    between atoms: N_8  and  C_15 
REMARK    7  A    between atoms: C_13  and  C_15 
REMARK    8  A    between atoms: C_19  and  C_20 
ROOT
HETATM    1  H           1     -32.710  -5.171 -14.285  0.00  0.00     0.163 HD
HETATM    2  N           1     -33.422  -4.453 -14.245  0.00  0.00    -0.343 N 
HETATM    3  O           1     -34.704  -2.993 -15.348  0.00  0.00    -0.271 OA
HETATM    4  C           1     -33.854  -3.850 -15.395  0.00  0.00     0.249 C 
ENDROOT
BRANCH   4   5
HETATM    5  C           1     -33.268  -4.257 -16.725  0.00  0.00     0.278 C 
BRANCH   5   6
HETATM    6  C           1     -31.785  -4.557 -16.558  0.00  0.00     0.021 C 
HETATM    7  C           1     -31.501  -5.985 -17.004  0.00  0.00     0.012 C 
BRANCH   6   8
HETATM    8  C           1     -30.973  -3.589 -17.409  0.00  0.00     0.002 C 
HETATM    9  C           1     -29.728  -4.293 -17.933  0.00  0.00     0.005 C 
ENDBRANCH   6   8
ENDBRANCH   5   6
BRANCH   5  10
HETATM   10  N           1     -33.445  -3.142 -17.712  0.00  0.00    -0.066 N 
HETATM   11  H           1     -34.330  -3.286 -18.249  0.00  0.00     0.275 HD
HETATM   12  H           1     -33.489  -2.231 -17.203  0.00  0.00     0.275 HD
HETATM   13  H           1     -32.635  -3.132 -18.374  0.00  0.00     0.275 HD
ENDBRANCH   5  10
ENDBRANCH   4   5
BRANCH   2  14
HETATM   14  C           1     -33.986  -4.061 -12.967  0.00  0.00     0.209 C 
BRANCH  14  15
HETATM   15  C           1     -34.903  -5.165 -12.457  0.00  0.00     0.200 C 
BRANCH  15  16
HETATM   16  O           1     -34.149  -6.111 -11.749  0.00  0.00    -0.398 OA
HETATM   17  H           1     -34.757  -6.740 -11.402  0.00  0.00     0.209 HD
ENDBRANCH  15  16
ENDBRANCH  14  15
BRANCH  14  18
HETATM   18  C           1     -32.873  -3.833 -11.975  0.00  0.00     0.198 C 
HETATM   19  O           1     -31.838  -4.534 -12.023  0.00  0.00    -0.646 OA
HETATM   20  O           1     -32.985  -2.945 -11.102  0.00  0.00    -0.646 OA
ENDBRANCH  14  18
ENDBRANCH   2  14
TORSDOF 8
ENDMDL
MODEL 8
REMARK VINA RESULT:      -5.1     14.746     16.947
REMARK  8 active torsions:
REMARK  status: ('A' for Active; 'I' for Inactive)
REMARK    1  A    between atoms: C_1  and  C_3 
REMARK    2  A    between atoms: C_3  and  C_15 
REMARK    3  A    between atoms: N_5  and  C_19 
REMARK       I    between atoms: N_5  and  C_13 
REMARK    4  A    between atoms: C_6  and  O_14 
REMARK    5  A    between atoms: C_6  and  C_19 
REMARK    6  A    between atoms: N_8  and  C_15 
REMARK    7  A    between atoms: C_13  and  C_15 
REMARK    8  A    between atoms: C_19  and  C_20 
ROOT
HETATM    1  H           1     -21.679  -7.173  -7.099  0.00  0.00     0.163 HD
HETATM    2  N           1     -21.254  -6.411  -6.587  0.00  0.00    -0.343 N 
HETATM    3  O           1     -20.876  -4.215  -6.427  0.00  0.00    -0.271 OA
HETATM    4  C           1     -21.384  -5.125  -7.038  0.00  0.00     0.249 C 
ENDROOT
BRANCH   4   5
HETATM    5  C           1     -22.164  -4.844  -8.298  0.00  0.00     0.278 C 
BRANCH   5   6
HETATM    6  C           1     -21.336  -3.962  -9.224  0.00  0.00     0.021 C 
HETATM    7  C           1     -20.116  -4.735  -9.704  0.00  0.00     0.012 C 
BRANCH   6   8
HETATM    8  C           1     -22.181  -3.552 -10.423  0.00  0.00     0.002 C 
HETATM    9  C           1     -21.560  -4.108 -11.697  0.00  0.00     0.005 C 
ENDBRANCH   6   8
ENDBRANCH   5   6
BRANCH   5  10
HETATM   10  N           1     -23.442  -4.140  -7.949  0.00  0.00    -0.066 N 
HETATM   11  H           1     -23.456  -3.928  -6.926  0.00  0.00     0.275 HD
HETATM   12  H           1     -23.508  -3.250  -8.492  0.00  0.00     0.275 HD
HETATM   13  H           1     -24.253  -4.755  -8.188  0.00  0.00     0.275 HD
ENDBRANCH   5  10
ENDBRANCH   4   5
BRANCH   2  14
HETATM   14  C           1     -20.503  -6.680  -5.375  0.00  0.00     0.209 C 
BRANCH  14  15
HETATM   15  C           1     -21.325  -6.254  -4.165  0.00  0.00     0.200 C 
BRANCH  15  16
HETATM   16  O           1     -21.527  -7.358  -3.324  0.00  0.00    -0.398 OA
HETATM   17  H           1     -22.206  -7.878  -3.716  0.00  0.00     0.209 HD
ENDBRANCH  15  16
ENDBRANCH  14  15
BRANCH  14  18
HETATM   18  C           1     -20.204  -8.156  -5.286  0.00  0.00     0.198 C 
HETATM   19  O           1     -19.179  -8.551  -4.688  0.00  0.00    -0.646 OA
HETATM   20  O           1     -20.978  -8.984  -5.811  0.00  0.00    -0.646 OA
ENDBRANCH  14  18
ENDBRANCH   2  14
TORSDOF 8
ENDMDL
MODEL 9
REMARK VINA RESULT:      -4.9     17.193     18.875
REMARK  8 active torsions:
REMARK  status: ('A' for Active; 'I' for Inactive)
REMARK    1  A    between atoms: C_1  and  C_3 
REMARK    2  A    between atoms: C_3  and  C_15 
REMARK    3  A    between atoms: N_5  and  C_19 
REMARK       I    between atoms: N_5  and  C_13 
REMARK    4  A    between atoms: C_6  and  O_14 
REMARK    5  A    between atoms: C_6  and  C_19 
REMARK    6  A    between atoms: N_8  and  C_15 
REMARK    7  A    between atoms: C_13  and  C_15 
REMARK    8  A    between atoms: C_19  and  C_20 
ROOT
HETATM    1  H           1     -22.523  -7.796  -2.755  0.00  0.00     0.163 HD
HETATM    2  N           1     -21.511  -7.789  -2.776  0.00  0.00    -0.343 N 
HETATM    3  O           1     -19.592  -8.101  -1.677  0.00  0.00    -0.271 OA
HETATM    4  C           1     -20.800  -8.109  -1.652  0.00  0.00     0.249 C 
ENDROOT
BRANCH   4   5
HETATM    5  C           1     -21.524  -8.476  -0.380  0.00  0.00     0.278 C 
BRANCH   5   6
HETATM    6  C           1     -21.978  -9.928  -0.452  0.00  0.00     0.021 C 
HETATM    7  C           1     -21.210 -10.752   0.572  0.00  0.00     0.012 C 
BRANCH   6   8
HETATM    8  C           1     -23.468 -10.008  -0.153  0.00  0.00     0.002 C 
HETATM    9  C           1     -24.031 -11.308  -0.711  0.00  0.00     0.005 C 
ENDBRANCH   6   8
ENDBRANCH   5   6
BRANCH   5  10
HETATM   10  N           1     -22.719  -7.586  -0.210  0.00  0.00    -0.066 N 
HETATM   11  H           1     -23.585  -8.170  -0.160  0.00  0.00     0.275 HD
HETATM   12  H           1     -22.620  -7.033   0.670  0.00  0.00     0.275 HD
HETATM   13  H           1     -22.786  -6.935  -1.026  0.00  0.00     0.275 HD
ENDBRANCH   5  10
ENDBRANCH   4   5
BRANCH   2  14
HETATM   14  C           1     -20.815  -7.437  -3.998  0.00  0.00     0.209 C 
BRANCH  14  15
HETATM   15  C           1     -20.898  -8.598  -4.982  0.00  0.00     0.200 C 
BRANCH  15  16
HETATM   16  O           1     -21.188  -8.107  -6.263  0.00  0.00    -0.398 OA
HETATM   17  H           1     -21.839  -8.677  -6.633  0.00  0.00     0.209 HD
ENDBRANCH  15  16
ENDBRANCH  14  15
BRANCH  14  18
HETATM   18  C           1     -21.453  -6.214  -4.608  0.00  0.00     0.198 C 
HETATM   19  O           1     -20.737  -5.291  -5.053  0.00  0.00    -0.646 OA
HETATM   20  O           1     -22.698  -6.123  -4.667  0.00  0.00    -0.646 OA
ENDBRANCH  14  18
ENDBRANCH   2  14
TORSDOF 8
ENDMDL
