MODEL 1
REMARK VINA RESULT:      -6.7      0.000      0.000
REMARK  8 active torsions:
REMARK  status: ('A' for Active; 'I' for Inactive)
REMARK    1  A    between atoms: C_3  and  O_4 
REMARK    2  A    between atoms: O_4  and  P_6 
REMARK    3  A    between atoms: C_5  and  C_21 
REMARK    4  A    between atoms: C_5  and  C_7 
REMARK    5  A    between atoms: C_5  and  N_18 
REMARK    6  A    between atoms: P_6  and  O_8 
REMARK    7  A    between atoms: C_7  and  C_24 
REMARK       I    between atoms: N_18  and  C_25 
REMARK    8  A    between atoms: C_25  and  C_26 
ROOT
HETATM    1  C           1     -20.528  -8.333  -4.480  0.00  0.00     0.189 C 
ENDROOT
BRANCH   1   2
HETATM    2  C           1     -20.972  -9.712  -4.902  0.00  0.00     0.197 C 
HETATM    3  O           1     -21.711 -10.387  -4.154  0.00  0.00    -0.646 OA
HETATM    4  O           1     -20.601 -10.178  -6.001  0.00  0.00    -0.646 OA
ENDBRANCH   1   2
BRANCH   1   5
HETATM    5  C           1     -19.626  -7.738  -5.553  0.00  0.00     0.070 C 
BRANCH   5   6
HETATM    6  C           1     -20.334  -6.605  -6.229  0.00  0.00    -0.073 A 
HETATM    7  C           1     -21.618  -6.243  -5.821  0.00  0.00     0.027 A 
HETATM    8  C           1     -22.278  -5.188  -6.450  0.00  0.00     0.015 A 
HETATM    9  C           1     -21.654  -4.493  -7.486  0.00  0.00     0.078 A 
HETATM   10  C           1     -20.369  -4.854  -7.893  0.00  0.00     0.037 A 
HETATM   11  C           1     -19.709  -5.910  -7.264  0.00  0.00     0.006 A 
BRANCH   9  12
HETATM   12  O           1     -22.294  -3.467  -8.097  0.00  0.00    -0.248 OA
BRANCH  12  13
HETATM   13  P           1     -23.227  -3.804  -9.371  0.00  0.00     0.411 P 
HETATM   14  O           1     -23.195  -5.261  -9.634  0.00  0.00    -0.624 OA
HETATM   15  O           1     -22.723  -3.077 -10.557  0.00  0.00    -0.624 OA
BRANCH  13  16
HETATM   16  O           1     -24.745  -3.348  -9.061  0.00  0.00    -0.300 OA
HETATM   17  H           1     -24.804  -3.322  -8.122  0.00  0.00     0.223 HD
ENDBRANCH  13  16
ENDBRANCH  12  13
ENDBRANCH   9  12
ENDBRANCH   5   6
ENDBRANCH   1   5
BRANCH   1  18
HETATM   18  N           1     -19.796  -8.423  -3.231  0.00  0.00    -0.344 N 
HETATM   19  H           1     -18.804  -8.623  -3.239  0.00  0.00     0.163 HD
HETATM   20  C           1     -20.448  -8.239  -2.041  0.00  0.00     0.252 C 
HETATM   21  O           1     -19.837  -8.313  -1.001  0.00  0.00    -0.271 OA
BRANCH  20  22
HETATM   22  C           1     -21.926  -7.942  -2.029  0.00  0.00     0.345 C 
HETATM   23  C           1     -22.270  -6.952  -0.929  0.00  0.00     0.048 C 
HETATM   24  C           1     -22.690  -7.810   0.259  0.00  0.00     0.033 C 
HETATM   25  C           1     -22.572  -9.245  -0.225  0.00  0.00     0.271 C 
HETATM   26  N           1     -22.693  -9.134  -1.677  0.00  0.00     0.097 N 
HETATM   27  H           1     -23.675  -9.020  -1.928  0.00  0.00     0.317 HD
ENDBRANCH  20  22
ENDBRANCH   1  18
TORSDOF 8
ENDMDL
MODEL 2
REMARK VINA RESULT:      -6.5      2.836      4.808
REMARK  8 active torsions:
REMARK  status: ('A' for Active; 'I' for Inactive)
REMARK    1  A    between atoms: C_3  and  O_4 
REMARK    2  A    between atoms: O_4  and  P_6 
REMARK    3  A    between atoms: C_5  and  C_21 
REMARK    4  A    between atoms: C_5  and  C_7 
REMARK    5  A    between atoms: C_5  and  N_18 
REMARK    6  A    between atoms: P_6  and  O_8 
REMARK    7  A    between atoms: C_7  and  C_24 
REMARK       I    between atoms: N_18  and  C_25 
REMARK    8  A    between atoms: C_25  and  C_26 
ROOT
HETATM    1  C           1     -21.375  -9.332  -0.496  0.00  0.00     0.189 C 
ENDROOT
BRANCH   1   2
HETATM    2  C           1     -20.907  -9.593   0.915  0.00  0.00     0.197 C 
HETATM    3  O           1     -20.907  -8.668   1.755  0.00  0.00    -0.646 OA
HETATM    4  O           1     -20.520 -10.736   1.243  0.00  0.00    -0.646 OA
ENDBRANCH   1   2
BRANCH   1   5
HETATM    5  C           1     -21.260  -7.844  -0.802  0.00  0.00     0.070 C 
BRANCH   5   6
HETATM    6  C           1     -21.220  -7.640  -2.285  0.00  0.00    -0.073 A 
HETATM    7  C           1     -20.373  -8.421  -3.073  0.00  0.00     0.027 A 
HETATM    8  C           1     -20.336  -8.232  -4.454  0.00  0.00     0.015 A 
HETATM    9  C           1     -21.145  -7.263  -5.048  0.00  0.00     0.078 A 
HETATM   10  C           1     -21.992  -6.483  -4.260  0.00  0.00     0.037 A 
HETATM   11  C           1     -22.030  -6.672  -2.878  0.00  0.00     0.006 A 
BRANCH   9  12
HETATM   12  O           1     -21.110  -7.078  -6.390  0.00  0.00    -0.248 OA
BRANCH  12  13
HETATM   13  P           1     -20.684  -5.624  -6.946  0.00  0.00     0.411 P 
HETATM   14  O           1     -20.015  -5.774  -8.258  0.00  0.00    -0.624 OA
HETATM   15  O           1     -19.754  -4.983  -5.989  0.00  0.00    -0.624 OA
BRANCH  13  16
HETATM   16  O           1     -22.002  -4.706  -7.117  0.00  0.00    -0.300 OA
HETATM   17  H           1     -21.704  -3.935  -7.569  0.00  0.00     0.223 HD
ENDBRANCH  13  16
ENDBRANCH  12  13
ENDBRANCH   9  12
ENDBRANCH   5   6
ENDBRANCH   1   5
BRANCH   1  18
HETATM   18  N           1     -22.757  -9.747  -0.631  0.00  0.00    -0.344 N 
HETATM   19  H           1     -23.493  -9.208  -0.192  0.00  0.00     0.163 HD
HETATM   20  C           1     -23.068 -10.868  -1.353  0.00  0.00     0.252 C 
HETATM   21  O           1     -24.220 -11.213  -1.466  0.00  0.00    -0.271 OA
BRANCH  20  22
HETATM   22  C           1     -21.972 -11.671  -2.008  0.00  0.00     0.345 C 
HETATM   23  C           1     -22.529 -12.535  -3.127  0.00  0.00     0.048 C 
HETATM   24  C           1     -22.794 -13.892  -2.486  0.00  0.00     0.033 C 
HETATM   25  C           1     -22.367 -13.737  -1.036  0.00  0.00     0.271 C 
HETATM   26  N           1     -21.406 -12.638  -1.071  0.00  0.00     0.097 N 
HETATM   27  H           1     -20.507 -12.984  -1.407  0.00  0.00     0.317 HD
ENDBRANCH  20  22
ENDBRANCH   1  18
TORSDOF 8
ENDMDL
MODEL 3
REMARK VINA RESULT:      -6.5      4.596      7.768
REMARK  8 active torsions:
REMARK  status: ('A' for Active; 'I' for Inactive)
REMARK    1  A    between atoms: C_3  and  O_4 
REMARK    2  A    between atoms: O_4  and  P_6 
REMARK    3  A    between atoms: C_5  and  C_21 
REMARK    4  A    between atoms: C_5  and  C_7 
REMARK    5  A    between atoms: C_5  and  N_18 
REMARK    6  A    between atoms: P_6  and  O_8 
REMARK    7  A    between atoms: C_7  and  C_24 
REMARK       I    between atoms: N_18  and  C_25 
REMARK    8  A    between atoms: C_25  and  C_26 
ROOT
HETATM    1  C           1     -20.545  -8.950  -4.899  0.00  0.00     0.189 C 
ENDROOT
BRANCH   1   2
HETATM    2  C           1     -21.108 -10.319  -5.191  0.00  0.00     0.197 C 
HETATM    3  O           1     -21.523 -11.037  -4.256  0.00  0.00    -0.646 OA
HETATM    4  O           1     -21.159 -10.734  -6.369  0.00  0.00    -0.646 OA
ENDBRANCH   1   2
BRANCH   1   5
HETATM    5  C           1     -19.638  -9.023  -3.677  0.00  0.00     0.070 C 
BRANCH   5   6
HETATM    6  C           1     -18.277  -9.489  -4.090  0.00  0.00    -0.073 A 
HETATM    7  C           1     -17.961  -9.603  -5.445  0.00  0.00     0.027 A 
HETATM    8  C           1     -16.693 -10.036  -5.831  0.00  0.00     0.015 A 
HETATM    9  C           1     -15.740 -10.355  -4.864  0.00  0.00     0.078 A 
HETATM   10  C           1     -16.056 -10.239  -3.510  0.00  0.00     0.037 A 
HETATM   11  C           1     -17.324  -9.806  -3.123  0.00  0.00     0.006 A 
BRANCH   9  12
HETATM   12  O           1     -14.508 -10.775  -5.238  0.00  0.00    -0.248 OA
BRANCH  12  13
HETATM   13  P           1     -14.203 -12.361  -5.203  0.00  0.00     0.411 P 
HETATM   14  O           1     -15.479 -13.110  -5.266  0.00  0.00    -0.624 OA
HETATM   15  O           1     -13.493 -12.699  -3.950  0.00  0.00    -0.624 OA
BRANCH  13  16
HETATM   16  O           1     -13.284 -12.759  -6.470  0.00  0.00    -0.300 OA
HETATM   17  H           1     -13.711 -13.505  -6.855  0.00  0.00     0.223 HD
ENDBRANCH  13  16
ENDBRANCH  12  13
ENDBRANCH   9  12
ENDBRANCH   5   6
ENDBRANCH   1   5
BRANCH   1  18
HETATM   18  N           1     -21.631  -8.025  -4.639  0.00  0.00    -0.344 N 
HETATM   19  H           1     -22.451  -8.338  -4.135  0.00  0.00     0.163 HD
HETATM   20  C           1     -21.547  -6.730  -5.075  0.00  0.00     0.252 C 
HETATM   21  O           1     -22.453  -5.961  -4.858  0.00  0.00    -0.271 OA
BRANCH  20  22
HETATM   22  C           1     -20.325  -6.265  -5.826  0.00  0.00     0.345 C 
HETATM   23  C           1     -20.096  -4.778  -5.618  0.00  0.00     0.048 C 
HETATM   24  C           1     -20.772  -4.102  -6.806  0.00  0.00     0.033 C 
HETATM   25  C           1     -21.345  -5.238  -7.635  0.00  0.00     0.271 C 
HETATM   26  N           1     -20.523  -6.388  -7.268  0.00  0.00     0.097 N 
HETATM   27  H           1     -19.631  -6.340  -7.761  0.00  0.00     0.317 HD
ENDBRANCH  20  22
ENDBRANCH   1  18
TORSDOF 8
ENDMDL
MODEL 4
REMARK VINA RESULT:      -6.3      4.830      8.500
REMARK  8 active torsions:
REMARK  status: ('A' for Active; 'I' for Inactive)
REMARK    1  A    between atoms: C_3  and  O_4 
REMARK    2  A    between atoms: O_4  and  P_6 
REMARK    3  A    between atoms: C_5  and  C_21 
REMARK    4  A    between atoms: C_5  and  C_7 
REMARK    5  A    between atoms: C_5  and  N_18 
REMARK    6  A    between atoms: P_6  and  O_8 
REMARK    7  A    between atoms: C_7  and  C_24 
REMARK       I    between atoms: N_18  and  C_25 
REMARK    8  A    between atoms: C_25  and  C_26 
ROOT
HETATM    1  C           1     -21.590  -7.987  -1.854  0.00  0.00     0.189 C 
ENDROOT
BRANCH   1   2
HETATM    2  C           1     -22.021  -6.560  -2.089  0.00  0.00     0.197 C 
HETATM    3  O           1     -22.363  -5.844  -1.124  0.00  0.00    -0.646 OA
HETATM    4  O           1     -22.038  -6.096  -3.250  0.00  0.00    -0.646 OA
ENDBRANCH   1   2
BRANCH   1   5
HETATM    5  C           1     -21.557  -8.268  -0.358  0.00  0.00     0.070 C 
BRANCH   5   6
HETATM    6  C           1     -22.042  -9.660  -0.099  0.00  0.00    -0.073 A 
HETATM    7  C           1     -23.380  -9.985  -0.327  0.00  0.00     0.027 A 
HETATM    8  C           1     -23.833 -11.282  -0.087  0.00  0.00     0.015 A 
HETATM    9  C           1     -22.949 -12.254   0.381  0.00  0.00     0.078 A 
HETATM   10  C           1     -21.612 -11.930   0.608  0.00  0.00     0.037 A 
HETATM   11  C           1     -21.158 -10.633   0.368  0.00  0.00     0.006 A 
BRANCH   9  12
HETATM   12  O           1     -23.389 -13.515   0.615  0.00  0.00    -0.248 OA
BRANCH  12  13
HETATM   13  P           1     -23.520 -14.519  -0.643  0.00  0.00     0.411 P 
HETATM   14  O           1     -24.936 -14.588  -1.072  0.00  0.00    -0.624 OA
HETATM   15  O           1     -23.057 -15.867  -0.248  0.00  0.00    -0.624 OA
BRANCH  13  16
HETATM   16  O           1     -22.616 -13.972  -1.865  0.00  0.00    -0.300 OA
HETATM   17  H           1     -22.465 -14.724  -2.411  0.00  0.00     0.223 HD
ENDBRANCH  13  16
ENDBRANCH  12  13
ENDBRANCH   9  12
ENDBRANCH   5   6
ENDBRANCH   1   5
BRANCH   1  18
HETATM   18  N           1     -20.267  -8.190  -2.413  0.00  0.00    -0.344 N 
HETATM   19  H           1     -19.454  -7.829  -1.931  0.00  0.00     0.163 HD
HETATM   20  C           1     -20.119  -8.870  -3.592  0.00  0.00     0.252 C 
HETATM   21  O           1     -19.016  -9.039  -4.056  0.00  0.00    -0.271 OA
BRANCH  20  22
HETATM   22  C           1     -21.331  -9.408  -4.310  0.00  0.00     0.345 C 
HETATM   23  C           1     -21.821 -10.690  -3.658  0.00  0.00     0.048 C 
HETATM   24  C           1     -21.165 -11.814  -4.452  0.00  0.00     0.033 C 
HETATM   25  C           1     -20.341 -11.117  -5.521  0.00  0.00     0.271 C 
HETATM   26  N           1     -20.990  -9.817  -5.670  0.00  0.00     0.097 N 
HETATM   27  H           1     -21.831  -9.920  -6.238  0.00  0.00     0.317 HD
ENDBRANCH  20  22
ENDBRANCH   1  18
TORSDOF 8
ENDMDL
MODEL 5
REMARK VINA RESULT:      -6.1      4.617      7.920
REMARK  8 active torsions:
REMARK  status: ('A' for Active; 'I' for Inactive)
REMARK    1  A    between atoms: C_3  and  O_4 
REMARK    2  A    between atoms: O_4  and  P_6 
REMARK    3  A    between atoms: C_5  and  C_21 
REMARK    4  A    between atoms: C_5  and  C_7 
REMARK    5  A    between atoms: C_5  and  N_18 
REMARK    6  A    between atoms: P_6  and  O_8 
REMARK    7  A    between atoms: C_7  and  C_24 
REMARK       I    between atoms: N_18  and  C_25 
REMARK    8  A    between atoms: C_25  and  C_26 
ROOT
HETATM    1  C           1     -19.849  -8.466  -4.405  0.00  0.00     0.189 C 
ENDROOT
BRANCH   1   2
HETATM    2  C           1     -20.368  -7.301  -5.211  0.00  0.00     0.197 C 
HETATM    3  O           1     -19.938  -7.101  -6.367  0.00  0.00    -0.646 OA
HETATM    4  O           1     -21.228  -6.536  -4.722  0.00  0.00    -0.646 OA
ENDBRANCH   1   2
BRANCH   1   5
HETATM    5  C           1     -18.883  -9.282  -5.253  0.00  0.00     0.070 C 
BRANCH   5   6
HETATM    6  C           1     -17.957 -10.049  -4.361  0.00  0.00    -0.073 A 
HETATM    7  C           1     -17.358  -9.417  -3.271  0.00  0.00     0.027 A 
HETATM    8  C           1     -16.496 -10.130  -2.439  0.00  0.00     0.015 A 
HETATM    9  C           1     -16.232 -11.476  -2.696  0.00  0.00     0.078 A 
HETATM   10  C           1     -16.832 -12.108  -3.786  0.00  0.00     0.037 A 
HETATM   11  C           1     -17.694 -11.394  -4.618  0.00  0.00     0.006 A 
BRANCH   9  12
HETATM   12  O           1     -15.395 -12.170  -1.888  0.00  0.00    -0.248 OA
BRANCH  12  13
HETATM   13  P           1     -15.954 -12.657  -0.454  0.00  0.00     0.411 P 
HETATM   14  O           1     -15.372 -13.977  -0.120  0.00  0.00    -0.624 OA
HETATM   15  O           1     -17.428 -12.768  -0.510  0.00  0.00    -0.624 OA
BRANCH  13  16
HETATM   16  O           1     -15.535 -11.584   0.679  0.00  0.00    -0.300 OA
HETATM   17  H           1     -15.760 -10.746   0.314  0.00  0.00     0.223 HD
ENDBRANCH  13  16
ENDBRANCH  12  13
ENDBRANCH   9  12
ENDBRANCH   5   6
ENDBRANCH   1   5
BRANCH   1  18
HETATM   18  N           1     -20.960  -9.305  -3.997  0.00  0.00    -0.344 N 
HETATM   19  H           1     -21.441  -9.874  -4.682  0.00  0.00     0.163 HD
HETATM   20  C           1     -21.357  -9.326  -2.687  0.00  0.00     0.252 C 
HETATM   21  O           1     -22.282 -10.026  -2.349  0.00  0.00    -0.271 OA
BRANCH  20  22
HETATM   22  C           1     -20.639  -8.478  -1.668  0.00  0.00     0.345 C 
HETATM   23  C           1     -21.068  -8.847  -0.258  0.00  0.00     0.048 C 
HETATM   24  C           1     -22.186  -7.868   0.086  0.00  0.00     0.033 C 
HETATM   25  C           1     -22.331  -6.985  -1.141  0.00  0.00     0.271 C 
HETATM   26  N           1     -21.027  -7.075  -1.793  0.00  0.00     0.097 N 
HETATM   27  H           1     -20.363  -6.471  -1.309  0.00  0.00     0.317 HD
ENDBRANCH  20  22
ENDBRANCH   1  18
TORSDOF 8
ENDMDL
MODEL 6
REMARK VINA RESULT:      -5.9      4.910      8.684
REMARK  8 active torsions:
REMARK  status: ('A' for Active; 'I' for Inactive)
REMARK    1  A    between atoms: C_3  and  O_4 
REMARK    2  A    between atoms: O_4  and  P_6 
REMARK    3  A    between atoms: C_5  and  C_21 
REMARK    4  A    between atoms: C_5  and  C_7 
REMARK    5  A    between atoms: C_5  and  N_18 
REMARK    6  A    between atoms: P_6  and  O_8 
REMARK    7  A    between atoms: C_7  and  C_24 
REMARK       I    between atoms: N_18  and  C_25 
REMARK    8  A    between atoms: C_25  and  C_26 
ROOT
HETATM    1  C           1     -21.575  -7.878  -1.849  0.00  0.00     0.189 C 
ENDROOT
BRANCH   1   2
HETATM    2  C           1     -22.017  -6.522  -2.342  0.00  0.00     0.197 C 
HETATM    3  O           1     -22.393  -5.653  -1.526  0.00  0.00    -0.646 OA
HETATM    4  O           1     -22.007  -6.269  -3.566  0.00  0.00    -0.646 OA
ENDBRANCH   1   2
BRANCH   1   5
HETATM    5  C           1     -21.945  -8.031  -0.380  0.00  0.00     0.070 C 
BRANCH   5   6
HETATM    6  C           1     -22.191  -9.476  -0.073  0.00  0.00    -0.073 A 
HETATM    7  C           1     -21.171 -10.255   0.474  0.00  0.00     0.027 A 
HETATM    8  C           1     -21.399 -11.601   0.760  0.00  0.00     0.015 A 
HETATM    9  C           1     -22.647 -12.168   0.500  0.00  0.00     0.078 A 
HETATM   10  C           1     -23.667 -11.388  -0.046  0.00  0.00     0.037 A 
HETATM   11  C           1     -23.438 -10.042  -0.333  0.00  0.00     0.006 A 
BRANCH   9  12
HETATM   12  O           1     -22.870 -13.475   0.778  0.00  0.00    -0.248 OA
BRANCH  12  13
HETATM   13  P           1     -22.224 -14.582  -0.204  0.00  0.00     0.411 P 
HETATM   14  O           1     -22.085 -14.013  -1.564  0.00  0.00    -0.624 OA
HETATM   15  O           1     -23.105 -15.770  -0.255  0.00  0.00    -0.624 OA
BRANCH  13  16
HETATM   16  O           1     -20.769 -15.010   0.350  0.00  0.00    -0.300 OA
HETATM   17  H           1     -20.898 -15.176   1.268  0.00  0.00     0.223 HD
ENDBRANCH  13  16
ENDBRANCH  12  13
ENDBRANCH   9  12
ENDBRANCH   5   6
ENDBRANCH   1   5
BRANCH   1  18
HETATM   18  N           1     -20.138  -8.003  -2.000  0.00  0.00    -0.344 N 
HETATM   19  H           1     -19.525  -7.305  -1.599  0.00  0.00     0.163 HD
HETATM   20  C           1     -19.611  -9.064  -2.686  0.00  0.00     0.252 C 
HETATM   21  O           1     -18.414  -9.167  -2.811  0.00  0.00    -0.271 OA
BRANCH  20  22
HETATM   22  C           1     -20.525 -10.104  -3.285  0.00  0.00     0.345 C 
HETATM   23  C           1     -19.906 -11.488  -3.188  0.00  0.00     0.048 C 
HETATM   24  C           1     -19.203 -11.702  -4.523  0.00  0.00     0.033 C 
HETATM   25  C           1     -19.463 -10.434  -5.317  0.00  0.00     0.271 C 
HETATM   26  N           1     -20.682  -9.893  -4.721  0.00  0.00     0.097 N 
HETATM   27  H           1     -21.490 -10.405  -5.076  0.00  0.00     0.317 HD
ENDBRANCH  20  22
ENDBRANCH   1  18
TORSDOF 8
ENDMDL
MODEL 7
REMARK VINA RESULT:      -5.9      2.916      4.955
REMARK  8 active torsions:
REMARK  status: ('A' for Active; 'I' for Inactive)
REMARK    1  A    between atoms: C_3  and  O_4 
REMARK    2  A    between atoms: O_4  and  P_6 
REMARK    3  A    between atoms: C_5  and  C_21 
REMARK    4  A    between atoms: C_5  and  C_7 
REMARK    5  A    between atoms: C_5  and  N_18 
REMARK    6  A    between atoms: P_6  and  O_8 
REMARK    7  A    between atoms: C_7  and  C_24 
REMARK       I    between atoms: N_18  and  C_25 
REMARK    8  A    between atoms: C_25  and  C_26 
ROOT
HETATM    1  C           1     -19.005 -10.290  -3.844  0.00  0.00     0.189 C 
ENDROOT
BRANCH   1   2
HETATM    2  C           1     -17.545 -10.182  -3.481  0.00  0.00     0.197 C 
HETATM    3  O           1     -17.152  -9.252  -2.744  0.00  0.00    -0.646 OA
HETATM    4  O           1     -16.729 -11.022  -3.917  0.00  0.00    -0.646 OA
ENDBRANCH   1   2
BRANCH   1   5
HETATM    5  C           1     -19.827  -9.406  -2.916  0.00  0.00     0.070 C 
BRANCH   5   6
HETATM    6  C           1     -20.462  -8.304  -3.706  0.00  0.00    -0.073 A 
HETATM    7  C           1     -20.949  -7.171  -3.054  0.00  0.00     0.027 A 
HETATM    8  C           1     -21.540  -6.144  -3.790  0.00  0.00     0.015 A 
HETATM    9  C           1     -21.645  -6.250  -5.177  0.00  0.00     0.078 A 
HETATM   10  C           1     -21.158  -7.383  -5.828  0.00  0.00     0.037 A 
HETATM   11  C           1     -20.566  -8.410  -5.093  0.00  0.00     0.006 A 
BRANCH   9  12
HETATM   12  O           1     -22.219  -5.253  -5.892  0.00  0.00    -0.248 OA
BRANCH  12  13
HETATM   13  P           1     -21.326  -4.512  -7.015  0.00  0.00     0.411 P 
HETATM   14  O           1     -21.438  -5.245  -8.297  0.00  0.00    -0.624 OA
HETATM   15  O           1     -19.911  -4.488  -6.583  0.00  0.00    -0.624 OA
BRANCH  13  16
HETATM   16  O           1     -21.857  -2.999  -7.213  0.00  0.00    -0.300 OA
HETATM   17  H           1     -21.183  -2.455  -6.845  0.00  0.00     0.223 HD
ENDBRANCH  13  16
ENDBRANCH  12  13
ENDBRANCH   9  12
ENDBRANCH   5   6
ENDBRANCH   1   5
BRANCH   1  18
HETATM   18  N           1     -19.437 -11.668  -3.705  0.00  0.00    -0.344 N 
HETATM   19  H           1     -19.283 -12.161  -2.835  0.00  0.00     0.163 HD
HETATM   20  C           1     -20.053 -12.301  -4.751  0.00  0.00     0.252 C 
HETATM   21  O           1     -20.413 -13.448  -4.635  0.00  0.00    -0.271 OA
BRANCH  20  22
HETATM   22  C           1     -20.283 -11.566  -6.048  0.00  0.00     0.345 C 
HETATM   23  C           1     -21.256 -12.323  -6.935  0.00  0.00     0.048 C 
HETATM   24  C           1     -20.380 -13.162  -7.858  0.00  0.00     0.033 C 
HETATM   25  C           1     -18.952 -12.834  -7.458  0.00  0.00     0.271 C 
HETATM   26  N           1     -19.057 -11.515  -6.840  0.00  0.00     0.097 N 
HETATM   27  H           1     -19.126 -10.804  -7.569  0.00  0.00     0.317 HD
ENDBRANCH  20  22
ENDBRANCH   1  18
TORSDOF 8
ENDMDL
MODEL 8
REMARK VINA RESULT:      -5.9      4.435      7.108
REMARK  8 active torsions:
REMARK  status: ('A' for Active; 'I' for Inactive)
REMARK    1  A    between atoms: C_3  and  O_4 
REMARK    2  A    between atoms: O_4  and  P_6 
REMARK    3  A    between atoms: C_5  and  C_21 
REMARK    4  A    between atoms: C_5  and  C_7 
REMARK    5  A    between atoms: C_5  and  N_18 
REMARK    6  A    between atoms: P_6  and  O_8 
REMARK    7  A    between atoms: C_7  and  C_24 
REMARK       I    between atoms: N_18  and  C_25 
REMARK    8  A    between atoms: C_25  and  C_26 
ROOT
HETATM    1  C           1     -20.715  -8.166  -3.979  0.00  0.00     0.189 C 
ENDROOT
BRANCH   1   2
HETATM    2  C           1     -21.310  -6.792  -4.166  0.00  0.00     0.197 C 
HETATM    3  O           1     -21.065  -6.140  -5.203  0.00  0.00    -0.646 OA
HETATM    4  O           1     -22.049  -6.307  -3.282  0.00  0.00    -0.646 OA
ENDBRANCH   1   2
BRANCH   1   5
HETATM    5  C           1     -20.080  -8.627  -5.285  0.00  0.00     0.070 C 
BRANCH   5   6
HETATM    6  C           1     -18.715  -9.177  -5.012  0.00  0.00    -0.073 A 
HETATM    7  C           1     -17.890  -9.554  -6.072  0.00  0.00     0.027 A 
HETATM    8  C           1     -16.618 -10.065  -5.818  0.00  0.00     0.015 A 
HETATM    9  C           1     -16.170 -10.200  -4.505  0.00  0.00     0.078 A 
HETATM   10  C           1     -16.994  -9.822  -3.444  0.00  0.00     0.037 A 
HETATM   11  C           1     -18.266  -9.311  -3.698  0.00  0.00     0.006 A 
BRANCH   9  12
HETATM   12  O           1     -14.934 -10.697  -4.257  0.00  0.00    -0.248 OA
BRANCH  12  13
HETATM   13  P           1     -14.672 -12.264  -4.549  0.00  0.00     0.411 P 
HETATM   14  O           1     -14.214 -12.435  -5.946  0.00  0.00    -0.624 OA
HETATM   15  O           1     -15.928 -13.020  -4.344  0.00  0.00    -0.624 OA
BRANCH  13  16
HETATM   16  O           1     -13.538 -12.816  -3.540  0.00  0.00    -0.300 OA
HETATM   17  H           1     -14.004 -13.345  -2.916  0.00  0.00     0.223 HD
ENDBRANCH  13  16
ENDBRANCH  12  13
ENDBRANCH   9  12
ENDBRANCH   5   6
ENDBRANCH   1   5
BRANCH   1  18
HETATM   18  N           1     -21.758  -9.097  -3.595  0.00  0.00    -0.344 N 
HETATM   19  H           1     -22.470  -9.363  -4.263  0.00  0.00     0.163 HD
HETATM   20  C           1     -21.779  -9.616  -2.328  0.00  0.00     0.252 C 
HETATM   21  O           1     -22.648 -10.392  -2.008  0.00  0.00    -0.271 OA
BRANCH  20  22
HETATM   22  C           1     -20.717  -9.220  -1.332  0.00  0.00     0.345 C 
HETATM   23  C           1     -20.879  -9.991  -0.033  0.00  0.00     0.048 C 
HETATM   24  C           1     -21.706  -9.081   0.868  0.00  0.00     0.033 C 
HETATM   25  C           1     -21.966  -7.834   0.040  0.00  0.00     0.271 C 
HETATM   26  N           1     -20.876  -7.825  -0.931  0.00  0.00     0.097 N 
HETATM   27  H           1     -20.027  -7.477  -0.485  0.00  0.00     0.317 HD
ENDBRANCH  20  22
ENDBRANCH   1  18
TORSDOF 8
ENDMDL
MODEL 9
REMARK VINA RESULT:      -5.8     12.616     15.465
REMARK  8 active torsions:
REMARK  status: ('A' for Active; 'I' for Inactive)
REMARK    1  A    between atoms: C_3  and  O_4 
REMARK    2  A    between atoms: O_4  and  P_6 
REMARK    3  A    between atoms: C_5  and  C_21 
REMARK    4  A    between atoms: C_5  and  C_7 
REMARK    5  A    between atoms: C_5  and  N_18 
REMARK    6  A    between atoms: P_6  and  O_8 
REMARK    7  A    between atoms: C_7  and  C_24 
REMARK       I    between atoms: N_18  and  C_25 
REMARK    8  A    between atoms: C_25  and  C_26 
ROOT
HETATM    1  C           1     -26.588  -5.941 -16.875  0.00  0.00     0.189 C 
ENDROOT
BRANCH   1   2
HETATM    2  C           1     -26.410  -7.000 -15.815  0.00  0.00     0.197 C 
HETATM    3  O           1     -25.266  -7.273 -15.390  0.00  0.00    -0.646 OA
HETATM    4  O           1     -27.406  -7.606 -15.364  0.00  0.00    -0.646 OA
ENDBRANCH   1   2
BRANCH   1   5
HETATM    5  C           1     -27.201  -4.695 -16.249  0.00  0.00     0.070 C 
BRANCH   5   6
HETATM    6  C           1     -28.674  -4.673 -16.516  0.00  0.00    -0.073 A 
HETATM    7  C           1     -29.211  -3.722 -17.384  0.00  0.00     0.027 A 
HETATM    8  C           1     -30.583  -3.702 -17.634  0.00  0.00     0.015 A 
HETATM    9  C           1     -31.418  -4.633 -17.016  0.00  0.00     0.078 A 
HETATM   10  C           1     -30.881  -5.585 -16.150  0.00  0.00     0.037 A 
HETATM   11  C           1     -29.509  -5.605 -15.900  0.00  0.00     0.006 A 
BRANCH   9  12
HETATM   12  O           1     -32.751  -4.614 -17.259  0.00  0.00    -0.248 OA
BRANCH  12  13
HETATM   13  P           1     -33.743  -4.289 -16.027  0.00  0.00     0.411 P 
HETATM   14  O           1     -34.463  -3.023 -16.295  0.00  0.00    -0.624 OA
HETATM   15  O           1     -32.955  -4.153 -14.782  0.00  0.00    -0.624 OA
BRANCH  13  16
HETATM   16  O           1     -34.810  -5.490 -15.863  0.00  0.00    -0.300 OA
HETATM   17  H           1     -35.652  -5.069 -15.867  0.00  0.00     0.223 HD
ENDBRANCH  13  16
ENDBRANCH  12  13
ENDBRANCH   9  12
ENDBRANCH   5   6
ENDBRANCH   1   5
BRANCH   1  18
HETATM   18  N           1     -27.465  -6.440 -17.915  0.00  0.00    -0.344 N 
HETATM   19  H           1     -28.433  -6.648 -17.705  0.00  0.00     0.163 HD
HETATM   20  C           1     -26.984  -6.630 -19.183  0.00  0.00     0.252 C 
HETATM   21  O           1     -27.716  -7.046 -20.050  0.00  0.00    -0.271 OA
BRANCH  20  22
HETATM   22  C           1     -25.541  -6.321 -19.497  0.00  0.00     0.345 C 
HETATM   23  C           1     -25.381  -5.906 -20.950  0.00  0.00     0.048 C 
HETATM   24  C           1     -25.003  -7.185 -21.688  0.00  0.00     0.033 C 
HETATM   25  C           1     -24.959  -8.263 -20.618  0.00  0.00     0.271 C 
HETATM   26  N           1     -24.716  -7.520 -19.384  0.00  0.00     0.097 N 
HETATM   27  H           1     -23.727  -7.275 -19.325  0.00  0.00     0.317 HD
ENDBRANCH  20  22
ENDBRANCH   1  18
TORSDOF 8
ENDMDL
