MODEL 1
REMARK VINA RESULT:      -5.0      0.000      0.000
REMARK  6 active torsions:
REMARK  status: ('A' for Active; 'I' for Inactive)
REMARK    1  A    between atoms: C_5  and  C_13 
REMARK    2  A    between atoms: C_5  and  N_6 
REMARK       I    between atoms: N_6  and  C_7 
REMARK    3  A    between atoms: C_7  and  C_8 
REMARK    4  A    between atoms: C_8  and  C_9 
REMARK    5  A    between atoms: C_8  and  N_11 
REMARK    6  A    between atoms: C_9  and  S_10 
ROOT
HETATM    1  N           1     -26.983  -6.983 -16.265  0.00  0.00    -0.349 N 
HETATM    2  C           1     -27.746  -5.950 -16.737  0.00  0.00     0.249 C 
HETATM    3  O           1     -27.327  -4.819 -16.690  0.00  0.00    -0.271 OA
HETATM    4  H           1     -27.334  -7.931 -16.304  0.00  0.00     0.163 HD
ENDROOT
BRANCH   2   5
HETATM    5  C           1     -29.112  -6.225 -17.316  0.00  0.00     0.283 C 
BRANCH   5   6
HETATM    6  C           1     -30.174  -5.555 -16.454  0.00  0.00     0.113 C 
BRANCH   6   7
HETATM    7  S           1     -30.851  -4.119 -17.334  0.00  0.00    -0.180 SA
HETATM    8  H           1     -29.662  -3.578 -17.656  0.00  0.00     0.101 HD
ENDBRANCH   6   7
ENDBRANCH   5   6
BRANCH   5   9
HETATM    9  N           1     -29.353  -7.706 -17.345  0.00  0.00    -0.066 N 
HETATM   10  H           1     -30.066  -7.929 -18.077  0.00  0.00     0.275 HD
HETATM   11  H           1     -28.460  -8.199 -17.568  0.00  0.00     0.275 HD
HETATM   12  H           1     -29.704  -8.019 -16.412  0.00  0.00     0.275 HD
ENDBRANCH   5   9
ENDBRANCH   2   5
BRANCH   1  13
HETATM   13  C           1     -25.670  -6.719 -15.709  0.00  0.00     0.235 C 
BRANCH  13  14
HETATM   14  C           1     -24.614  -7.344 -16.587  0.00  0.00     0.191 C 
HETATM   15  O           1     -24.056  -8.405 -16.236  0.00  0.00    -0.647 OA
HETATM   16  O           1     -24.298  -6.799 -17.667  0.00  0.00    -0.647 OA
ENDBRANCH  13  14
ENDBRANCH   1  13
TORSDOF 6
ENDMDL
MODEL 2
REMARK VINA RESULT:      -4.6      3.049      3.449
REMARK  6 active torsions:
REMARK  status: ('A' for Active; 'I' for Inactive)
REMARK    1  A    between atoms: C_5  and  C_13 
REMARK    2  A    between atoms: C_5  and  N_6 
REMARK       I    between atoms: N_6  and  C_7 
REMARK    3  A    between atoms: C_7  and  C_8 
REMARK    4  A    between atoms: C_8  and  C_9 
REMARK    5  A    between atoms: C_8  and  N_11 
REMARK    6  A    between atoms: C_9  and  S_10 
ROOT
HETATM    1  N           1     -26.626  -6.732 -19.490  0.00  0.00    -0.349 N 
HETATM    2  C           1     -26.673  -6.395 -18.164  0.00  0.00     0.249 C 
HETATM    3  O           1     -25.650  -6.294 -17.531  0.00  0.00    -0.271 OA
HETATM    4  H           1     -27.483  -6.817 -20.021  0.00  0.00     0.163 HD
ENDROOT
BRANCH   2   5
HETATM    5  C           1     -28.002  -6.150 -17.494  0.00  0.00     0.283 C 
BRANCH   5   6
HETATM    6  C           1     -27.985  -4.788 -16.814  0.00  0.00     0.113 C 
BRANCH   6   7
HETATM    7  S           1     -29.301  -3.747 -17.509  0.00  0.00    -0.180 SA
HETATM    8  H           1     -29.747  -3.278 -16.329  0.00  0.00     0.101 HD
ENDBRANCH   6   7
ENDBRANCH   5   6
BRANCH   5   9
HETATM    9  N           1     -28.249  -7.217 -16.469  0.00  0.00    -0.066 N 
HETATM   10  H           1     -27.815  -6.936 -15.560  0.00  0.00     0.275 HD
HETATM   11  H           1     -29.278  -7.342 -16.338  0.00  0.00     0.275 HD
HETATM   12  H           1     -27.826  -8.115 -16.793  0.00  0.00     0.275 HD
ENDBRANCH   5   9
ENDBRANCH   2   5
BRANCH   1  13
HETATM   13  C           1     -25.349  -6.967 -20.134  0.00  0.00     0.235 C 
BRANCH  13  14
HETATM   14  C           1     -25.526  -7.960 -21.257  0.00  0.00     0.191 C 
HETATM   15  O           1     -24.615  -8.122 -22.097  0.00  0.00    -0.647 OA
HETATM   16  O           1     -26.583  -8.621 -21.346  0.00  0.00    -0.647 OA
ENDBRANCH  13  14
ENDBRANCH   1  13
TORSDOF 6
ENDMDL
MODEL 3
REMARK VINA RESULT:      -4.5      9.727     11.044
REMARK  6 active torsions:
REMARK  status: ('A' for Active; 'I' for Inactive)
REMARK    1  A    between atoms: C_5  and  C_13 
REMARK    2  A    between atoms: C_5  and  N_6 
REMARK       I    between atoms: N_6  and  C_7 
REMARK    3  A    between atoms: C_7  and  C_8 
REMARK    4  A    between atoms: C_8  and  C_9 
REMARK    5  A    between atoms: C_8  and  N_11 
REMARK    6  A    between atoms: C_9  and  S_10 
ROOT
HETATM    1  N           1     -22.668  -3.649  -8.536  0.00  0.00    -0.349 N 
HETATM    2  C           1     -21.533  -4.301  -8.136  0.00  0.00     0.249 C 
HETATM    3  O           1     -20.750  -4.709  -8.958  0.00  0.00    -0.271 OA
HETATM    4  H           1     -23.326  -3.307  -7.847  0.00  0.00     0.163 HD
ENDROOT
BRANCH   2   5
HETATM    5  C           1     -21.262  -4.510  -6.666  0.00  0.00     0.283 C 
BRANCH   5   6
HETATM    6  C           1     -19.984  -5.320  -6.495  0.00  0.00     0.113 C 
BRANCH   6   7
HETATM    7  S           1     -20.363  -6.875  -5.638  0.00  0.00    -0.180 SA
HETATM    8  H           1     -20.953  -7.474  -6.689  0.00  0.00     0.101 HD
ENDBRANCH   6   7
ENDBRANCH   5   6
BRANCH   5   9
HETATM    9  N           1     -22.411  -5.252  -6.047  0.00  0.00    -0.066 N 
HETATM   10  H           1     -23.215  -5.270  -6.714  0.00  0.00     0.275 HD
HETATM   11  H           1     -22.116  -6.230  -5.831  0.00  0.00     0.275 HD
HETATM   12  H           1     -22.700  -4.770  -5.166  0.00  0.00     0.275 HD
ENDBRANCH   5   9
ENDBRANCH   2   5
BRANCH   1  13
HETATM   13  C           1     -22.929  -3.448  -9.948  0.00  0.00     0.235 C 
BRANCH  13  14
HETATM   14  C           1     -24.346  -3.859 -10.263  0.00  0.00     0.191 C 
HETATM   15  O           1     -24.791  -4.946  -9.836  0.00  0.00    -0.647 OA
HETATM   16  O           1     -25.076  -3.112 -10.950  0.00  0.00    -0.647 OA
ENDBRANCH  13  14
ENDBRANCH   1  13
TORSDOF 6
ENDMDL
MODEL 4
REMARK VINA RESULT:      -4.5      9.868     11.157
REMARK  6 active torsions:
REMARK  status: ('A' for Active; 'I' for Inactive)
REMARK    1  A    between atoms: C_5  and  C_13 
REMARK    2  A    between atoms: C_5  and  N_6 
REMARK       I    between atoms: N_6  and  C_7 
REMARK    3  A    between atoms: C_7  and  C_8 
REMARK    4  A    between atoms: C_8  and  C_9 
REMARK    5  A    between atoms: C_8  and  N_11 
REMARK    6  A    between atoms: C_9  and  S_10 
ROOT
HETATM    1  N           1     -22.510  -4.338  -8.790  0.00  0.00    -0.349 N 
HETATM    2  C           1     -22.090  -4.688  -7.536  0.00  0.00     0.249 C 
HETATM    3  O           1     -22.854  -4.624  -6.603  0.00  0.00    -0.271 OA
HETATM    4  H           1     -21.870  -4.391  -9.572  0.00  0.00     0.163 HD
ENDROOT
BRANCH   2   5
HETATM    5  C           1     -20.671  -5.152  -7.318  0.00  0.00     0.283 C 
BRANCH   5   6
HETATM    6  C           1     -20.410  -5.308  -5.826  0.00  0.00     0.113 C 
BRANCH   6   7
HETATM    7  S           1     -20.464  -7.068  -5.382  0.00  0.00    -0.180 SA
HETATM    8  H           1     -21.787  -7.221  -5.574  0.00  0.00     0.101 HD
ENDBRANCH   6   7
ENDBRANCH   5   6
BRANCH   5   9
HETATM    9  N           1     -19.720  -4.141  -7.888  0.00  0.00    -0.066 N 
HETATM   10  H           1     -19.956  -3.968  -8.892  0.00  0.00     0.275 HD
HETATM   11  H           1     -19.802  -3.248  -7.353  0.00  0.00     0.275 HD
HETATM   12  H           1     -18.743  -4.504  -7.818  0.00  0.00     0.275 HD
ENDBRANCH   5   9
ENDBRANCH   2   5
BRANCH   1  13
HETATM   13  C           1     -23.873  -3.891  -9.000  0.00  0.00     0.235 C 
BRANCH  13  14
HETATM   14  C           1     -24.118  -3.694 -10.476  0.00  0.00     0.191 C 
HETATM   15  O           1     -23.253  -4.047 -11.306  0.00  0.00    -0.647 OA
HETATM   16  O           1     -25.187  -3.177 -10.868  0.00  0.00    -0.647 OA
ENDBRANCH  13  14
ENDBRANCH   1  13
TORSDOF 6
ENDMDL
MODEL 5
REMARK VINA RESULT:      -4.5      3.642      5.640
REMARK  6 active torsions:
REMARK  status: ('A' for Active; 'I' for Inactive)
REMARK    1  A    between atoms: C_5  and  C_13 
REMARK    2  A    between atoms: C_5  and  N_6 
REMARK       I    between atoms: N_6  and  C_7 
REMARK    3  A    between atoms: C_7  and  C_8 
REMARK    4  A    between atoms: C_8  and  C_9 
REMARK    5  A    between atoms: C_8  and  N_11 
REMARK    6  A    between atoms: C_9  and  S_10 
ROOT
HETATM    1  N           1     -31.020  -5.798 -17.016  0.00  0.00    -0.349 N 
HETATM    2  C           1     -29.908  -6.047 -16.257  0.00  0.00     0.249 C 
HETATM    3  O           1     -29.760  -5.482 -15.201  0.00  0.00    -0.271 OA
HETATM    4  H           1     -31.145  -6.272 -17.902  0.00  0.00     0.163 HD
ENDROOT
BRANCH   2   5
HETATM    5  C           1     -28.869  -7.027 -16.742  0.00  0.00     0.283 C 
BRANCH   5   6
HETATM    6  C           1     -27.699  -6.266 -17.352  0.00  0.00     0.113 C 
BRANCH   6   7
HETATM    7  S           1     -26.241  -6.438 -16.284  0.00  0.00    -0.180 SA
HETATM    8  H           1     -26.726  -7.454 -15.547  0.00  0.00     0.101 HD
ENDBRANCH   6   7
ENDBRANCH   5   6
BRANCH   5   9
HETATM    9  N           1     -29.475  -7.927 -17.778  0.00  0.00    -0.066 N 
HETATM   10  H           1     -30.465  -7.641 -17.953  0.00  0.00     0.275 HD
HETATM   11  H           1     -28.929  -7.851 -18.666  0.00  0.00     0.275 HD
HETATM   12  H           1     -29.453  -8.914 -17.436  0.00  0.00     0.275 HD
ENDBRANCH   5   9
ENDBRANCH   2   5
BRANCH   1  13
HETATM   13  C           1     -32.020  -4.857 -16.551  0.00  0.00     0.235 C 
BRANCH  13  14
HETATM   14  C           1     -31.981  -3.615 -17.408  0.00  0.00     0.191 C 
HETATM   15  O           1     -33.031  -2.974 -17.627  0.00  0.00    -0.647 OA
HETATM   16  O           1     -30.899  -3.229 -17.899  0.00  0.00    -0.647 OA
ENDBRANCH  13  14
ENDBRANCH   1  13
TORSDOF 6
ENDMDL
MODEL 6
REMARK VINA RESULT:      -4.3      4.000      4.906
REMARK  6 active torsions:
REMARK  status: ('A' for Active; 'I' for Inactive)
REMARK    1  A    between atoms: C_5  and  C_13 
REMARK    2  A    between atoms: C_5  and  N_6 
REMARK       I    between atoms: N_6  and  C_7 
REMARK    3  A    between atoms: C_7  and  C_8 
REMARK    4  A    between atoms: C_8  and  C_9 
REMARK    5  A    between atoms: C_8  and  N_11 
REMARK    6  A    between atoms: C_9  and  S_10 
ROOT
HETATM    1  N           1     -26.374  -6.473 -18.186  0.00  0.00    -0.349 N 
HETATM    2  C           1     -25.237  -6.732 -18.903  0.00  0.00     0.249 C 
HETATM    3  O           1     -24.154  -6.509 -18.420  0.00  0.00    -0.271 OA
HETATM    4  H           1     -27.282  -6.660 -18.591  0.00  0.00     0.163 HD
ENDROOT
BRANCH   2   5
HETATM    5  C           1     -25.339  -7.297 -20.299  0.00  0.00     0.283 C 
BRANCH   5   6
HETATM    6  C           1     -24.078  -8.086 -20.621  0.00  0.00     0.113 C 
BRANCH   6   7
HETATM    7  S           1     -23.716  -7.952 -22.395  0.00  0.00    -0.180 SA
HETATM    8  H           1     -22.970  -9.069 -22.472  0.00  0.00     0.101 HD
ENDBRANCH   6   7
ENDBRANCH   5   6
BRANCH   5   9
HETATM    9  N           1     -25.490  -6.173 -21.282  0.00  0.00    -0.066 N 
HETATM   10  H           1     -25.089  -5.297 -20.876  0.00  0.00     0.275 HD
HETATM   11  H           1     -24.983  -6.413 -22.163  0.00  0.00     0.275 HD
HETATM   12  H           1     -26.504  -6.027 -21.490  0.00  0.00     0.275 HD
ENDBRANCH   5   9
ENDBRANCH   2   5
BRANCH   1  13
HETATM   13  C           1     -26.277  -5.931 -16.845  0.00  0.00     0.235 C 
BRANCH  13  14
HETATM   14  C           1     -26.305  -7.058 -15.841  0.00  0.00     0.191 C 
HETATM   15  O           1     -25.235  -7.567 -15.443  0.00  0.00    -0.647 OA
HETATM   16  O           1     -27.398  -7.481 -15.408  0.00  0.00    -0.647 OA
ENDBRANCH  13  14
ENDBRANCH   1  13
TORSDOF 6
ENDMDL
MODEL 7
REMARK VINA RESULT:      -4.3      3.972      5.323
REMARK  6 active torsions:
REMARK  status: ('A' for Active; 'I' for Inactive)
REMARK    1  A    between atoms: C_5  and  C_13 
REMARK    2  A    between atoms: C_5  and  N_6 
REMARK       I    between atoms: N_6  and  C_7 
REMARK    3  A    between atoms: C_7  and  C_8 
REMARK    4  A    between atoms: C_8  and  C_9 
REMARK    5  A    between atoms: C_8  and  N_11 
REMARK    6  A    between atoms: C_9  and  S_10 
ROOT
HETATM    1  N           1     -26.731  -6.519 -18.360  0.00  0.00    -0.349 N 
HETATM    2  C           1     -26.338  -6.482 -19.670  0.00  0.00     0.249 C 
HETATM    3  O           1     -27.090  -6.057 -20.514  0.00  0.00    -0.271 OA
HETATM    4  H           1     -26.101  -6.875 -17.652  0.00  0.00     0.163 HD
ENDROOT
BRANCH   2   5
HETATM    5  C           1     -24.966  -6.972 -20.060  0.00  0.00     0.283 C 
BRANCH   5   6
HETATM    6  C           1     -25.096  -8.063 -21.115  0.00  0.00     0.113 C 
BRANCH   6   7
HETATM    7  S           1     -23.890  -7.771 -22.440  0.00  0.00    -0.180 SA
HETATM    8  H           1     -24.752  -7.951 -23.457  0.00  0.00     0.101 HD
ENDBRANCH   6   7
ENDBRANCH   5   6
BRANCH   5   9
HETATM    9  N           1     -24.271  -7.528 -18.851  0.00  0.00    -0.066 N 
HETATM   10  H           1     -23.406  -8.034 -19.148  0.00  0.00     0.275 HD
HETATM   11  H           1     -24.013  -6.746 -18.209  0.00  0.00     0.275 HD
HETATM   12  H           1     -24.910  -8.191 -18.358  0.00  0.00     0.275 HD
ENDBRANCH   5   9
ENDBRANCH   2   5
BRANCH   1  13
HETATM   13  C           1     -28.049  -6.048 -17.984  0.00  0.00     0.235 C 
BRANCH  13  14
HETATM   14  C           1     -27.918  -4.897 -17.016  0.00  0.00     0.191 C 
HETATM   15  O           1     -28.466  -3.803 -17.268  0.00  0.00    -0.647 OA
HETATM   16  O           1     -27.260  -5.040 -15.963  0.00  0.00    -0.647 OA
ENDBRANCH  13  14
ENDBRANCH   1  13
TORSDOF 6
ENDMDL
MODEL 8
REMARK VINA RESULT:      -4.3     19.014     20.270
REMARK  6 active torsions:
REMARK  status: ('A' for Active; 'I' for Inactive)
REMARK    1  A    between atoms: C_5  and  C_13 
REMARK    2  A    between atoms: C_5  and  N_6 
REMARK       I    between atoms: N_6  and  C_7 
REMARK    3  A    between atoms: C_7  and  C_8 
REMARK    4  A    between atoms: C_8  and  C_9 
REMARK    5  A    between atoms: C_8  and  N_11 
REMARK    6  A    between atoms: C_9  and  S_10 
ROOT
HETATM    1  N           1     -12.208   5.153 -20.869  0.00  0.00    -0.349 N 
HETATM    2  C           1     -11.573   5.286 -19.664  0.00  0.00     0.249 C 
HETATM    3  O           1     -11.976   4.681 -18.700  0.00  0.00    -0.271 OA
HETATM    4  H           1     -11.871   5.660 -21.677  0.00  0.00     0.163 HD
ENDROOT
BRANCH   2   5
HETATM    5  C           1     -10.370   6.187 -19.540  0.00  0.00     0.283 C 
BRANCH   5   6
HETATM    6  C           1      -9.854   6.540 -20.929  0.00  0.00     0.113 C 
BRANCH   6   7
HETATM    7  S           1      -9.497   8.318 -21.009  0.00  0.00    -0.180 SA
HETATM    8  H           1     -10.505   8.701 -20.205  0.00  0.00     0.101 HD
ENDBRANCH   6   7
ENDBRANCH   5   6
BRANCH   5   9
HETATM    9  N           1      -9.292   5.480 -18.772  0.00  0.00    -0.066 N 
HETATM   10  H           1      -8.665   4.973 -19.437  0.00  0.00     0.275 HD
HETATM   11  H           1      -8.734   6.180 -18.233  0.00  0.00     0.275 HD
HETATM   12  H           1      -9.727   4.796 -18.113  0.00  0.00     0.275 HD
ENDBRANCH   5   9
ENDBRANCH   2   5
BRANCH   1  13
HETATM   13  C           1     -13.364   4.287 -20.988  0.00  0.00     0.235 C 
BRANCH  13  14
HETATM   14  C           1     -14.625   5.104 -20.848  0.00  0.00     0.191 C 
HETATM   15  O           1     -15.171   5.590 -21.862  0.00  0.00    -0.647 OA
HETATM   16  O           1     -15.122   5.296 -19.717  0.00  0.00    -0.647 OA
ENDBRANCH  13  14
ENDBRANCH   1  13
TORSDOF 6
ENDMDL
MODEL 9
REMARK VINA RESULT:      -4.3      9.203     10.379
REMARK  6 active torsions:
REMARK  status: ('A' for Active; 'I' for Inactive)
REMARK    1  A    between atoms: C_5  and  C_13 
REMARK    2  A    between atoms: C_5  and  N_6 
REMARK       I    between atoms: N_6  and  C_7 
REMARK    3  A    between atoms: C_7  and  C_8 
REMARK    4  A    between atoms: C_8  and  C_9 
REMARK    5  A    between atoms: C_8  and  N_11 
REMARK    6  A    between atoms: C_9  and  S_10 
ROOT
HETATM    1  N           1     -21.486  -3.890  -8.078  0.00  0.00    -0.349 N 
HETATM    2  C           1     -21.073  -4.135  -9.359  0.00  0.00     0.249 C 
HETATM    3  O           1     -20.074  -4.784  -9.558  0.00  0.00    -0.271 OA
HETATM    4  H           1     -22.323  -3.346  -7.911  0.00  0.00     0.163 HD
ENDROOT
BRANCH   2   5
HETATM    5  C           1     -21.866  -3.595 -10.524  0.00  0.00     0.283 C 
BRANCH   5   6
HETATM    6  C           1     -23.124  -4.432 -10.714  0.00  0.00     0.113 C 
BRANCH   6   7
HETATM    7  S           1     -24.550  -3.547 -10.024  0.00  0.00    -0.180 SA
HETATM    8  H           1     -24.890  -4.499  -9.136  0.00  0.00     0.101 HD
ENDBRANCH   6   7
ENDBRANCH   5   6
BRANCH   5   9
HETATM    9  N           1     -21.031  -3.659 -11.769  0.00  0.00    -0.066 N 
HETATM   10  H           1     -20.659  -2.706 -11.989  0.00  0.00     0.275 HD
HETATM   11  H           1     -20.234  -4.317 -11.620  0.00  0.00     0.275 HD
HETATM   12  H           1     -21.619  -3.994 -12.565  0.00  0.00     0.275 HD
ENDBRANCH   5   9
ENDBRANCH   2   5
BRANCH   1  13
HETATM   13  C           1     -20.725  -4.408  -6.958  0.00  0.00     0.235 C 
BRANCH  13  14
HETATM   14  C           1     -21.371  -5.674  -6.451  0.00  0.00     0.191 C 
HETATM   15  O           1     -20.943  -6.787  -6.824  0.00  0.00    -0.647 OA
HETATM   16  O           1     -22.335  -5.609  -5.659  0.00  0.00    -0.647 OA
ENDBRANCH  13  14
ENDBRANCH   1  13
TORSDOF 6
ENDMDL
