MODEL 1
REMARK VINA RESULT:      -7.2      0.000      0.000
REMARK  10 active torsions:
REMARK  status: ('A' for Active; 'I' for Inactive)
REMARK    1  A    between atoms: C_5  and  C_20 
REMARK    2  A    between atoms: S_7  and  C_23 
REMARK    3  A    between atoms: C_8  and  C_9 
REMARK    4  A    between atoms: C_9  and  C_16 
REMARK    5  A    between atoms: C_12  and  O_25 
REMARK    6  A    between atoms: N_14  and  C_16 
REMARK    7  A    between atoms: C_16  and  C_21 
REMARK    8  A    between atoms: C_20  and  C_24 
REMARK    9  A    between atoms: C_20  and  N_22 
REMARK       I    between atoms: C_21  and  N_22 
REMARK   10  A    between atoms: C_23  and  C_24 
ROOT
HETATM    1  C           1     -22.162  -5.204  -6.611  0.00  0.00     0.278 C 
ENDROOT
BRANCH   1   2
HETATM    2  C           1     -21.523  -3.923  -7.133  0.00  0.00     0.081 C 
BRANCH   2   3
HETATM    3  C           1     -21.562  -3.919  -8.629  0.00  0.00    -0.056 A 
HETATM    4  C           1     -22.758  -3.649  -9.294  0.00  0.00     0.010 A 
HETATM    5  C           1     -22.794  -3.645 -10.689  0.00  0.00     0.037 A 
HETATM    6  C           1     -21.636  -3.912 -11.418  0.00  0.00     0.065 A 
HETATM    7  C           1     -20.440  -4.182 -10.752  0.00  0.00     0.037 A 
HETATM    8  C           1     -20.404  -4.186  -9.358  0.00  0.00     0.010 A 
BRANCH   6   9
HETATM    9  O           1     -21.671  -3.908 -12.772  0.00  0.00    -0.361 OA
HETATM   10  H           1     -20.757  -3.953 -13.097  0.00  0.00     0.217 HD
ENDBRANCH   6   9
ENDBRANCH   2   3
ENDBRANCH   1   2
BRANCH   1  11
HETATM   11  N           1     -23.594  -4.937  -6.253  0.00  0.00    -0.066 N 
HETATM   12  H           1     -23.639  -4.154  -5.562  0.00  0.00     0.275 HD
HETATM   13  H           1     -24.013  -5.797  -5.833  0.00  0.00     0.275 HD
HETATM   14  H           1     -24.126  -4.674  -7.112  0.00  0.00     0.275 HD
ENDBRANCH   1  11
BRANCH   1  15
HETATM   15  C           1     -21.417  -5.677  -5.387  0.00  0.00     0.249 C 
HETATM   16  N           1     -22.085  -6.340  -4.394  0.00  0.00    -0.345 N 
HETATM   17  H           1     -23.078  -6.515  -4.479  0.00  0.00     0.163 HD
HETATM   18  O           1     -20.232  -5.469  -5.284  0.00  0.00    -0.271 OA
BRANCH  16  19
HETATM   19  C           1     -21.369  -6.795  -3.217  0.00  0.00     0.186 C 
BRANCH  19  20
HETATM   20  C           1     -20.974  -8.240  -3.395  0.00  0.00     0.196 C 
HETATM   21  O           1     -21.840  -9.092  -3.689  0.00  0.00    -0.646 OA
HETATM   22  O           1     -19.781  -8.585  -3.249  0.00  0.00    -0.646 OA
ENDBRANCH  19  20
BRANCH  19  23
HETATM   23  C           1     -22.266  -6.661  -1.993  0.00  0.00     0.046 C 
BRANCH  23  24
HETATM   24  C           1     -21.639  -7.402  -0.819  0.00  0.00     0.076 C 
BRANCH  24  25
HETATM   25  S           1     -22.948  -8.033   0.268  0.00  0.00    -0.173 SA
HETATM   26  C           1     -22.939  -9.730  -0.375  0.00  0.00     0.089 C 
ENDBRANCH  24  25
ENDBRANCH  23  24
ENDBRANCH  19  23
ENDBRANCH  16  19
ENDBRANCH   1  15
TORSDOF 10
ENDMDL
MODEL 2
REMARK VINA RESULT:      -7.0      1.130      1.630
REMARK  10 active torsions:
REMARK  status: ('A' for Active; 'I' for Inactive)
REMARK    1  A    between atoms: C_5  and  C_20 
REMARK    2  A    between atoms: S_7  and  C_23 
REMARK    3  A    between atoms: C_8  and  C_9 
REMARK    4  A    between atoms: C_9  and  C_16 
REMARK    5  A    between atoms: C_12  and  O_25 
REMARK    6  A    between atoms: N_14  and  C_16 
REMARK    7  A    between atoms: C_16  and  C_21 
REMARK    8  A    between atoms: C_20  and  C_24 
REMARK    9  A    between atoms: C_20  and  N_22 
REMARK       I    between atoms: C_21  and  N_22 
REMARK   10  A    between atoms: C_23  and  C_24 
ROOT
HETATM    1  C           1     -22.150  -5.301  -6.686  0.00  0.00     0.278 C 
ENDROOT
BRANCH   1   2
HETATM    2  C           1     -21.543  -3.993  -7.177  0.00  0.00     0.081 C 
BRANCH   2   3
HETATM    3  C           1     -21.580  -3.956  -8.673  0.00  0.00    -0.056 A 
HETATM    4  C           1     -20.421  -4.213  -9.406  0.00  0.00     0.010 A 
HETATM    5  C           1     -20.456  -4.177 -10.800  0.00  0.00     0.037 A 
HETATM    6  C           1     -21.649  -3.884 -11.461  0.00  0.00     0.065 A 
HETATM    7  C           1     -22.808  -3.627 -10.728  0.00  0.00     0.037 A 
HETATM    8  C           1     -22.773  -3.662  -9.334  0.00  0.00     0.010 A 
BRANCH   6   9
HETATM    9  O           1     -21.683  -3.850 -12.815  0.00  0.00    -0.361 OA
HETATM   10  H           1     -21.305  -4.681 -13.146  0.00  0.00     0.217 HD
ENDBRANCH   6   9
ENDBRANCH   2   3
ENDBRANCH   1   2
BRANCH   1  11
HETATM   11  N           1     -23.536  -5.046  -6.171  0.00  0.00    -0.066 N 
HETATM   12  H           1     -23.895  -5.906  -5.700  0.00  0.00     0.275 HD
HETATM   13  H           1     -24.162  -4.797  -6.970  0.00  0.00     0.275 HD
HETATM   14  H           1     -23.514  -4.257  -5.487  0.00  0.00     0.275 HD
ENDBRANCH   1  11
BRANCH   1  15
HETATM   15  C           1     -21.298  -5.867  -5.577  0.00  0.00     0.249 C 
HETATM   16  N           1     -21.333  -7.207  -5.303  0.00  0.00    -0.345 N 
HETATM   17  H           1     -21.930  -7.820  -5.844  0.00  0.00     0.163 HD
HETATM   18  O           1     -20.586  -5.137  -4.930  0.00  0.00    -0.271 OA
BRANCH  16  19
HETATM   19  C           1     -20.515  -7.752  -4.237  0.00  0.00     0.186 C 
BRANCH  19  20
HETATM   20  C           1     -19.684  -8.892  -4.772  0.00  0.00     0.196 C 
HETATM   21  O           1     -20.134  -9.618  -5.685  0.00  0.00    -0.646 OA
HETATM   22  O           1     -18.547  -9.111  -4.302  0.00  0.00    -0.646 OA
ENDBRANCH  19  20
BRANCH  19  23
HETATM   23  C           1     -21.413  -8.261  -3.116  0.00  0.00     0.046 C 
BRANCH  23  24
HETATM   24  C           1     -20.892  -7.755  -1.777  0.00  0.00     0.076 C 
BRANCH  24  25
HETATM   25  S           1     -22.285  -7.203  -0.754  0.00  0.00    -0.173 SA
HETATM   26  C           1     -21.855  -8.183   0.712  0.00  0.00     0.089 C 
ENDBRANCH  24  25
ENDBRANCH  23  24
ENDBRANCH  19  23
ENDBRANCH  16  19
ENDBRANCH   1  15
TORSDOF 10
ENDMDL
MODEL 3
REMARK VINA RESULT:      -6.7      1.506      1.808
REMARK  10 active torsions:
REMARK  status: ('A' for Active; 'I' for Inactive)
REMARK    1  A    between atoms: C_5  and  C_20 
REMARK    2  A    between atoms: S_7  and  C_23 
REMARK    3  A    between atoms: C_8  and  C_9 
REMARK    4  A    between atoms: C_9  and  C_16 
REMARK    5  A    between atoms: C_12  and  O_25 
REMARK    6  A    between atoms: N_14  and  C_16 
REMARK    7  A    between atoms: C_16  and  C_21 
REMARK    8  A    between atoms: C_20  and  C_24 
REMARK    9  A    between atoms: C_20  and  N_22 
REMARK       I    between atoms: C_21  and  N_22 
REMARK   10  A    between atoms: C_23  and  C_24 
ROOT
HETATM    1  C           1     -21.651  -5.790  -6.792  0.00  0.00     0.278 C 
ENDROOT
BRANCH   1   2
HETATM    2  C           1     -20.981  -4.497  -7.238  0.00  0.00     0.081 C 
BRANCH   2   3
HETATM    3  C           1     -21.193  -4.306  -8.707  0.00  0.00    -0.056 A 
HETATM    4  C           1     -22.458  -3.971  -9.192  0.00  0.00     0.010 A 
HETATM    5  C           1     -22.654  -3.793 -10.561  0.00  0.00     0.037 A 
HETATM    6  C           1     -21.588  -3.951 -11.446  0.00  0.00     0.065 A 
HETATM    7  C           1     -20.323  -4.286 -10.961  0.00  0.00     0.037 A 
HETATM    8  C           1     -20.126  -4.463  -9.591  0.00  0.00     0.010 A 
BRANCH   6   9
HETATM    9  O           1     -21.779  -3.778 -12.776  0.00  0.00    -0.361 OA
HETATM   10  H           1     -21.020  -4.166 -13.242  0.00  0.00     0.217 HD
ENDBRANCH   6   9
ENDBRANCH   2   3
ENDBRANCH   1   2
BRANCH   1  11
HETATM   11  N           1     -22.678  -5.485  -5.742  0.00  0.00    -0.066 N 
HETATM   12  H           1     -22.255  -4.869  -5.011  0.00  0.00     0.275 HD
HETATM   13  H           1     -23.001  -6.376  -5.302  0.00  0.00     0.275 HD
HETATM   14  H           1     -23.491  -4.997  -6.181  0.00  0.00     0.275 HD
ENDBRANCH   1  11
BRANCH   1  15
HETATM   15  C           1     -20.612  -6.724  -6.222  0.00  0.00     0.249 C 
HETATM   16  N           1     -20.951  -7.599  -5.225  0.00  0.00    -0.345 N 
HETATM   17  H           1     -21.898  -7.620  -4.870  0.00  0.00     0.163 HD
HETATM   18  O           1     -19.481  -6.700  -6.645  0.00  0.00    -0.271 OA
BRANCH  16  19
HETATM   19  C           1     -19.953  -8.497  -4.677  0.00  0.00     0.186 C 
BRANCH  19  20
HETATM   20  C           1     -20.230  -9.904  -5.146  0.00  0.00     0.196 C 
HETATM   21  O           1     -21.086 -10.109  -6.034  0.00  0.00    -0.646 OA
HETATM   22  O           1     -19.604 -10.864  -4.647  0.00  0.00    -0.646 OA
ENDBRANCH  19  20
BRANCH  19  23
HETATM   23  C           1     -20.007  -8.450  -3.155  0.00  0.00     0.046 C 
BRANCH  23  24
HETATM   24  C           1     -21.459  -8.387  -2.700  0.00  0.00     0.076 C 
BRANCH  24  25
HETATM   25  S           1     -21.784  -6.777  -1.928  0.00  0.00    -0.173 SA
HETATM   26  C           1     -22.492  -7.432  -0.392  0.00  0.00     0.089 C 
ENDBRANCH  24  25
ENDBRANCH  23  24
ENDBRANCH  19  23
ENDBRANCH  16  19
ENDBRANCH   1  15
TORSDOF 10
ENDMDL
MODEL 4
REMARK VINA RESULT:      -6.7     13.591     15.733
REMARK  10 active torsions:
REMARK  status: ('A' for Active; 'I' for Inactive)
REMARK    1  A    between atoms: C_5  and  C_20 
REMARK    2  A    between atoms: S_7  and  C_23 
REMARK    3  A    between atoms: C_8  and  C_9 
REMARK    4  A    between atoms: C_9  and  C_16 
REMARK    5  A    between atoms: C_12  and  O_25 
REMARK    6  A    between atoms: N_14  and  C_16 
REMARK    7  A    between atoms: C_16  and  C_21 
REMARK    8  A    between atoms: C_20  and  C_24 
REMARK    9  A    between atoms: C_20  and  N_22 
REMARK       I    between atoms: C_21  and  N_22 
REMARK   10  A    between atoms: C_23  and  C_24 
ROOT
HETATM    1  C           1     -36.579  -0.822 -10.939  0.00  0.00     0.278 C 
ENDROOT
BRANCH   1   2
HETATM    2  C           1     -36.069   0.362 -11.750  0.00  0.00     0.081 C 
BRANCH   2   3
HETATM    3  C           1     -36.246   0.082 -13.209  0.00  0.00    -0.056 A 
HETATM    4  C           1     -37.526  -0.099 -13.733  0.00  0.00     0.010 A 
HETATM    5  C           1     -37.691  -0.361 -15.094  0.00  0.00     0.037 A 
HETATM    6  C           1     -36.577  -0.442 -15.929  0.00  0.00     0.065 A 
HETATM    7  C           1     -35.297  -0.260 -15.405  0.00  0.00     0.037 A 
HETATM    8  C           1     -35.132   0.001 -14.044  0.00  0.00     0.010 A 
BRANCH   6   9
HETATM    9  O           1     -36.738  -0.695 -17.250  0.00  0.00    -0.361 OA
HETATM   10  H           1     -36.043  -0.219 -17.734  0.00  0.00     0.217 HD
ENDBRANCH   6   9
ENDBRANCH   2   3
ENDBRANCH   1   2
BRANCH   1  11
HETATM   11  N           1     -37.038  -0.345  -9.593  0.00  0.00    -0.066 N 
HETATM   12  H           1     -36.589  -0.923  -8.847  0.00  0.00     0.275 HD
HETATM   13  H           1     -38.077  -0.437  -9.527  0.00  0.00     0.275 HD
HETATM   14  H           1     -36.768   0.657  -9.467  0.00  0.00     0.275 HD
ENDBRANCH   1  11
BRANCH   1  15
HETATM   15  C           1     -35.469  -1.828 -10.763  0.00  0.00     0.249 C 
HETATM   16  N           1     -35.521  -3.026 -11.424  0.00  0.00    -0.345 N 
HETATM   17  H           1     -36.302  -3.237 -12.030  0.00  0.00     0.163 HD
HETATM   18  O           1     -34.535  -1.578 -10.039  0.00  0.00    -0.271 OA
BRANCH  16  19
HETATM   19  C           1     -34.453  -3.994 -11.255  0.00  0.00     0.186 C 
BRANCH  19  20
HETATM   20  C           1     -33.470  -3.862 -12.392  0.00  0.00     0.196 C 
HETATM   21  O           1     -33.876  -3.572 -13.539  0.00  0.00    -0.646 OA
HETATM   22  O           1     -32.250  -4.043 -12.188  0.00  0.00    -0.646 OA
ENDBRANCH  19  20
BRANCH  19  23
HETATM   23  C           1     -35.039  -5.401 -11.252  0.00  0.00     0.046 C 
BRANCH  23  24
HETATM   24  C           1     -34.051  -6.362 -10.605  0.00  0.00     0.076 C 
BRANCH  24  25
HETATM   25  S           1     -34.958  -7.623  -9.667  0.00  0.00    -0.173 SA
HETATM   26  C           1     -33.756  -8.959  -9.917  0.00  0.00     0.089 C 
ENDBRANCH  24  25
ENDBRANCH  23  24
ENDBRANCH  19  23
ENDBRANCH  16  19
ENDBRANCH   1  15
TORSDOF 10
ENDMDL
MODEL 5
REMARK VINA RESULT:      -6.6      1.941      2.501
REMARK  10 active torsions:
REMARK  status: ('A' for Active; 'I' for Inactive)
REMARK    1  A    between atoms: C_5  and  C_20 
REMARK    2  A    between atoms: S_7  and  C_23 
REMARK    3  A    between atoms: C_8  and  C_9 
REMARK    4  A    between atoms: C_9  and  C_16 
REMARK    5  A    between atoms: C_12  and  O_25 
REMARK    6  A    between atoms: N_14  and  C_16 
REMARK    7  A    between atoms: C_16  and  C_21 
REMARK    8  A    between atoms: C_20  and  C_24 
REMARK    9  A    between atoms: C_20  and  N_22 
REMARK       I    between atoms: C_21  and  N_22 
REMARK   10  A    between atoms: C_23  and  C_24 
ROOT
HETATM    1  C           1     -21.195  -5.101  -6.116  0.00  0.00     0.278 C 
ENDROOT
BRANCH   1   2
HETATM    2  C           1     -20.794  -5.888  -7.357  0.00  0.00     0.081 C 
BRANCH   2   3
HETATM    3  C           1     -21.039  -5.056  -8.577  0.00  0.00    -0.056 A 
HETATM    4  C           1     -20.032  -4.903  -9.531  0.00  0.00     0.010 A 
HETATM    5  C           1     -20.261  -4.127 -10.667  0.00  0.00     0.037 A 
HETATM    6  C           1     -21.495  -3.503 -10.850  0.00  0.00     0.065 A 
HETATM    7  C           1     -22.502  -3.656  -9.896  0.00  0.00     0.037 A 
HETATM    8  C           1     -22.273  -4.432  -8.760  0.00  0.00     0.010 A 
BRANCH   6   9
HETATM    9  O           1     -21.716  -2.750 -11.954  0.00  0.00    -0.361 OA
HETATM   10  H           1     -22.369  -2.068 -11.726  0.00  0.00     0.217 HD
ENDBRANCH   6   9
ENDBRANCH   2   3
ENDBRANCH   1   2
BRANCH   1  11
HETATM   11  N           1     -19.979  -4.460  -5.517  0.00  0.00    -0.066 N 
HETATM   12  H           1     -19.294  -5.200  -5.244  0.00  0.00     0.275 HD
HETATM   13  H           1     -20.256  -3.912  -4.671  0.00  0.00     0.275 HD
HETATM   14  H           1     -19.541  -3.821  -6.218  0.00  0.00     0.275 HD
ENDBRANCH   1  11
BRANCH   1  15
HETATM   15  C           1     -21.820  -6.034  -5.108  0.00  0.00     0.249 C 
HETATM   16  N           1     -21.051  -6.588  -4.121  0.00  0.00    -0.345 N 
HETATM   17  H           1     -20.064  -6.372  -4.065  0.00  0.00     0.163 HD
HETATM   18  O           1     -22.998  -6.293  -5.174  0.00  0.00    -0.271 OA
BRANCH  16  19
HETATM   19  C           1     -21.651  -7.485  -3.152  0.00  0.00     0.186 C 
BRANCH  19  20
HETATM   20  C           1     -21.996  -6.717  -1.900  0.00  0.00     0.196 C 
HETATM   21  O           1     -22.245  -7.329  -0.839  0.00  0.00    -0.646 OA
HETATM   22  O           1     -22.035  -5.467  -1.925  0.00  0.00    -0.646 OA
ENDBRANCH  19  20
BRANCH  19  23
HETATM   23  C           1     -20.666  -8.596  -2.809  0.00  0.00     0.046 C 
BRANCH  23  24
HETATM   24  C           1     -21.157  -9.911  -3.399  0.00  0.00     0.076 C 
BRANCH  24  25
HETATM   25  S           1     -22.217 -10.758  -2.193  0.00  0.00    -0.173 SA
HETATM   26  C           1     -21.042 -10.688  -0.812  0.00  0.00     0.089 C 
ENDBRANCH  24  25
ENDBRANCH  23  24
ENDBRANCH  19  23
ENDBRANCH  16  19
ENDBRANCH   1  15
TORSDOF 10
ENDMDL
MODEL 6
REMARK VINA RESULT:      -6.2     14.140     16.365
REMARK  10 active torsions:
REMARK  status: ('A' for Active; 'I' for Inactive)
REMARK    1  A    between atoms: C_5  and  C_20 
REMARK    2  A    between atoms: S_7  and  C_23 
REMARK    3  A    between atoms: C_8  and  C_9 
REMARK    4  A    between atoms: C_9  and  C_16 
REMARK    5  A    between atoms: C_12  and  O_25 
REMARK    6  A    between atoms: N_14  and  C_16 
REMARK    7  A    between atoms: C_16  and  C_21 
REMARK    8  A    between atoms: C_20  and  C_24 
REMARK    9  A    between atoms: C_20  and  N_22 
REMARK       I    between atoms: C_21  and  N_22 
REMARK   10  A    between atoms: C_23  and  C_24 
ROOT
HETATM    1  C           1     -36.250  -0.307 -11.162  0.00  0.00     0.278 C 
ENDROOT
BRANCH   1   2
HETATM    2  C           1     -37.555  -0.606 -10.434  0.00  0.00     0.081 C 
BRANCH   2   3
HETATM    3  C           1     -37.494  -0.046  -9.048  0.00  0.00    -0.056 A 
HETATM    4  C           1     -37.965  -0.798  -7.971  0.00  0.00     0.010 A 
HETATM    5  C           1     -37.908  -0.275  -6.679  0.00  0.00     0.037 A 
HETATM    6  C           1     -37.382   0.999  -6.464  0.00  0.00     0.065 A 
HETATM    7  C           1     -36.911   1.751  -7.541  0.00  0.00     0.037 A 
HETATM    8  C           1     -36.968   1.228  -8.833  0.00  0.00     0.010 A 
BRANCH   6   9
HETATM    9  O           1     -37.327   1.507  -5.209  0.00  0.00    -0.361 OA
HETATM   10  H           1     -37.985   2.218  -5.143  0.00  0.00     0.217 HD
ENDBRANCH   6   9
ENDBRANCH   2   3
ENDBRANCH   1   2
BRANCH   1  11
HETATM   11  N           1     -36.535  -0.048 -12.611  0.00  0.00    -0.066 N 
HETATM   12  H           1     -36.546  -0.954 -13.131  0.00  0.00     0.275 HD
HETATM   13  H           1     -35.792   0.571 -13.006  0.00  0.00     0.275 HD
HETATM   14  H           1     -37.465   0.419 -12.706  0.00  0.00     0.275 HD
ENDBRANCH   1  11
BRANCH   1  15
HETATM   15  C           1     -35.320  -1.488 -11.035  0.00  0.00     0.249 C 
HETATM   16  N           1     -35.469  -2.568 -11.863  0.00  0.00    -0.345 N 
HETATM   17  H           1     -36.202  -2.575 -12.561  0.00  0.00     0.163 HD
HETATM   18  O           1     -34.445  -1.482 -10.202  0.00  0.00    -0.271 OA
BRANCH  16  19
HETATM   19  C           1     -34.576  -3.704 -11.742  0.00  0.00     0.186 C 
BRANCH  19  20
HETATM   20  C           1     -34.352  -4.316 -13.102  0.00  0.00     0.196 C 
HETATM   21  O           1     -33.385  -3.946 -13.803  0.00  0.00    -0.646 OA
HETATM   22  O           1     -35.135  -5.192 -13.530  0.00  0.00    -0.646 OA
ENDBRANCH  19  20
BRANCH  19  23
HETATM   23  C           1     -35.196  -4.742 -10.814  0.00  0.00     0.046 C 
BRANCH  23  24
HETATM   24  C           1     -34.170  -5.823 -10.503  0.00  0.00     0.076 C 
BRANCH  24  25
HETATM   25  S           1     -34.997  -7.236  -9.721  0.00  0.00    -0.173 SA
HETATM   26  C           1     -33.729  -8.465 -10.137  0.00  0.00     0.089 C 
ENDBRANCH  24  25
ENDBRANCH  23  24
ENDBRANCH  19  23
ENDBRANCH  16  19
ENDBRANCH   1  15
TORSDOF 10
ENDMDL
MODEL 7
REMARK VINA RESULT:      -6.1     14.027     17.217
REMARK  10 active torsions:
REMARK  status: ('A' for Active; 'I' for Inactive)
REMARK    1  A    between atoms: C_5  and  C_20 
REMARK    2  A    between atoms: S_7  and  C_23 
REMARK    3  A    between atoms: C_8  and  C_9 
REMARK    4  A    between atoms: C_9  and  C_16 
REMARK    5  A    between atoms: C_12  and  O_25 
REMARK    6  A    between atoms: N_14  and  C_16 
REMARK    7  A    between atoms: C_16  and  C_21 
REMARK    8  A    between atoms: C_20  and  C_24 
REMARK    9  A    between atoms: C_20  and  N_22 
REMARK       I    between atoms: C_21  and  N_22 
REMARK   10  A    between atoms: C_23  and  C_24 
ROOT
HETATM    1  C           1     -35.097  -0.620 -11.920  0.00  0.00     0.278 C 
ENDROOT
BRANCH   1   2
HETATM    2  C           1     -35.454  -1.551 -10.769  0.00  0.00     0.081 C 
BRANCH   2   3
HETATM    3  C           1     -34.733  -2.852 -10.936  0.00  0.00    -0.056 A 
HETATM    4  C           1     -35.412  -4.055 -10.745  0.00  0.00     0.010 A 
HETATM    5  C           1     -34.739  -5.267 -10.901  0.00  0.00     0.037 A 
HETATM    6  C           1     -33.388  -5.276 -11.247  0.00  0.00     0.065 A 
HETATM    7  C           1     -32.708  -4.073 -11.437  0.00  0.00     0.037 A 
HETATM    8  C           1     -33.381  -2.861 -11.281  0.00  0.00     0.010 A 
BRANCH   6   9
HETATM    9  O           1     -32.735  -6.454 -11.398  0.00  0.00    -0.361 OA
HETATM   10  H           1     -31.825  -6.259 -11.678  0.00  0.00     0.217 HD
ENDBRANCH   6   9
ENDBRANCH   2   3
ENDBRANCH   1   2
BRANCH   1  11
HETATM   11  N           1     -35.627   0.754 -11.634  0.00  0.00    -0.066 N 
HETATM   12  H           1     -35.919   0.812 -10.633  0.00  0.00     0.275 HD
HETATM   13  H           1     -36.450   0.944 -12.249  0.00  0.00     0.275 HD
HETATM   14  H           1     -34.882   1.461 -11.822  0.00  0.00     0.275 HD
ENDBRANCH   1  11
BRANCH   1  15
HETATM   15  C           1     -35.711  -1.140 -13.197  0.00  0.00     0.249 C 
HETATM   16  N           1     -34.912  -1.444 -14.266  0.00  0.00    -0.345 N 
HETATM   17  H           1     -33.909  -1.322 -14.200  0.00  0.00     0.163 HD
HETATM   18  O           1     -36.907  -1.286 -13.276  0.00  0.00    -0.271 OA
BRANCH  16  19
HETATM   19  C           1     -35.501  -1.944 -15.493  0.00  0.00     0.186 C 
BRANCH  19  20
HETATM   20  C           1     -34.525  -2.866 -16.181  0.00  0.00     0.196 C 
HETATM   21  O           1     -34.288  -3.996 -15.701  0.00  0.00    -0.646 OA
HETATM   22  O           1     -33.953  -2.500 -17.231  0.00  0.00    -0.646 OA
ENDBRANCH  19  20
BRANCH  19  23
HETATM   23  C           1     -35.828  -0.774 -16.413  0.00  0.00     0.046 C 
BRANCH  23  24
HETATM   24  C           1     -37.339  -0.636 -16.542  0.00  0.00     0.076 C 
BRANCH  24  25
HETATM   25  S           1     -37.876   0.914 -15.766  0.00  0.00    -0.173 SA
HETATM   26  C           1     -36.228   1.668 -15.668  0.00  0.00     0.089 C 
ENDBRANCH  24  25
ENDBRANCH  23  24
ENDBRANCH  19  23
ENDBRANCH  16  19
ENDBRANCH   1  15
TORSDOF 10
ENDMDL
MODEL 8
REMARK VINA RESULT:      -6.0      3.166      4.131
REMARK  10 active torsions:
REMARK  status: ('A' for Active; 'I' for Inactive)
REMARK    1  A    between atoms: C_5  and  C_20 
REMARK    2  A    between atoms: S_7  and  C_23 
REMARK    3  A    between atoms: C_8  and  C_9 
REMARK    4  A    between atoms: C_9  and  C_16 
REMARK    5  A    between atoms: C_12  and  O_25 
REMARK    6  A    between atoms: N_14  and  C_16 
REMARK    7  A    between atoms: C_16  and  C_21 
REMARK    8  A    between atoms: C_20  and  C_24 
REMARK    9  A    between atoms: C_20  and  N_22 
REMARK       I    between atoms: C_21  and  N_22 
REMARK   10  A    between atoms: C_23  and  C_24 
ROOT
HETATM    1  C           1     -21.434  -6.185  -4.985  0.00  0.00     0.278 C 
ENDROOT
BRANCH   1   2
HETATM    2  C           1     -20.453  -5.183  -5.580  0.00  0.00     0.081 C 
BRANCH   2   3
HETATM    3  C           1     -20.919  -4.776  -6.943  0.00  0.00    -0.056 A 
HETATM    4  C           1     -22.257  -4.438  -7.150  0.00  0.00     0.010 A 
HETATM    5  C           1     -22.691  -4.060  -8.421  0.00  0.00     0.037 A 
HETATM    6  C           1     -21.789  -4.020  -9.484  0.00  0.00     0.065 A 
HETATM    7  C           1     -20.451  -4.358  -9.276  0.00  0.00     0.037 A 
HETATM    8  C           1     -20.017  -4.737  -8.006  0.00  0.00     0.010 A 
BRANCH   6   9
HETATM    9  O           1     -22.210  -3.652 -10.718  0.00  0.00    -0.361 OA
HETATM   10  H           1     -22.735  -2.840 -10.626  0.00  0.00     0.217 HD
ENDBRANCH   6   9
ENDBRANCH   2   3
ENDBRANCH   1   2
BRANCH   1  11
HETATM   11  N           1     -21.574  -5.932  -3.513  0.00  0.00    -0.066 N 
HETATM   12  H           1     -22.577  -5.742  -3.287  0.00  0.00     0.275 HD
HETATM   13  H           1     -20.994  -5.106  -3.246  0.00  0.00     0.275 HD
HETATM   14  H           1     -21.251  -6.772  -2.983  0.00  0.00     0.275 HD
ENDBRANCH   1  11
BRANCH   1  15
HETATM   15  C           1     -20.921  -7.586  -5.208  0.00  0.00     0.249 C 
HETATM   16  N           1     -19.987  -8.116  -4.360  0.00  0.00    -0.345 N 
HETATM   17  H           1     -19.641  -7.569  -3.582  0.00  0.00     0.163 HD
HETATM   18  O           1     -21.333  -8.239  -6.137  0.00  0.00    -0.271 OA
BRANCH  16  19
HETATM   19  C           1     -19.493  -9.463  -4.574  0.00  0.00     0.186 C 
BRANCH  19  20
HETATM   20  C           1     -19.223 -10.117  -3.242  0.00  0.00     0.196 C 
HETATM   21  O           1     -18.603  -9.494  -2.353  0.00  0.00    -0.646 OA
HETATM   22  O           1     -19.619 -11.284  -3.027  0.00  0.00    -0.646 OA
ENDBRANCH  19  20
BRANCH  19  23
HETATM   23  C           1     -18.203  -9.408  -5.383  0.00  0.00     0.046 C 
BRANCH  23  24
HETATM   24  C           1     -18.029 -10.711  -6.152  0.00  0.00     0.076 C 
BRANCH  24  25
HETATM   25  S           1     -16.508 -11.538  -5.608  0.00  0.00    -0.173 SA
HETATM   26  C           1     -15.722 -10.062  -4.902  0.00  0.00     0.089 C 
ENDBRANCH  24  25
ENDBRANCH  23  24
ENDBRANCH  19  23
ENDBRANCH  16  19
ENDBRANCH   1  15
TORSDOF 10
ENDMDL
MODEL 9
REMARK VINA RESULT:      -5.8      6.854      9.050
REMARK  10 active torsions:
REMARK  status: ('A' for Active; 'I' for Inactive)
REMARK    1  A    between atoms: C_5  and  C_20 
REMARK    2  A    between atoms: S_7  and  C_23 
REMARK    3  A    between atoms: C_8  and  C_9 
REMARK    4  A    between atoms: C_9  and  C_16 
REMARK    5  A    between atoms: C_12  and  O_25 
REMARK    6  A    between atoms: N_14  and  C_16 
REMARK    7  A    between atoms: C_16  and  C_21 
REMARK    8  A    between atoms: C_20  and  C_24 
REMARK    9  A    between atoms: C_20  and  N_22 
REMARK       I    between atoms: C_21  and  N_22 
REMARK   10  A    between atoms: C_23  and  C_24 
ROOT
HETATM    1  C           1     -21.002 -11.583   0.067  0.00  0.00     0.278 C 
ENDROOT
BRANCH   1   2
HETATM    2  C           1     -20.715 -10.314   0.858  0.00  0.00     0.081 C 
BRANCH   2   3
HETATM    3  C           1     -21.212  -9.126   0.096  0.00  0.00    -0.056 A 
HETATM    4  C           1     -22.245  -8.346   0.616  0.00  0.00     0.010 A 
HETATM    5  C           1     -22.709  -7.239  -0.096  0.00  0.00     0.037 A 
HETATM    6  C           1     -22.140  -6.913  -1.327  0.00  0.00     0.065 A 
HETATM    7  C           1     -21.107  -7.692  -1.847  0.00  0.00     0.037 A 
HETATM    8  C           1     -20.643  -8.799  -1.135  0.00  0.00     0.010 A 
BRANCH   6   9
HETATM    9  O           1     -22.590  -5.838  -2.017  0.00  0.00    -0.361 OA
HETATM   10  H           1     -23.303  -5.426  -1.501  0.00  0.00     0.217 HD
ENDBRANCH   6   9
ENDBRANCH   2   3
ENDBRANCH   1   2
BRANCH   1  11
HETATM   11  N           1     -21.916 -12.470   0.860  0.00  0.00    -0.066 N 
HETATM   12  H           1     -21.678 -12.396   1.875  0.00  0.00     0.275 HD
HETATM   13  H           1     -21.799 -13.459   0.546  0.00  0.00     0.275 HD
HETATM   14  H           1     -22.907 -12.171   0.713  0.00  0.00     0.275 HD
ENDBRANCH   1  11
BRANCH   1  15
HETATM   15  C           1     -19.709 -12.310  -0.207  0.00  0.00     0.249 C 
HETATM   16  N           1     -18.546 -11.605  -0.356  0.00  0.00    -0.345 N 
HETATM   17  H           1     -18.552 -10.596  -0.281  0.00  0.00     0.163 HD
HETATM   18  O           1     -19.701 -13.515  -0.297  0.00  0.00    -0.271 OA
BRANCH  16  19
HETATM   19  C           1     -17.303 -12.304  -0.619  0.00  0.00     0.186 C 
BRANCH  19  20
HETATM   20  C           1     -16.520 -12.440   0.663  0.00  0.00     0.196 C 
HETATM   21  O           1     -16.784 -13.367   1.460  0.00  0.00    -0.646 OA
HETATM   22  O           1     -15.609 -11.627   0.930  0.00  0.00    -0.646 OA
ENDBRANCH  19  20
BRANCH  19  23
HETATM   23  C           1     -16.482 -11.515  -1.633  0.00  0.00     0.046 C 
BRANCH  23  24
HETATM   24  C           1     -17.395 -10.569  -2.401  0.00  0.00     0.076 C 
BRANCH  24  25
HETATM   25  S           1     -17.362 -10.994  -4.165  0.00  0.00    -0.173 SA
HETATM   26  C           1     -15.944  -9.948  -4.596  0.00  0.00     0.089 C 
ENDBRANCH  24  25
ENDBRANCH  23  24
ENDBRANCH  19  23
ENDBRANCH  16  19
ENDBRANCH   1  15
TORSDOF 10
ENDMDL
