MODEL 1
REMARK VINA RESULT:      -5.9      0.000      0.000
REMARK  7 active torsions:
REMARK  status: ('A' for Active; 'I' for Inactive)
REMARK    1  A    between atoms: O_5  and  C_6 
REMARK    2  A    between atoms: C_6  and  C_19 
REMARK    3  A    between atoms: C_7  and  C_8 
REMARK    4  A    between atoms: C_8  and  C_10 
REMARK    5  A    between atoms: C_8  and  N_17 
REMARK    6  A    between atoms: N_11  and  C_19 
REMARK       I    between atoms: N_17  and  C_18 
REMARK    7  A    between atoms: C_18  and  C_19 
ROOT
HETATM    1  O           1     -34.673  -0.354 -12.030  0.00  0.00    -0.271 OA
HETATM    2  H           1     -35.974  -3.141 -11.415  0.00  0.00     0.163 HD
HETATM    3  N           1     -35.285  -2.484 -11.759  0.00  0.00    -0.344 N 
HETATM    4  C           1     -35.494  -1.138 -11.619  0.00  0.00     0.251 C 
ENDROOT
BRANCH   4   5
HETATM    5  C           1     -36.751  -0.635 -10.954  0.00  0.00     0.297 C 
BRANCH   5   6
HETATM    6  C           1     -37.768  -0.243 -12.019  0.00  0.00     0.206 C 
BRANCH   6   7
HETATM    7  O           1     -37.364  -0.751 -13.261  0.00  0.00    -0.398 OA
HETATM    8  H           1     -36.671  -0.193 -13.572  0.00  0.00     0.209 HD
ENDBRANCH   6   7
ENDBRANCH   5   6
BRANCH   5   9
HETATM    9  N           1     -36.425   0.562 -10.110  0.00  0.00    -0.064 N 
HETATM   10  H           1     -37.008   0.547  -9.243  0.00  0.00     0.275 HD
HETATM   11  H           1     -35.413   0.538  -9.849  0.00  0.00     0.275 HD
HETATM   12  H           1     -36.627   1.434 -10.650  0.00  0.00     0.275 HD
ENDBRANCH   5   9
ENDBRANCH   4   5
BRANCH   3  13
HETATM   13  C           1     -34.077  -2.968 -12.398  0.00  0.00     0.189 C 
BRANCH  13  14
HETATM   14  C           1     -34.440  -3.973 -13.464  0.00  0.00     0.197 C 
HETATM   15  O           1     -35.065  -5.012 -13.156  0.00  0.00    -0.646 OA
HETATM   16  O           1     -34.117  -3.767 -14.653  0.00  0.00    -0.646 OA
ENDBRANCH  13  14
BRANCH  13  17
HETATM   17  C           1     -33.184  -3.631 -11.358  0.00  0.00     0.010 C 
HETATM   18  C           1     -32.169  -4.526 -12.059  0.00  0.00     0.012 C 
HETATM   19  C           1     -34.037  -4.469 -10.416  0.00  0.00     0.012 C 
ENDBRANCH  13  17
ENDBRANCH   3  13
TORSDOF 7
ENDMDL
MODEL 2
REMARK VINA RESULT:      -5.9      9.253     11.811
REMARK  7 active torsions:
REMARK  status: ('A' for Active; 'I' for Inactive)
REMARK    1  A    between atoms: O_5  and  C_6 
REMARK    2  A    between atoms: C_6  and  C_19 
REMARK    3  A    between atoms: C_7  and  C_8 
REMARK    4  A    between atoms: C_8  and  C_10 
REMARK    5  A    between atoms: C_8  and  N_17 
REMARK    6  A    between atoms: N_11  and  C_19 
REMARK       I    between atoms: N_17  and  C_18 
REMARK    7  A    between atoms: C_18  and  C_19 
ROOT
HETATM    1  O           1     -27.167  -5.622 -20.625  0.00  0.00    -0.271 OA
HETATM    2  H           1     -26.649  -7.117 -17.915  0.00  0.00     0.163 HD
HETATM    3  N           1     -27.131  -6.530 -18.585  0.00  0.00    -0.344 N 
HETATM    4  C           1     -26.593  -6.322 -19.826  0.00  0.00     0.251 C 
ENDROOT
BRANCH   4   5
HETATM    5  C           1     -25.280  -6.968 -20.196  0.00  0.00     0.297 C 
BRANCH   5   6
HETATM    6  C           1     -25.537  -8.147 -21.125  0.00  0.00     0.206 C 
BRANCH   6   7
HETATM    7  O           1     -26.882  -8.530 -21.034  0.00  0.00    -0.398 OA
HETATM    8  H           1     -27.387  -7.737 -20.965  0.00  0.00     0.209 HD
ENDBRANCH   6   7
ENDBRANCH   5   6
BRANCH   5   9
HETATM    9  N           1     -24.593  -7.451 -18.954  0.00  0.00    -0.064 N 
HETATM   10  H           1     -24.207  -8.408 -19.118  0.00  0.00     0.275 HD
HETATM   11  H           1     -23.813  -6.799 -18.711  0.00  0.00     0.275 HD
HETATM   12  H           1     -25.280  -7.483 -18.166  0.00  0.00     0.275 HD
ENDBRANCH   5   9
ENDBRANCH   4   5
BRANCH   3  13
HETATM   13  C           1     -28.393  -5.910 -18.229  0.00  0.00     0.189 C 
BRANCH  13  14
HETATM   14  C           1     -28.152  -4.842 -17.191  0.00  0.00     0.197 C 
HETATM   15  O           1     -28.597  -3.687 -17.368  0.00  0.00    -0.646 OA
HETATM   16  O           1     -27.509  -5.111 -16.154  0.00  0.00    -0.646 OA
ENDBRANCH  13  14
BRANCH  13  17
HETATM   17  C           1     -29.335  -6.964 -17.665  0.00  0.00     0.010 C 
HETATM   18  C           1     -29.715  -7.946 -18.766  0.00  0.00     0.012 C 
HETATM   19  C           1     -30.591  -6.289 -17.130  0.00  0.00     0.012 C 
ENDBRANCH  13  17
ENDBRANCH   3  13
TORSDOF 7
ENDMDL
MODEL 3
REMARK VINA RESULT:      -5.9      2.498      3.922
REMARK  7 active torsions:
REMARK  status: ('A' for Active; 'I' for Inactive)
REMARK    1  A    between atoms: O_5  and  C_6 
REMARK    2  A    between atoms: C_6  and  C_19 
REMARK    3  A    between atoms: C_7  and  C_8 
REMARK    4  A    between atoms: C_8  and  C_10 
REMARK    5  A    between atoms: C_8  and  N_17 
REMARK    6  A    between atoms: N_11  and  C_19 
REMARK       I    between atoms: N_17  and  C_18 
REMARK    7  A    between atoms: C_18  and  C_19 
ROOT
HETATM    1  O           1     -37.510  -0.802 -13.290  0.00  0.00    -0.271 OA
HETATM    2  H           1     -34.667  -0.355 -12.041  0.00  0.00     0.163 HD
HETATM    3  N           1     -35.614  -0.706 -12.114  0.00  0.00    -0.344 N 
HETATM    4  C           1     -36.381  -0.384 -13.202  0.00  0.00     0.251 C 
ENDROOT
BRANCH   4   5
HETATM    5  C           1     -35.815   0.495 -14.290  0.00  0.00     0.297 C 
BRANCH   5   6
HETATM    6  C           1     -35.481  -0.357 -15.509  0.00  0.00     0.206 C 
BRANCH   6   7
HETATM    7  O           1     -35.218  -1.672 -15.102  0.00  0.00    -0.398 OA
HETATM    8  H           1     -35.248  -1.678 -14.161  0.00  0.00     0.209 HD
ENDBRANCH   6   7
ENDBRANCH   5   6
BRANCH   5   9
HETATM    9  N           1     -34.569   1.165 -13.793  0.00  0.00    -0.064 N 
HETATM   10  H           1     -34.826   2.002 -13.223  0.00  0.00     0.275 HD
HETATM   11  H           1     -34.025   0.496 -13.202  0.00  0.00     0.275 HD
HETATM   12  H           1     -33.986   1.465 -14.608  0.00  0.00     0.275 HD
ENDBRANCH   5   9
ENDBRANCH   4   5
BRANCH   3  13
HETATM   13  C           1     -36.158  -1.550 -11.068  0.00  0.00     0.189 C 
BRANCH  13  14
HETATM   14  C           1     -36.653  -0.687  -9.933  0.00  0.00     0.197 C 
HETATM   15  O           1     -35.871  -0.348  -9.018  0.00  0.00    -0.646 OA
HETATM   16  O           1     -37.845  -0.312  -9.907  0.00  0.00    -0.646 OA
ENDBRANCH  13  14
BRANCH  13  17
HETATM   17  C           1     -35.073  -2.487 -10.557  0.00  0.00     0.010 C 
HETATM   18  C           1     -33.733  -2.089 -11.163  0.00  0.00     0.012 C 
HETATM   19  C           1     -35.407  -3.918 -10.960  0.00  0.00     0.012 C 
ENDBRANCH  13  17
ENDBRANCH   3  13
TORSDOF 7
ENDMDL
MODEL 4
REMARK VINA RESULT:      -5.8      2.218      4.865
REMARK  7 active torsions:
REMARK  status: ('A' for Active; 'I' for Inactive)
REMARK    1  A    between atoms: O_5  and  C_6 
REMARK    2  A    between atoms: C_6  and  C_19 
REMARK    3  A    between atoms: C_7  and  C_8 
REMARK    4  A    between atoms: C_8  and  C_10 
REMARK    5  A    between atoms: C_8  and  N_17 
REMARK    6  A    between atoms: N_11  and  C_19 
REMARK       I    between atoms: N_17  and  C_18 
REMARK    7  A    between atoms: C_18  and  C_19 
ROOT
HETATM    1  O           1     -33.435  -2.238 -11.151  0.00  0.00    -0.271 OA
HETATM    2  H           1     -35.530  -2.295 -13.486  0.00  0.00     0.163 HD
HETATM    3  N           1     -34.992  -1.912 -12.718  0.00  0.00    -0.344 N 
HETATM    4  C           1     -34.077  -2.694 -12.067  0.00  0.00     0.251 C 
ENDROOT
BRANCH   4   5
HETATM    5  C           1     -33.870  -4.127 -12.492  0.00  0.00     0.297 C 
BRANCH   5   6
HETATM    6  C           1     -34.874  -5.021 -11.775  0.00  0.00     0.206 C 
BRANCH   6   7
HETATM    7  O           1     -35.777  -4.226 -11.056  0.00  0.00    -0.398 OA
HETATM    8  H           1     -35.264  -3.639 -10.527  0.00  0.00     0.209 HD
ENDBRANCH   6   7
ENDBRANCH   5   6
BRANCH   5   9
HETATM    9  N           1     -32.477  -4.557 -12.139  0.00  0.00    -0.064 N 
HETATM   10  H           1     -32.453  -5.595 -12.016  0.00  0.00     0.275 HD
HETATM   11  H           1     -31.823  -4.283 -12.907  0.00  0.00     0.275 HD
HETATM   12  H           1     -32.185  -4.094 -11.249  0.00  0.00     0.275 HD
ENDBRANCH   5   9
ENDBRANCH   4   5
BRANCH   3  13
HETATM   13  C           1     -35.191  -0.535 -12.309  0.00  0.00     0.189 C 
BRANCH  13  14
HETATM   14  C           1     -36.282  -0.473 -11.269  0.00  0.00     0.197 C 
HETATM   15  O           1     -36.341   0.498 -10.483  0.00  0.00    -0.646 OA
HETATM   16  O           1     -37.126  -1.391 -11.192  0.00  0.00    -0.646 OA
ENDBRANCH  13  14
BRANCH  13  17
HETATM   17  C           1     -35.592   0.300 -13.517  0.00  0.00     0.010 C 
HETATM   18  C           1     -35.725  -0.604 -14.736  0.00  0.00     0.012 C 
HETATM   19  C           1     -34.527   1.356 -13.780  0.00  0.00     0.012 C 
ENDBRANCH  13  17
ENDBRANCH   3  13
TORSDOF 7
ENDMDL
MODEL 5
REMARK VINA RESULT:      -5.7      2.468      3.424
REMARK  7 active torsions:
REMARK  status: ('A' for Active; 'I' for Inactive)
REMARK    1  A    between atoms: O_5  and  C_6 
REMARK    2  A    between atoms: C_6  and  C_19 
REMARK    3  A    between atoms: C_7  and  C_8 
REMARK    4  A    between atoms: C_8  and  C_10 
REMARK    5  A    between atoms: C_8  and  N_17 
REMARK    6  A    between atoms: N_11  and  C_19 
REMARK       I    between atoms: N_17  and  C_18 
REMARK    7  A    between atoms: C_18  and  C_19 
ROOT
HETATM    1  O           1     -36.905  -0.992 -13.078  0.00  0.00    -0.271 OA
HETATM    2  H           1     -33.880  -1.637 -13.603  0.00  0.00     0.163 HD
HETATM    3  N           1     -34.780  -1.673 -13.139  0.00  0.00    -0.344 N 
HETATM    4  C           1     -35.833  -0.950 -13.631  0.00  0.00     0.251 C 
ENDROOT
BRANCH   4   5
HETATM    5  C           1     -35.653  -0.099 -14.864  0.00  0.00     0.297 C 
BRANCH   5   6
HETATM    6  C           1     -37.014   0.375 -15.358  0.00  0.00     0.206 C 
BRANCH   6   7
HETATM    7  O           1     -36.870   1.603 -16.017  0.00  0.00    -0.398 OA
HETATM    8  H           1     -36.264   1.465 -16.726  0.00  0.00     0.209 HD
ENDBRANCH   6   7
ENDBRANCH   5   6
BRANCH   5   9
HETATM    9  N           1     -34.985  -0.907 -15.936  0.00  0.00    -0.064 N 
HETATM   10  H           1     -35.394  -0.660 -16.865  0.00  0.00     0.275 HD
HETATM   11  H           1     -33.960  -0.701 -15.941  0.00  0.00     0.275 HD
HETATM   12  H           1     -35.136  -1.925 -15.749  0.00  0.00     0.275 HD
ENDBRANCH   5   9
ENDBRANCH   4   5
BRANCH   3  13
HETATM   13  C           1     -34.953  -2.491 -11.954  0.00  0.00     0.189 C 
BRANCH  13  14
HETATM   14  C           1     -34.537  -1.705 -10.736  0.00  0.00     0.197 C 
HETATM   15  O           1     -35.399  -1.111 -10.051  0.00  0.00    -0.646 OA
HETATM   16  O           1     -33.332  -1.646 -10.411  0.00  0.00    -0.646 OA
ENDBRANCH  13  14
BRANCH  13  17
HETATM   17  C           1     -34.091  -3.741 -12.071  0.00  0.00     0.010 C 
HETATM   18  C           1     -34.035  -4.184 -13.527  0.00  0.00     0.012 C 
HETATM   19  C           1     -34.693  -4.854 -11.223  0.00  0.00     0.012 C 
ENDBRANCH  13  17
ENDBRANCH   3  13
TORSDOF 7
ENDMDL
MODEL 6
REMARK VINA RESULT:      -5.6      2.735      4.175
REMARK  7 active torsions:
REMARK  status: ('A' for Active; 'I' for Inactive)
REMARK    1  A    between atoms: O_5  and  C_6 
REMARK    2  A    between atoms: C_6  and  C_19 
REMARK    3  A    between atoms: C_7  and  C_8 
REMARK    4  A    between atoms: C_8  and  C_10 
REMARK    5  A    between atoms: C_8  and  N_17 
REMARK    6  A    between atoms: N_11  and  C_19 
REMARK       I    between atoms: N_17  and  C_18 
REMARK    7  A    between atoms: C_18  and  C_19 
ROOT
HETATM    1  O           1     -34.765   0.656 -13.672  0.00  0.00    -0.271 OA
HETATM    2  H           1     -37.370  -1.001 -13.117  0.00  0.00     0.163 HD
HETATM    3  N           1     -36.475  -0.568 -12.923  0.00  0.00    -0.344 N 
HETATM    4  C           1     -35.832   0.141 -13.902  0.00  0.00     0.251 C 
ENDROOT
BRANCH   4   5
HETATM    5  C           1     -36.456   0.276 -15.269  0.00  0.00     0.297 C 
BRANCH   5   6
HETATM    6  C           1     -35.841  -0.748 -16.214  0.00  0.00     0.206 C 
BRANCH   6   7
HETATM    7  O           1     -35.169  -1.727 -15.468  0.00  0.00    -0.398 OA
HETATM    8  H           1     -35.147  -1.424 -14.576  0.00  0.00     0.209 HD
ENDBRANCH   6   7
ENDBRANCH   5   6
BRANCH   5   9
HETATM    9  N           1     -36.205   1.657 -15.798  0.00  0.00    -0.064 N 
HETATM   10  H           1     -37.097   2.057 -16.169  0.00  0.00     0.275 HD
HETATM   11  H           1     -35.846   2.265 -15.028  0.00  0.00     0.275 HD
HETATM   12  H           1     -35.498   1.612 -16.567  0.00  0.00     0.275 HD
ENDBRANCH   5   9
ENDBRANCH   4   5
BRANCH   3  13
HETATM   13  C           1     -35.875  -0.699 -11.610  0.00  0.00     0.189 C 
BRANCH  13  14
HETATM   14  C           1     -34.995  -1.924 -11.579  0.00  0.00     0.197 C 
HETATM   15  O           1     -35.476  -3.046 -11.853  0.00  0.00    -0.646 OA
HETATM   16  O           1     -33.787  -1.819 -11.279  0.00  0.00    -0.646 OA
ENDBRANCH  13  14
BRANCH  13  17
HETATM   17  C           1     -36.972  -0.834 -10.562  0.00  0.00     0.010 C 
HETATM   18  C           1     -38.074   0.177 -10.850  0.00  0.00     0.012 C 
HETATM   19  C           1     -36.388  -0.571  -9.180  0.00  0.00     0.012 C 
ENDBRANCH  13  17
ENDBRANCH   3  13
TORSDOF 7
ENDMDL
MODEL 7
REMARK VINA RESULT:      -5.5      2.775      4.900
REMARK  7 active torsions:
REMARK  status: ('A' for Active; 'I' for Inactive)
REMARK    1  A    between atoms: O_5  and  C_6 
REMARK    2  A    between atoms: C_6  and  C_19 
REMARK    3  A    between atoms: C_7  and  C_8 
REMARK    4  A    between atoms: C_8  and  C_10 
REMARK    5  A    between atoms: C_8  and  N_17 
REMARK    6  A    between atoms: N_11  and  C_19 
REMARK       I    between atoms: N_17  and  C_18 
REMARK    7  A    between atoms: C_18  and  C_19 
ROOT
HETATM    1  O           1     -34.977  -4.958 -15.317  0.00  0.00    -0.271 OA
HETATM    2  H           1     -32.559  -3.507 -13.943  0.00  0.00     0.163 HD
HETATM    3  N           1     -33.486  -3.903 -14.032  0.00  0.00    -0.344 N 
HETATM    4  C           1     -33.871  -4.486 -15.210  0.00  0.00     0.251 C 
ENDROOT
BRANCH   4   5
HETATM    5  C           1     -32.913  -4.536 -16.375  0.00  0.00     0.297 C 
BRANCH   5   6
HETATM    6  C           1     -33.253  -3.425 -17.360  0.00  0.00     0.206 C 
BRANCH   6   7
HETATM    7  O           1     -34.200  -2.565 -16.788  0.00  0.00    -0.398 OA
HETATM    8  H           1     -34.696  -3.077 -16.171  0.00  0.00     0.209 HD
ENDBRANCH   6   7
ENDBRANCH   5   6
BRANCH   5   9
HETATM    9  N           1     -33.030  -5.865 -17.061  0.00  0.00    -0.064 N 
HETATM   10  H           1     -33.768  -6.436 -16.591  0.00  0.00     0.275 HD
HETATM   11  H           1     -33.288  -5.718 -18.063  0.00  0.00     0.275 HD
HETATM   12  H           1     -32.114  -6.367 -17.006  0.00  0.00     0.275 HD
ENDBRANCH   5   9
ENDBRANCH   4   5
BRANCH   3  13
HETATM   13  C           1     -34.407  -3.855 -12.913  0.00  0.00     0.189 C 
BRANCH  13  14
HETATM   14  C           1     -35.045  -2.490 -12.845  0.00  0.00     0.197 C 
HETATM   15  O           1     -35.692  -2.151 -11.830  0.00  0.00    -0.646 OA
HETATM   16  O           1     -34.927  -1.696 -13.804  0.00  0.00    -0.646 OA
ENDBRANCH  13  14
BRANCH  13  17
HETATM   17  C           1     -33.648  -4.126 -11.621  0.00  0.00     0.010 C 
HETATM   18  C           1     -32.201  -4.475 -11.946  0.00  0.00     0.012 C 
HETATM   19  C           1     -34.299  -5.289 -10.884  0.00  0.00     0.012 C 
ENDBRANCH  13  17
ENDBRANCH   3  13
TORSDOF 7
ENDMDL
MODEL 8
REMARK VINA RESULT:      -5.4      2.871      5.304
REMARK  7 active torsions:
REMARK  status: ('A' for Active; 'I' for Inactive)
REMARK    1  A    between atoms: O_5  and  C_6 
REMARK    2  A    between atoms: C_6  and  C_19 
REMARK    3  A    between atoms: C_7  and  C_8 
REMARK    4  A    between atoms: C_8  and  C_10 
REMARK    5  A    between atoms: C_8  and  N_17 
REMARK    6  A    between atoms: N_11  and  C_19 
REMARK       I    between atoms: N_17  and  C_18 
REMARK    7  A    between atoms: C_18  and  C_19 
ROOT
HETATM    1  O           1     -35.062  -5.086 -15.406  0.00  0.00    -0.271 OA
HETATM    2  H           1     -32.575  -3.493 -14.348  0.00  0.00     0.163 HD
HETATM    3  N           1     -33.467  -3.971 -14.311  0.00  0.00    -0.344 N 
HETATM    4  C           1     -33.998  -4.517 -15.449  0.00  0.00     0.251 C 
ENDROOT
BRANCH   4   5
HETATM    5  C           1     -33.253  -4.408 -16.757  0.00  0.00     0.297 C 
BRANCH   5   6
HETATM    6  C           1     -31.770  -4.668 -16.521  0.00  0.00     0.206 C 
BRANCH   6   7
HETATM    7  O           1     -31.477  -6.005 -16.822  0.00  0.00    -0.398 OA
HETATM    8  H           1     -31.401  -6.460 -16.000  0.00  0.00     0.209 HD
ENDBRANCH   6   7
ENDBRANCH   5   6
BRANCH   5   9
HETATM    9  N           1     -33.434  -3.031 -17.321  0.00  0.00    -0.064 N 
HETATM   10  H           1     -33.818  -2.398 -16.583  0.00  0.00     0.275 HD
HETATM   11  H           1     -32.512  -2.664 -17.648  0.00  0.00     0.275 HD
HETATM   12  H           1     -34.100  -3.069 -18.127  0.00  0.00     0.275 HD
ENDBRANCH   5   9
ENDBRANCH   4   5
BRANCH   3  13
HETATM   13  C           1     -34.183  -4.075 -13.055  0.00  0.00     0.189 C 
BRANCH  13  14
HETATM   14  C           1     -34.947  -2.799 -12.804  0.00  0.00     0.197 C 
HETATM   15  O           1     -34.742  -1.796 -13.522  0.00  0.00    -0.646 OA
HETATM   16  O           1     -35.784  -2.743 -11.878  0.00  0.00    -0.646 OA
ENDBRANCH  13  14
BRANCH  13  17
HETATM   17  C           1     -33.190  -4.304 -11.923  0.00  0.00     0.010 C 
HETATM   18  C           1     -33.732  -5.374 -10.983  0.00  0.00     0.012 C 
HETATM   19  C           1     -32.990  -3.006 -11.154  0.00  0.00     0.012 C 
ENDBRANCH  13  17
ENDBRANCH   3  13
TORSDOF 7
ENDMDL
MODEL 9
REMARK VINA RESULT:      -5.4      7.862     10.538
REMARK  7 active torsions:
REMARK  status: ('A' for Active; 'I' for Inactive)
REMARK    1  A    between atoms: O_5  and  C_6 
REMARK    2  A    between atoms: C_6  and  C_19 
REMARK    3  A    between atoms: C_7  and  C_8 
REMARK    4  A    between atoms: C_8  and  C_10 
REMARK    5  A    between atoms: C_8  and  N_17 
REMARK    6  A    between atoms: N_11  and  C_19 
REMARK       I    between atoms: N_17  and  C_18 
REMARK    7  A    between atoms: C_18  and  C_19 
ROOT
HETATM    1  O           1     -27.510  -6.353 -18.895  0.00  0.00    -0.271 OA
HETATM    2  H           1     -27.688  -4.820 -16.164  0.00  0.00     0.163 HD
HETATM    3  N           1     -27.992  -5.169 -17.064  0.00  0.00    -0.344 N 
HETATM    4  C           1     -27.148  -5.938 -17.821  0.00  0.00     0.251 C 
ENDROOT
BRANCH   4   5
HETATM    5  C           1     -25.766  -6.264 -17.312  0.00  0.00     0.297 C 
BRANCH   5   6
HETATM    6  C           1     -24.947  -6.891 -18.433  0.00  0.00     0.206 C 
BRANCH   6   7
HETATM    7  O           1     -23.607  -6.991 -18.033  0.00  0.00    -0.398 OA
HETATM    8  H           1     -23.527  -7.791 -17.542  0.00  0.00     0.209 HD
ENDBRANCH   6   7
ENDBRANCH   5   6
BRANCH   5   9
HETATM    9  N           1     -25.869  -7.230 -16.170  0.00  0.00    -0.064 N 
HETATM   10  H           1     -25.324  -8.094 -16.391  0.00  0.00     0.275 HD
HETATM   11  H           1     -25.484  -6.789 -15.304  0.00  0.00     0.275 HD
HETATM   12  H           1     -26.873  -7.482 -16.016  0.00  0.00     0.275 HD
ENDBRANCH   5   9
ENDBRANCH   4   5
BRANCH   3  13
HETATM   13  C           1     -29.320  -4.855 -17.553  0.00  0.00     0.189 C 
BRANCH  13  14
HETATM   14  C           1     -29.560  -3.370 -17.436  0.00  0.00     0.197 C 
HETATM   15  O           1     -30.724  -2.917 -17.506  0.00  0.00    -0.646 OA
HETATM   16  O           1     -28.597  -2.592 -17.269  0.00  0.00    -0.646 OA
ENDBRANCH  13  14
BRANCH  13  17
HETATM   17  C           1     -30.355  -5.604 -16.725  0.00  0.00     0.010 C 
HETATM   18  C           1     -29.814  -5.828 -15.319  0.00  0.00     0.012 C 
HETATM   19  C           1     -30.650  -6.948 -17.377  0.00  0.00     0.012 C 
ENDBRANCH  13  17
ENDBRANCH   3  13
TORSDOF 7
ENDMDL
