MODEL 1
REMARK VINA RESULT:      -5.8      0.000      0.000
REMARK  8 active torsions:
REMARK  status: ('A' for Active; 'I' for Inactive)
REMARK    1  A    between atoms: O_3  and  C_20 
REMARK    2  A    between atoms: C_5  and  C_14 
REMARK    3  A    between atoms: C_5  and  C_7 
REMARK    4  A    between atoms: C_7  and  C_11 
REMARK    5  A    between atoms: C_7  and  N_15 
REMARK       I    between atoms: C_13  and  N_15 
REMARK    6  A    between atoms: C_13  and  C_17 
REMARK    7  A    between atoms: N_16  and  C_17 
REMARK    8  A    between atoms: C_17  and  C_20 
ROOT
HETATM    1  H           1     -26.858  -6.006 -18.275  0.00  0.00     0.163 HD
HETATM    2  O           1     -26.372  -7.316 -15.467  0.00  0.00    -0.271 OA
HETATM    3  C           1     -26.099  -6.876 -16.558  0.00  0.00     0.251 C 
HETATM    4  N           1     -27.088  -6.374 -17.361  0.00  0.00    -0.344 N 
ENDROOT
BRANCH   3   5
HETATM    5  C           1     -24.668  -6.882 -17.037  0.00  0.00     0.297 C 
BRANCH   5   6
HETATM    6  N           1     -23.941  -8.040 -16.420  0.00  0.00    -0.064 N 
HETATM    7  H           1     -23.832  -8.800 -17.128  0.00  0.00     0.275 HD
HETATM    8  H           1     -22.997  -7.727 -16.098  0.00  0.00     0.275 HD
HETATM    9  H           1     -24.486  -8.399 -15.604  0.00  0.00     0.275 HD
ENDBRANCH   5   6
BRANCH   5  10
HETATM   10  C           1     -24.639  -7.014 -18.553  0.00  0.00     0.206 C 
BRANCH  10  11
HETATM   11  O           1     -23.351  -7.382 -18.966  0.00  0.00    -0.398 OA
HETATM   12  H           1     -23.453  -7.951 -19.710  0.00  0.00     0.209 HD
ENDBRANCH  10  11
ENDBRANCH   5  10
ENDBRANCH   3   5
BRANCH   4  13
HETATM   13  C           1     -28.462  -6.368 -16.901  0.00  0.00     0.189 C 
BRANCH  13  14
HETATM   14  C           1     -29.144  -5.084 -17.355  0.00  0.00     0.014 C 
HETATM   15  C           1     -30.529  -4.996 -16.727  0.00  0.00     0.012 C 
BRANCH  14  16
HETATM   16  C           1     -28.310  -3.886 -16.917  0.00  0.00     0.002 C 
HETATM   17  C           1     -29.072  -2.601 -17.214  0.00  0.00     0.005 C 
ENDBRANCH  14  16
ENDBRANCH  13  14
BRANCH  13  18
HETATM   18  C           1     -29.190  -7.557 -17.480  0.00  0.00     0.197 C 
HETATM   19  O           1     -29.491  -8.524 -16.747  0.00  0.00    -0.646 OA
HETATM   20  O           1     -29.493  -7.574 -18.693  0.00  0.00    -0.646 OA
ENDBRANCH  13  18
ENDBRANCH   4  13
TORSDOF 8
ENDMDL
MODEL 2
REMARK VINA RESULT:      -5.8      2.114      3.169
REMARK  8 active torsions:
REMARK  status: ('A' for Active; 'I' for Inactive)
REMARK    1  A    between atoms: O_3  and  C_20 
REMARK    2  A    between atoms: C_5  and  C_14 
REMARK    3  A    between atoms: C_5  and  C_7 
REMARK    4  A    between atoms: C_7  and  C_11 
REMARK    5  A    between atoms: C_7  and  N_15 
REMARK       I    between atoms: C_13  and  N_15 
REMARK    6  A    between atoms: C_13  and  C_17 
REMARK    7  A    between atoms: N_16  and  C_17 
REMARK    8  A    between atoms: C_17  and  C_20 
ROOT
HETATM    1  H           1     -27.978  -6.792 -18.780  0.00  0.00     0.163 HD
HETATM    2  O           1     -24.886  -6.350 -18.491  0.00  0.00    -0.271 OA
HETATM    3  C           1     -25.925  -6.680 -19.012  0.00  0.00     0.251 C 
HETATM    4  N           1     -27.108  -6.514 -18.344  0.00  0.00    -0.344 N 
ENDROOT
BRANCH   3   5
HETATM    5  C           1     -25.917  -7.276 -20.398  0.00  0.00     0.297 C 
BRANCH   5   6
HETATM    6  N           1     -24.806  -8.278 -20.504  0.00  0.00    -0.064 N 
HETATM    7  H           1     -24.469  -8.323 -21.492  0.00  0.00     0.275 HD
HETATM    8  H           1     -24.018  -7.992 -19.881  0.00  0.00     0.275 HD
HETATM    9  H           1     -25.156  -9.219 -20.213  0.00  0.00     0.275 HD
ENDBRANCH   5   6
BRANCH   5  10
HETATM   10  C           1     -27.248  -7.966 -20.662  0.00  0.00     0.206 C 
BRANCH  10  11
HETATM   11  O           1     -27.080  -8.947 -21.650  0.00  0.00    -0.398 OA
HETATM   12  H           1     -26.327  -8.697 -22.159  0.00  0.00     0.209 HD
ENDBRANCH  10  11
ENDBRANCH   5  10
ENDBRANCH   3   5
BRANCH   4  13
HETATM   13  C           1     -27.114  -5.942 -17.012  0.00  0.00     0.189 C 
BRANCH  13  14
HETATM   14  C           1     -28.428  -5.207 -16.783  0.00  0.00     0.014 C 
HETATM   15  C           1     -28.180  -3.704 -16.810  0.00  0.00     0.012 C 
BRANCH  14  16
HETATM   16  C           1     -29.415  -5.578 -17.883  0.00  0.00     0.002 C 
HETATM   17  C           1     -30.695  -6.117 -17.257  0.00  0.00     0.005 C 
ENDBRANCH  14  16
ENDBRANCH  13  14
BRANCH  13  18
HETATM   18  C           1     -26.970  -7.044 -15.991  0.00  0.00     0.197 C 
HETATM   19  O           1     -27.985  -7.626 -15.552  0.00  0.00    -0.646 OA
HETATM   20  O           1     -25.835  -7.374 -15.584  0.00  0.00    -0.646 OA
ENDBRANCH  13  18
ENDBRANCH   4  13
TORSDOF 8
ENDMDL
MODEL 3
REMARK VINA RESULT:      -5.7      2.620      3.709
REMARK  8 active torsions:
REMARK  status: ('A' for Active; 'I' for Inactive)
REMARK    1  A    between atoms: O_3  and  C_20 
REMARK    2  A    between atoms: C_5  and  C_14 
REMARK    3  A    between atoms: C_5  and  C_7 
REMARK    4  A    between atoms: C_7  and  C_11 
REMARK    5  A    between atoms: C_7  and  N_15 
REMARK       I    between atoms: C_13  and  N_15 
REMARK    6  A    between atoms: C_13  and  C_17 
REMARK    7  A    between atoms: N_16  and  C_17 
REMARK    8  A    between atoms: C_17  and  C_20 
ROOT
HETATM    1  H           1     -26.317  -7.272 -18.027  0.00  0.00     0.163 HD
HETATM    2  O           1     -27.165  -5.611 -20.549  0.00  0.00    -0.271 OA
HETATM    3  C           1     -26.529  -6.399 -19.891  0.00  0.00     0.251 C 
HETATM    4  N           1     -26.851  -6.612 -18.578  0.00  0.00    -0.344 N 
ENDROOT
BRANCH   3   5
HETATM    5  C           1     -25.378  -7.147 -20.517  0.00  0.00     0.297 C 
BRANCH   5   6
HETATM    6  N           1     -24.470  -7.660 -19.438  0.00  0.00    -0.064 N 
HETATM    7  H           1     -24.237  -8.661 -19.625  0.00  0.00     0.275 HD
HETATM    8  H           1     -23.592  -7.095 -19.424  0.00  0.00     0.275 HD
HETATM    9  H           1     -24.950  -7.581 -18.514  0.00  0.00     0.275 HD
ENDBRANCH   5   6
BRANCH   5  10
HETATM   10  C           1     -25.913  -8.319 -21.328  0.00  0.00     0.206 C 
BRANCH  10  11
HETATM   11  O           1     -27.241  -8.577 -20.959  0.00  0.00    -0.398 OA
HETATM   12  H           1     -27.735  -7.797 -21.149  0.00  0.00     0.209 HD
ENDBRANCH  10  11
ENDBRANCH   5  10
ENDBRANCH   3   5
BRANCH   4  13
HETATM   13  C           1     -27.957  -5.893 -17.977  0.00  0.00     0.189 C 
BRANCH  13  14
HETATM   14  C           1     -28.932  -6.887 -17.360  0.00  0.00     0.014 C 
HETATM   15  C           1     -30.014  -6.130 -16.600  0.00  0.00     0.012 C 
BRANCH  14  16
HETATM   16  C           1     -29.574  -7.719 -18.463  0.00  0.00     0.002 C 
HETATM   17  C           1     -31.087  -7.545 -18.417  0.00  0.00     0.005 C 
ENDBRANCH  14  16
ENDBRANCH  13  14
BRANCH  13  18
HETATM   18  C           1     -27.433  -4.971 -16.904  0.00  0.00     0.197 C 
HETATM   19  O           1     -27.912  -3.823 -16.777  0.00  0.00    -0.646 OA
HETATM   20  O           1     -26.519  -5.354 -16.142  0.00  0.00    -0.646 OA
ENDBRANCH  13  18
ENDBRANCH   4  13
TORSDOF 8
ENDMDL
MODEL 4
REMARK VINA RESULT:      -5.7      1.897      2.174
REMARK  8 active torsions:
REMARK  status: ('A' for Active; 'I' for Inactive)
REMARK    1  A    between atoms: O_3  and  C_20 
REMARK    2  A    between atoms: C_5  and  C_14 
REMARK    3  A    between atoms: C_5  and  C_7 
REMARK    4  A    between atoms: C_7  and  C_11 
REMARK    5  A    between atoms: C_7  and  N_15 
REMARK       I    between atoms: C_13  and  N_15 
REMARK    6  A    between atoms: C_13  and  C_17 
REMARK    7  A    between atoms: N_16  and  C_17 
REMARK    8  A    between atoms: C_17  and  C_20 
ROOT
HETATM    1  H           1     -27.972  -6.937 -18.545  0.00  0.00     0.163 HD
HETATM    2  O           1     -28.200  -7.063 -15.419  0.00  0.00    -0.271 OA
HETATM    3  C           1     -27.664  -7.041 -16.502  0.00  0.00     0.251 C 
HETATM    4  N           1     -28.422  -6.954 -17.639  0.00  0.00    -0.344 N 
ENDROOT
BRANCH   3   5
HETATM    5  C           1     -26.160  -7.110 -16.600  0.00  0.00     0.297 C 
BRANCH   5   6
HETATM    6  N           1     -25.729  -6.669 -17.967  0.00  0.00    -0.064 N 
HETATM    7  H           1     -26.571  -6.479 -18.554  0.00  0.00     0.275 HD
HETATM    8  H           1     -25.156  -5.799 -17.888  0.00  0.00     0.275 HD
HETATM    9  H           1     -25.158  -7.423 -18.412  0.00  0.00     0.275 HD
ENDBRANCH   5   6
BRANCH   5  10
HETATM   10  C           1     -25.539  -6.195 -15.553  0.00  0.00     0.206 C 
BRANCH  10  11
HETATM   11  O           1     -24.720  -6.948 -14.700  0.00  0.00    -0.398 OA
HETATM   12  H           1     -23.844  -6.613 -14.795  0.00  0.00     0.209 HD
ENDBRANCH  10  11
ENDBRANCH   5  10
ENDBRANCH   3   5
BRANCH   4  13
HETATM   13  C           1     -29.867  -6.888 -17.544  0.00  0.00     0.189 C 
BRANCH  13  14
HETATM   14  C           1     -30.328  -5.465 -17.827  0.00  0.00     0.014 C 
HETATM   15  C           1     -30.923  -4.863 -16.560  0.00  0.00     0.012 C 
BRANCH  14  16
HETATM   16  C           1     -29.139  -4.626 -18.278  0.00  0.00     0.002 C 
HETATM   17  C           1     -28.971  -3.436 -17.343  0.00  0.00     0.005 C 
ENDBRANCH  14  16
ENDBRANCH  13  14
BRANCH  13  18
HETATM   18  C           1     -30.480  -7.827 -18.554  0.00  0.00     0.197 C 
HETATM   19  O           1     -29.762  -8.657 -19.152  0.00  0.00    -0.646 OA
HETATM   20  O           1     -31.705  -7.774 -18.793  0.00  0.00    -0.646 OA
ENDBRANCH  13  18
ENDBRANCH   4  13
TORSDOF 8
ENDMDL
MODEL 5
REMARK VINA RESULT:      -5.4      9.191     10.700
REMARK  8 active torsions:
REMARK  status: ('A' for Active; 'I' for Inactive)
REMARK    1  A    between atoms: O_3  and  C_20 
REMARK    2  A    between atoms: C_5  and  C_14 
REMARK    3  A    between atoms: C_5  and  C_7 
REMARK    4  A    between atoms: C_7  and  C_11 
REMARK    5  A    between atoms: C_7  and  N_15 
REMARK       I    between atoms: C_13  and  N_15 
REMARK    6  A    between atoms: C_13  and  C_17 
REMARK    7  A    between atoms: N_16  and  C_17 
REMARK    8  A    between atoms: C_17  and  C_20 
ROOT
HETATM    1  H           1     -22.823  -5.803  -8.088  0.00  0.00     0.163 HD
HETATM    2  O           1     -21.147  -3.307  -7.194  0.00  0.00    -0.271 OA
HETATM    3  C           1     -21.636  -4.409  -7.123  0.00  0.00     0.251 C 
HETATM    4  N           1     -22.413  -4.880  -8.148  0.00  0.00    -0.344 N 
ENDROOT
BRANCH   3   5
HETATM    5  C           1     -21.394  -5.265  -5.905  0.00  0.00     0.297 C 
BRANCH   5   6
HETATM    6  N           1     -22.687  -5.885  -5.465  0.00  0.00    -0.064 N 
HETATM    7  H           1     -23.292  -5.155  -5.025  0.00  0.00     0.275 HD
HETATM    8  H           1     -23.179  -6.290  -6.293  0.00  0.00     0.275 HD
HETATM    9  H           1     -22.493  -6.640  -4.771  0.00  0.00     0.275 HD
ENDBRANCH   5   6
BRANCH   5  10
HETATM   10  C           1     -20.396  -6.363  -6.245  0.00  0.00     0.206 C 
BRANCH  10  11
HETATM   11  O           1     -19.914  -6.170  -7.547  0.00  0.00    -0.398 OA
HETATM   12  H           1     -20.229  -5.331  -7.836  0.00  0.00     0.209 HD
ENDBRANCH  10  11
ENDBRANCH   5  10
ENDBRANCH   3   5
BRANCH   4  13
HETATM   13  C           1     -22.645  -4.057  -9.318  0.00  0.00     0.189 C 
BRANCH  13  14
HETATM   14  C           1     -21.955  -4.682 -10.523  0.00  0.00     0.014 C 
HETATM   15  C           1     -22.684  -4.270 -11.796  0.00  0.00     0.012 C 
BRANCH  14  16
HETATM   16  C           1     -20.511  -4.200 -10.586  0.00  0.00     0.002 C 
HETATM   17  C           1     -20.462  -2.824 -11.237  0.00  0.00     0.005 C 
ENDBRANCH  14  16
ENDBRANCH  13  14
BRANCH  13  18
HETATM   18  C           1     -24.129  -3.964  -9.581  0.00  0.00     0.197 C 
HETATM   19  O           1     -24.789  -5.002  -9.805  0.00  0.00    -0.646 OA
HETATM   20  O           1     -24.697  -2.852  -9.573  0.00  0.00    -0.646 OA
ENDBRANCH  13  18
ENDBRANCH   4  13
TORSDOF 8
ENDMDL
MODEL 6
REMARK VINA RESULT:      -5.4      1.585      1.916
REMARK  8 active torsions:
REMARK  status: ('A' for Active; 'I' for Inactive)
REMARK    1  A    between atoms: O_3  and  C_20 
REMARK    2  A    between atoms: C_5  and  C_14 
REMARK    3  A    between atoms: C_5  and  C_7 
REMARK    4  A    between atoms: C_7  and  C_11 
REMARK    5  A    between atoms: C_7  and  N_15 
REMARK       I    between atoms: C_13  and  N_15 
REMARK    6  A    between atoms: C_13  and  C_17 
REMARK    7  A    between atoms: N_16  and  C_17 
REMARK    8  A    between atoms: C_17  and  C_20 
ROOT
HETATM    1  H           1     -27.825  -6.958 -19.031  0.00  0.00     0.163 HD
HETATM    2  O           1     -25.522  -6.218 -17.033  0.00  0.00    -0.271 OA
HETATM    3  C           1     -26.033  -6.595 -18.061  0.00  0.00     0.251 C 
HETATM    4  N           1     -27.397  -6.641 -18.170  0.00  0.00    -0.344 N 
ENDROOT
BRANCH   3   5
HETATM    5  C           1     -25.168  -7.016 -19.223  0.00  0.00     0.297 C 
BRANCH   5   6
HETATM    6  N           1     -25.572  -6.251 -20.449  0.00  0.00    -0.064 N 
HETATM    7  H           1     -24.872  -6.412 -21.207  0.00  0.00     0.275 HD
HETATM    8  H           1     -26.512  -6.577 -20.769  0.00  0.00     0.275 HD
HETATM    9  H           1     -25.614  -5.232 -20.225  0.00  0.00     0.275 HD
ENDBRANCH   5   6
BRANCH   5  10
HETATM   10  C           1     -23.709  -6.725 -18.903  0.00  0.00     0.206 C 
BRANCH  10  11
HETATM   11  O           1     -23.292  -7.537 -17.839  0.00  0.00    -0.398 OA
HETATM   12  H           1     -23.520  -7.086 -17.044  0.00  0.00     0.209 HD
ENDBRANCH  10  11
ENDBRANCH   5  10
ENDBRANCH   3   5
BRANCH   4  13
HETATM   13  C           1     -28.227  -6.237 -17.053  0.00  0.00     0.189 C 
BRANCH  13  14
HETATM   14  C           1     -29.539  -5.667 -17.577  0.00  0.00     0.014 C 
HETATM   15  C           1     -30.463  -5.360 -16.405  0.00  0.00     0.012 C 
BRANCH  14  16
HETATM   16  C           1     -29.262  -4.387 -18.355  0.00  0.00     0.002 C 
HETATM   17  C           1     -28.923  -3.265 -17.383  0.00  0.00     0.005 C 
ENDBRANCH  14  16
ENDBRANCH  13  14
BRANCH  13  18
HETATM   18  C           1     -28.512  -7.434 -16.179  0.00  0.00     0.197 C 
HETATM   19  O           1     -27.996  -7.515 -15.043  0.00  0.00    -0.646 OA
HETATM   20  O           1     -29.263  -8.344 -16.591  0.00  0.00    -0.646 OA
ENDBRANCH  13  18
ENDBRANCH   4  13
TORSDOF 8
ENDMDL
MODEL 7
REMARK VINA RESULT:      -5.1     12.358     14.120
REMARK  8 active torsions:
REMARK  status: ('A' for Active; 'I' for Inactive)
REMARK    1  A    between atoms: O_3  and  C_20 
REMARK    2  A    between atoms: C_5  and  C_14 
REMARK    3  A    between atoms: C_5  and  C_7 
REMARK    4  A    between atoms: C_7  and  C_11 
REMARK    5  A    between atoms: C_7  and  N_15 
REMARK       I    between atoms: C_13  and  N_15 
REMARK    6  A    between atoms: C_13  and  C_17 
REMARK    7  A    between atoms: N_16  and  C_17 
REMARK    8  A    between atoms: C_17  and  C_20 
ROOT
HETATM    1  H           1     -22.298  -6.353  -5.963  0.00  0.00     0.163 HD
HETATM    2  O           1     -19.668  -4.682  -5.594  0.00  0.00    -0.271 OA
HETATM    3  C           1     -20.771  -4.957  -6.005  0.00  0.00     0.251 C 
HETATM    4  N           1     -21.374  -6.123  -5.618  0.00  0.00    -0.344 N 
ENDROOT
BRANCH   3   5
HETATM    5  C           1     -21.481  -4.014  -6.945  0.00  0.00     0.297 C 
BRANCH   5   6
HETATM    6  N           1     -20.563  -3.650  -8.074  0.00  0.00    -0.064 N 
HETATM    7  H           1     -20.661  -4.350  -8.842  0.00  0.00     0.275 HD
HETATM    8  H           1     -20.813  -2.702  -8.434  0.00  0.00     0.275 HD
HETATM    9  H           1     -19.576  -3.644  -7.732  0.00  0.00     0.275 HD
ENDBRANCH   5   6
BRANCH   5  10
HETATM   10  C           1     -22.725  -4.692  -7.501  0.00  0.00     0.206 C 
BRANCH  10  11
HETATM   11  O           1     -23.817  -4.428  -6.663  0.00  0.00    -0.398 OA
HETATM   12  H           1     -24.489  -4.043  -7.200  0.00  0.00     0.209 HD
ENDBRANCH  10  11
ENDBRANCH   5  10
ENDBRANCH   3   5
BRANCH   4  13
HETATM   13  C           1     -20.691  -7.028  -4.715  0.00  0.00     0.189 C 
BRANCH  13  14
HETATM   14  C           1     -21.615  -7.382  -3.557  0.00  0.00     0.014 C 
HETATM   15  C           1     -20.951  -8.440  -2.684  0.00  0.00     0.012 C 
BRANCH  14  16
HETATM   16  C           1     -21.887  -6.134  -2.726  0.00  0.00     0.002 C 
HETATM   17  C           1     -22.268  -6.540  -1.309  0.00  0.00     0.005 C 
ENDBRANCH  14  16
ENDBRANCH  13  14
BRANCH  13  18
HETATM   18  C           1     -20.311  -8.286  -5.458  0.00  0.00     0.197 C 
HETATM   19  O           1     -21.201  -9.035  -5.916  0.00  0.00    -0.646 OA
HETATM   20  O           1     -19.106  -8.579  -5.615  0.00  0.00    -0.646 OA
ENDBRANCH  13  18
ENDBRANCH   4  13
TORSDOF 8
ENDMDL
MODEL 8
REMARK VINA RESULT:      -5.0      1.800      2.110
REMARK  8 active torsions:
REMARK  status: ('A' for Active; 'I' for Inactive)
REMARK    1  A    between atoms: O_3  and  C_20 
REMARK    2  A    between atoms: C_5  and  C_14 
REMARK    3  A    between atoms: C_5  and  C_7 
REMARK    4  A    between atoms: C_7  and  C_11 
REMARK    5  A    between atoms: C_7  and  N_15 
REMARK       I    between atoms: C_13  and  N_15 
REMARK    6  A    between atoms: C_13  and  C_17 
REMARK    7  A    between atoms: N_16  and  C_17 
REMARK    8  A    between atoms: C_17  and  C_20 
ROOT
HETATM    1  H           1     -28.141  -6.390 -19.175  0.00  0.00     0.163 HD
HETATM    2  O           1     -25.778  -6.493 -17.114  0.00  0.00    -0.271 OA
HETATM    3  C           1     -26.322  -6.474 -18.193  0.00  0.00     0.251 C 
HETATM    4  N           1     -27.687  -6.405 -18.271  0.00  0.00    -0.344 N 
ENDROOT
BRANCH   3   5
HETATM    5  C           1     -25.495  -6.528 -19.455  0.00  0.00     0.297 C 
BRANCH   5   6
HETATM    6  N           1     -24.454  -7.600 -19.323  0.00  0.00    -0.064 N 
HETATM    7  H           1     -23.995  -7.756 -20.248  0.00  0.00     0.275 HD
HETATM    8  H           1     -23.736  -7.304 -18.624  0.00  0.00     0.275 HD
HETATM    9  H           1     -24.906  -8.487 -19.004  0.00  0.00     0.275 HD
ENDBRANCH   5   6
BRANCH   5  10
HETATM   10  C           1     -26.397  -6.841 -20.640  0.00  0.00     0.206 C 
BRANCH  10  11
HETATM   11  O           1     -26.729  -8.202 -20.630  0.00  0.00    -0.398 OA
HETATM   12  H           1     -26.154  -8.621 -20.013  0.00  0.00     0.209 HD
ENDBRANCH  10  11
ENDBRANCH   5  10
ENDBRANCH   3   5
BRANCH   4  13
HETATM   13  C           1     -28.480  -6.352 -17.059  0.00  0.00     0.189 C 
BRANCH  13  14
HETATM   14  C           1     -29.045  -4.949 -16.883  0.00  0.00     0.014 C 
HETATM   15  C           1     -27.944  -4.017 -16.391  0.00  0.00     0.012 C 
BRANCH  14  16
HETATM   16  C           1     -29.577  -4.446 -18.219  0.00  0.00     0.002 C 
HETATM   17  C           1     -30.755  -3.510 -17.978  0.00  0.00     0.005 C 
ENDBRANCH  14  16
ENDBRANCH  13  14
BRANCH  13  18
HETATM   18  C           1     -29.615  -7.343 -17.158  0.00  0.00     0.197 C 
HETATM   19  O           1     -29.370  -8.563 -17.277  0.00  0.00    -0.646 OA
HETATM   20  O           1     -30.798  -6.943 -17.122  0.00  0.00    -0.646 OA
ENDBRANCH  13  18
ENDBRANCH   4  13
TORSDOF 8
ENDMDL
MODEL 9
REMARK VINA RESULT:      -4.8     15.453     17.102
REMARK  8 active torsions:
REMARK  status: ('A' for Active; 'I' for Inactive)
REMARK    1  A    between atoms: O_3  and  C_20 
REMARK    2  A    between atoms: C_5  and  C_14 
REMARK    3  A    between atoms: C_5  and  C_7 
REMARK    4  A    between atoms: C_7  and  C_11 
REMARK    5  A    between atoms: C_7  and  N_15 
REMARK       I    between atoms: C_13  and  N_15 
REMARK    6  A    between atoms: C_13  and  C_17 
REMARK    7  A    between atoms: N_16  and  C_17 
REMARK    8  A    between atoms: C_17  and  C_20 
ROOT
HETATM    1  H           1     -22.011  -9.854  -2.686  0.00  0.00     0.163 HD
HETATM    2  O           1     -20.829  -6.993  -2.180  0.00  0.00    -0.271 OA
HETATM    3  C           1     -21.348  -7.897  -2.791  0.00  0.00     0.251 C 
HETATM    4  N           1     -21.577  -9.097  -2.174  0.00  0.00    -0.344 N 
ENDROOT
BRANCH   3   5
HETATM    5  C           1     -21.743  -7.702  -4.234  0.00  0.00     0.297 C 
BRANCH   5   6
HETATM    6  N           1     -22.298  -6.321  -4.418  0.00  0.00    -0.064 N 
HETATM    7  H           1     -21.749  -5.819  -5.151  0.00  0.00     0.275 HD
HETATM    8  H           1     -23.298  -6.385  -4.715  0.00  0.00     0.275 HD
HETATM    9  H           1     -22.236  -5.798  -3.516  0.00  0.00     0.275 HD
ENDBRANCH   5   6
BRANCH   5  10
HETATM   10  C           1     -20.520  -7.879  -5.124  0.00  0.00     0.206 C 
BRANCH  10  11
HETATM   11  O           1     -19.500  -8.509  -4.398  0.00  0.00    -0.398 OA
HETATM   12  H           1     -19.341  -9.340  -4.812  0.00  0.00     0.209 HD
ENDBRANCH  10  11
ENDBRANCH   5  10
ENDBRANCH   3   5
BRANCH   4  13
HETATM   13  C           1     -21.198  -9.283  -0.787  0.00  0.00     0.189 C 
BRANCH  13  14
HETATM   14  C           1     -22.443  -9.555   0.047  0.00  0.00     0.014 C 
HETATM   15  C           1     -23.111  -8.233   0.406  0.00  0.00     0.012 C 
BRANCH  14  16
HETATM   16  C           1     -23.413 -10.413  -0.756  0.00  0.00     0.002 C 
HETATM   17  C           1     -23.783 -11.651   0.050  0.00  0.00     0.005 C 
ENDBRANCH  14  16
ENDBRANCH  13  14
BRANCH  13  18
HETATM   18  C           1     -20.253 -10.455  -0.678  0.00  0.00     0.197 C 
HETATM   19  O           1     -19.610 -10.835  -1.680  0.00  0.00    -0.646 OA
HETATM   20  O           1     -20.113 -11.046   0.415  0.00  0.00    -0.646 OA
ENDBRANCH  13  18
ENDBRANCH   4  13
TORSDOF 8
ENDMDL
