MODEL 1
REMARK VINA RESULT:      -6.7      0.000      0.000
REMARK  8 active torsions:
REMARK  status: ('A' for Active; 'I' for Inactive)
REMARK    1  A    between atoms: C_2  and  C_3 
REMARK    2  A    between atoms: C_3  and  C_6 
REMARK    3  A    between atoms: C_3  and  N_17 
REMARK    4  A    between atoms: C_12  and  C_23 
REMARK       I    between atoms: C_12  and  N_20 
REMARK    5  A    between atoms: N_14  and  C_19 
REMARK       I    between atoms: N_17  and  C_22 
REMARK    6  A    between atoms: C_18  and  C_19 
REMARK    7  A    between atoms: C_18  and  C_23 
REMARK    8  A    between atoms: C_19  and  C_22 
ROOT
HETATM    1  C           1     -21.238  -5.887  -6.950  0.00  0.00     0.275 C 
ENDROOT
BRANCH   1   2
HETATM    2  N           1     -19.853  -6.238  -7.405  0.00  0.00    -0.066 N 
HETATM    3  H           1     -19.301  -5.363  -7.548  0.00  0.00     0.275 HD
HETATM    4  H           1     -19.906  -6.769  -8.304  0.00  0.00     0.275 HD
HETATM    5  H           1     -19.387  -6.830  -6.680  0.00  0.00     0.275 HD
ENDBRANCH   1   2
BRANCH   1   6
HETATM    6  C           1     -21.220  -5.582  -5.458  0.00  0.00     0.052 C 
BRANCH   6   7
HETATM    7  C           1     -22.142  -6.551  -4.730  0.00  0.00     0.105 C 
BRANCH   7   8
HETATM    8  C           1     -21.741  -6.633  -3.277  0.00  0.00     0.215 C 
HETATM    9  N           1     -22.380  -5.861  -2.346  0.00  0.00    -0.370 N 
HETATM   10  H           1     -22.111  -5.916  -1.372  0.00  0.00     0.159 HD
HETATM   11  H           1     -23.122  -5.234  -2.631  0.00  0.00     0.159 HD
HETATM   12  O           1     -20.856  -7.381  -2.938  0.00  0.00    -0.274 OA
ENDBRANCH   7   8
ENDBRANCH   6   7
ENDBRANCH   1   6
BRANCH   1  13
HETATM   13  C           1     -21.723  -4.674  -7.707  0.00  0.00     0.249 C 
HETATM   14  O           1     -21.680  -3.583  -7.190  0.00  0.00    -0.271 OA
HETATM   15  N           1     -22.211  -4.811  -8.978  0.00  0.00    -0.344 N 
HETATM   16  H           1     -22.247  -5.725  -9.411  0.00  0.00     0.163 HD
BRANCH  15  17
HETATM   17  C           1     -22.676  -3.646  -9.705  0.00  0.00     0.189 C 
BRANCH  17  18
HETATM   18  C           1     -24.134  -3.820 -10.054  0.00  0.00     0.197 C 
HETATM   19  O           1     -24.754  -2.900 -10.629  0.00  0.00    -0.646 OA
HETATM   20  O           1     -24.722  -4.886  -9.767  0.00  0.00    -0.646 OA
ENDBRANCH  17  18
BRANCH  17  21
HETATM   21  C           1     -21.864  -3.488 -10.983  0.00  0.00     0.010 C 
HETATM   22  C           1     -20.379  -3.515 -10.647  0.00  0.00     0.012 C 
HETATM   23  C           1     -22.190  -4.631 -11.936  0.00  0.00     0.012 C 
ENDBRANCH  17  21
ENDBRANCH  15  17
ENDBRANCH   1  13
TORSDOF 8
ENDMDL
MODEL 2
REMARK VINA RESULT:      -6.1      1.963      6.668
REMARK  8 active torsions:
REMARK  status: ('A' for Active; 'I' for Inactive)
REMARK    1  A    between atoms: C_2  and  C_3 
REMARK    2  A    between atoms: C_3  and  C_6 
REMARK    3  A    between atoms: C_3  and  N_17 
REMARK    4  A    between atoms: C_12  and  C_23 
REMARK       I    between atoms: C_12  and  N_20 
REMARK    5  A    between atoms: N_14  and  C_19 
REMARK       I    between atoms: N_17  and  C_22 
REMARK    6  A    between atoms: C_18  and  C_19 
REMARK    7  A    between atoms: C_18  and  C_23 
REMARK    8  A    between atoms: C_19  and  C_22 
ROOT
HETATM    1  C           1     -20.457  -4.751  -6.448  0.00  0.00     0.275 C 
ENDROOT
BRANCH   1   2
HETATM    2  N           1     -19.796  -5.543  -7.538  0.00  0.00    -0.066 N 
HETATM    3  H           1     -20.523  -6.045  -8.094  0.00  0.00     0.275 HD
HETATM    4  H           1     -19.139  -6.236  -7.114  0.00  0.00     0.275 HD
HETATM    5  H           1     -19.263  -4.898  -8.164  0.00  0.00     0.275 HD
ENDBRANCH   1   2
BRANCH   1   6
HETATM    6  C           1     -21.343  -3.678  -7.067  0.00  0.00     0.052 C 
BRANCH   6   7
HETATM    7  C           1     -21.496  -3.944  -8.558  0.00  0.00     0.105 C 
BRANCH   7   8
HETATM    8  C           1     -22.952  -3.839  -8.943  0.00  0.00     0.215 C 
HETATM    9  N           1     -23.925  -4.100  -8.016  0.00  0.00    -0.370 N 
HETATM   10  H           1     -24.901  -4.030  -8.274  0.00  0.00     0.159 HD
HETATM   11  H           1     -23.669  -4.365  -7.073  0.00  0.00     0.159 HD
HETATM   12  O           1     -23.258  -3.523 -10.067  0.00  0.00    -0.274 OA
ENDBRANCH   7   8
ENDBRANCH   6   7
ENDBRANCH   1   6
BRANCH   1  13
HETATM   13  C           1     -21.299  -5.672  -5.599  0.00  0.00     0.249 C 
HETATM   14  O           1     -22.504  -5.640  -5.684  0.00  0.00    -0.271 OA
HETATM   15  N           1     -20.697  -6.544  -4.732  0.00  0.00    -0.344 N 
HETATM   16  H           1     -19.689  -6.572  -4.661  0.00  0.00     0.163 HD
BRANCH  15  17
HETATM   17  C           1     -21.506  -7.429  -3.916  0.00  0.00     0.189 C 
BRANCH  17  18
HETATM   18  C           1     -21.637  -6.853  -2.528  0.00  0.00     0.197 C 
HETATM   19  O           1     -20.949  -7.315  -1.592  0.00  0.00    -0.646 OA
HETATM   20  O           1     -22.433  -5.912  -2.314  0.00  0.00    -0.646 OA
ENDBRANCH  17  18
BRANCH  17  21
HETATM   21  C           1     -20.841  -8.796  -3.838  0.00  0.00     0.010 C 
HETATM   22  C           1     -21.881  -9.881  -4.088  0.00  0.00     0.012 C 
HETATM   23  C           1     -19.747  -8.889  -4.894  0.00  0.00     0.012 C 
ENDBRANCH  17  21
ENDBRANCH  15  17
ENDBRANCH   1  13
TORSDOF 8
ENDMDL
MODEL 3
REMARK VINA RESULT:      -6.0      1.582      2.107
REMARK  8 active torsions:
REMARK  status: ('A' for Active; 'I' for Inactive)
REMARK    1  A    between atoms: C_2  and  C_3 
REMARK    2  A    between atoms: C_3  and  C_6 
REMARK    3  A    between atoms: C_3  and  N_17 
REMARK    4  A    between atoms: C_12  and  C_23 
REMARK       I    between atoms: C_12  and  N_20 
REMARK    5  A    between atoms: N_14  and  C_19 
REMARK       I    between atoms: N_17  and  C_22 
REMARK    6  A    between atoms: C_18  and  C_19 
REMARK    7  A    between atoms: C_18  and  C_23 
REMARK    8  A    between atoms: C_19  and  C_22 
ROOT
HETATM    1  C           1     -21.554  -5.255  -6.050  0.00  0.00     0.275 C 
ENDROOT
BRANCH   1   2
HETATM    2  N           1     -22.900  -5.737  -5.595  0.00  0.00    -0.066 N 
HETATM    3  H           1     -23.307  -6.368  -6.320  0.00  0.00     0.275 HD
HETATM    4  H           1     -23.532  -4.917  -5.449  0.00  0.00     0.275 HD
HETATM    5  H           1     -22.797  -6.260  -4.696  0.00  0.00     0.275 HD
ENDBRANCH   1   2
BRANCH   1   6
HETATM    6  C           1     -20.703  -6.447  -6.469  0.00  0.00     0.052 C 
BRANCH   6   7
HETATM    7  C           1     -21.186  -7.695  -5.744  0.00  0.00     0.105 C 
BRANCH   7   8
HETATM    8  C           1     -20.032  -8.327  -5.005  0.00  0.00     0.215 C 
HETATM    9  N           1     -19.030  -8.947  -5.701  0.00  0.00    -0.370 N 
HETATM   10  H           1     -18.256  -9.370  -5.206  0.00  0.00     0.159 HD
HETATM   11  H           1     -19.063  -8.981  -6.713  0.00  0.00     0.159 HD
HETATM   12  O           1     -19.993  -8.286  -3.799  0.00  0.00    -0.274 OA
ENDBRANCH   7   8
ENDBRANCH   6   7
ENDBRANCH   1   6
BRANCH   1  13
HETATM   13  C           1     -21.725  -4.321  -7.222  0.00  0.00     0.249 C 
HETATM   14  O           1     -21.469  -3.146  -7.102  0.00  0.00    -0.271 OA
HETATM   15  N           1     -22.171  -4.804  -8.423  0.00  0.00    -0.344 N 
HETATM   16  H           1     -22.386  -5.788  -8.524  0.00  0.00     0.163 HD
BRANCH  15  17
HETATM   17  C           1     -22.336  -3.907  -9.550  0.00  0.00     0.189 C 
BRANCH  17  18
HETATM   18  C           1     -23.741  -4.029 -10.088  0.00  0.00     0.197 C 
HETATM   19  O           1     -24.398  -3.001 -10.358  0.00  0.00    -0.646 OA
HETATM   20  O           1     -24.247  -5.158 -10.263  0.00  0.00    -0.646 OA
ENDBRANCH  17  18
BRANCH  17  21
HETATM   21  C           1     -21.340  -4.275 -10.641  0.00  0.00     0.010 C 
HETATM   22  C           1     -21.089  -3.063 -11.529  0.00  0.00     0.012 C 
HETATM   23  C           1     -20.030  -4.718 -10.004  0.00  0.00     0.012 C 
ENDBRANCH  17  21
ENDBRANCH  15  17
ENDBRANCH   1  13
TORSDOF 8
ENDMDL
MODEL 4
REMARK VINA RESULT:      -5.8      2.028      6.331
REMARK  8 active torsions:
REMARK  status: ('A' for Active; 'I' for Inactive)
REMARK    1  A    between atoms: C_2  and  C_3 
REMARK    2  A    between atoms: C_3  and  C_6 
REMARK    3  A    between atoms: C_3  and  N_17 
REMARK    4  A    between atoms: C_12  and  C_23 
REMARK       I    between atoms: C_12  and  N_20 
REMARK    5  A    between atoms: N_14  and  C_19 
REMARK       I    between atoms: N_17  and  C_22 
REMARK    6  A    between atoms: C_18  and  C_19 
REMARK    7  A    between atoms: C_18  and  C_23 
REMARK    8  A    between atoms: C_19  and  C_22 
ROOT
HETATM    1  C           1     -20.820  -4.121  -7.659  0.00  0.00     0.275 C 
ENDROOT
BRANCH   1   2
HETATM    2  N           1     -19.892  -4.442  -8.793  0.00  0.00    -0.066 N 
HETATM    3  H           1     -20.031  -5.434  -9.087  0.00  0.00     0.275 HD
HETATM    4  H           1     -18.903  -4.304  -8.484  0.00  0.00     0.275 HD
HETATM    5  H           1     -20.094  -3.808  -9.599  0.00  0.00     0.275 HD
ENDBRANCH   1   2
BRANCH   1   6
HETATM    6  C           1     -22.250  -4.454  -8.063  0.00  0.00     0.052 C 
BRANCH   6   7
HETATM    7  C           1     -22.380  -4.375  -9.578  0.00  0.00     0.105 C 
BRANCH   7   8
HETATM    8  C           1     -23.754  -3.863  -9.940  0.00  0.00     0.215 C 
HETATM    9  N           1     -24.549  -3.299  -8.979  0.00  0.00    -0.370 N 
HETATM   10  H           1     -25.469  -2.956  -9.221  0.00  0.00     0.159 HD
HETATM   11  H           1     -24.216  -3.226  -8.025  0.00  0.00     0.159 HD
HETATM   12  O           1     -24.149  -3.950 -11.077  0.00  0.00    -0.274 OA
ENDBRANCH   7   8
ENDBRANCH   6   7
ENDBRANCH   1   6
BRANCH   1  13
HETATM   13  C           1     -20.435  -4.938  -6.449  0.00  0.00     0.249 C 
HETATM   14  O           1     -19.665  -4.486  -5.635  0.00  0.00    -0.271 OA
HETATM   15  N           1     -20.958  -6.191  -6.275  0.00  0.00    -0.344 N 
HETATM   16  H           1     -21.602  -6.569  -6.957  0.00  0.00     0.163 HD
BRANCH  15  17
HETATM   17  C           1     -20.588  -6.976  -5.114  0.00  0.00     0.189 C 
BRANCH  17  18
HETATM   18  C           1     -20.223  -8.374  -5.547  0.00  0.00     0.197 C 
HETATM   19  O           1     -19.022  -8.707  -5.640  0.00  0.00    -0.646 OA
HETATM   20  O           1     -21.123  -9.201  -5.813  0.00  0.00    -0.646 OA
ENDBRANCH  17  18
BRANCH  17  21
HETATM   21  C           1     -21.762  -7.034  -4.146  0.00  0.00     0.010 C 
HETATM   22  C           1     -21.452  -6.184  -2.921  0.00  0.00     0.012 C 
HETATM   23  C           1     -23.012  -6.499  -4.833  0.00  0.00     0.012 C 
ENDBRANCH  17  21
ENDBRANCH  15  17
ENDBRANCH   1  13
TORSDOF 8
ENDMDL
MODEL 5
REMARK VINA RESULT:      -5.7      3.225      8.025
REMARK  8 active torsions:
REMARK  status: ('A' for Active; 'I' for Inactive)
REMARK    1  A    between atoms: C_2  and  C_3 
REMARK    2  A    between atoms: C_3  and  C_6 
REMARK    3  A    between atoms: C_3  and  N_17 
REMARK    4  A    between atoms: C_12  and  C_23 
REMARK       I    between atoms: C_12  and  N_20 
REMARK    5  A    between atoms: N_14  and  C_19 
REMARK       I    between atoms: N_17  and  C_22 
REMARK    6  A    between atoms: C_18  and  C_19 
REMARK    7  A    between atoms: C_18  and  C_23 
REMARK    8  A    between atoms: C_19  and  C_22 
ROOT
HETATM    1  C           1     -20.416  -7.453  -5.030  0.00  0.00     0.275 C 
ENDROOT
BRANCH   1   2
HETATM    2  N           1     -21.220  -8.257  -6.010  0.00  0.00    -0.066 N 
HETATM    3  H           1     -20.621  -8.510  -6.826  0.00  0.00     0.275 HD
HETATM    4  H           1     -22.036  -7.691  -6.336  0.00  0.00     0.275 HD
HETATM    5  H           1     -21.565  -9.128  -5.547  0.00  0.00     0.275 HD
ENDBRANCH   1   2
BRANCH   1   6
HETATM    6  C           1     -21.079  -6.098  -4.821  0.00  0.00     0.052 C 
BRANCH   6   7
HETATM    7  C           1     -20.330  -5.038  -5.617  0.00  0.00     0.105 C 
BRANCH   7   8
HETATM    8  C           1     -21.061  -4.771  -6.912  0.00  0.00     0.215 C 
HETATM    9  N           1     -21.689  -3.572  -7.108  0.00  0.00    -0.370 N 
HETATM   10  H           1     -22.179  -3.393  -7.975  0.00  0.00     0.159 HD
HETATM   11  H           1     -21.665  -2.863  -6.385  0.00  0.00     0.159 HD
HETATM   12  O           1     -21.089  -5.617  -7.773  0.00  0.00    -0.274 OA
ENDBRANCH   7   8
ENDBRANCH   6   7
ENDBRANCH   1   6
BRANCH   1  13
HETATM   13  C           1     -20.347  -8.189  -3.715  0.00  0.00     0.249 C 
HETATM   14  O           1     -19.312  -8.704  -3.363  0.00  0.00    -0.271 OA
HETATM   15  N           1     -21.458  -8.275  -2.919  0.00  0.00    -0.344 N 
HETATM   16  H           1     -22.325  -7.844  -3.213  0.00  0.00     0.163 HD
BRANCH  15  17
HETATM   17  C           1     -21.392  -8.982  -1.655  0.00  0.00     0.189 C 
BRANCH  17  18
HETATM   18  C           1     -21.917 -10.385  -1.837  0.00  0.00     0.197 C 
HETATM   19  O           1     -23.138 -10.618  -1.704  0.00  0.00    -0.646 OA
HETATM   20  O           1     -21.131 -11.315  -2.120  0.00  0.00    -0.646 OA
ENDBRANCH  17  18
BRANCH  17  21
HETATM   21  C           1     -22.239  -8.252  -0.621  0.00  0.00     0.010 C 
HETATM   22  C           1     -21.600  -8.401   0.753  0.00  0.00     0.012 C 
HETATM   23  C           1     -22.323  -6.776  -0.985  0.00  0.00     0.012 C 
ENDBRANCH  17  21
ENDBRANCH  15  17
ENDBRANCH   1  13
TORSDOF 8
ENDMDL
MODEL 6
REMARK VINA RESULT:      -5.6      2.253      7.010
REMARK  8 active torsions:
REMARK  status: ('A' for Active; 'I' for Inactive)
REMARK    1  A    between atoms: C_2  and  C_3 
REMARK    2  A    between atoms: C_3  and  C_6 
REMARK    3  A    between atoms: C_3  and  N_17 
REMARK    4  A    between atoms: C_12  and  C_23 
REMARK       I    between atoms: C_12  and  N_20 
REMARK    5  A    between atoms: N_14  and  C_19 
REMARK       I    between atoms: N_17  and  C_22 
REMARK    6  A    between atoms: C_18  and  C_19 
REMARK    7  A    between atoms: C_18  and  C_23 
REMARK    8  A    between atoms: C_19  and  C_22 
ROOT
HETATM    1  C           1     -21.323  -5.083  -7.694  0.00  0.00     0.275 C 
ENDROOT
BRANCH   1   2
HETATM    2  N           1     -22.466  -4.208  -7.270  0.00  0.00    -0.066 N 
HETATM    3  H           1     -22.349  -3.257  -7.684  0.00  0.00     0.275 HD
HETATM    4  H           1     -22.482  -4.137  -6.228  0.00  0.00     0.275 HD
HETATM    5  H           1     -23.366  -4.624  -7.603  0.00  0.00     0.275 HD
ENDBRANCH   1   2
BRANCH   1   6
HETATM    6  C           1     -20.311  -4.252  -8.473  0.00  0.00     0.052 C 
BRANCH   6   7
HETATM    7  C           1     -20.361  -4.639  -9.944  0.00  0.00     0.105 C 
BRANCH   7   8
HETATM    8  C           1     -21.205  -3.641 -10.699  0.00  0.00     0.215 C 
HETATM    9  N           1     -20.633  -2.841 -11.651  0.00  0.00    -0.370 N 
HETATM   10  H           1     -21.199  -2.172 -12.157  0.00  0.00     0.159 HD
HETATM   11  H           1     -19.643  -2.917 -11.848  0.00  0.00     0.159 HD
HETATM   12  O           1     -22.386  -3.550 -10.464  0.00  0.00    -0.274 OA
ENDBRANCH   7   8
ENDBRANCH   6   7
ENDBRANCH   1   6
BRANCH   1  13
HETATM   13  C           1     -20.660  -5.670  -6.472  0.00  0.00     0.249 C 
HETATM   14  O           1     -19.813  -5.041  -5.883  0.00  0.00    -0.271 OA
HETATM   15  N           1     -21.018  -6.916  -6.032  0.00  0.00    -0.344 N 
HETATM   16  H           1     -21.727  -7.442  -6.525  0.00  0.00     0.163 HD
BRANCH  15  17
HETATM   17  C           1     -20.381  -7.480  -4.858  0.00  0.00     0.189 C 
BRANCH  17  18
HETATM   18  C           1     -19.805  -8.832  -5.200  0.00  0.00     0.197 C 
HETATM   19  O           1     -20.516  -9.690  -5.765  0.00  0.00    -0.646 OA
HETATM   20  O           1     -18.615  -9.094  -4.918  0.00  0.00    -0.646 OA
ENDBRANCH  17  18
BRANCH  17  21
HETATM   21  C           1     -21.411  -7.633  -3.747  0.00  0.00     0.010 C 
HETATM   22  C           1     -20.829  -8.491  -2.631  0.00  0.00     0.012 C 
HETATM   23  C           1     -21.770  -6.259  -3.196  0.00  0.00     0.012 C 
ENDBRANCH  17  21
ENDBRANCH  15  17
ENDBRANCH   1  13
TORSDOF 8
ENDMDL
MODEL 7
REMARK VINA RESULT:      -5.5      4.002      8.729
REMARK  8 active torsions:
REMARK  status: ('A' for Active; 'I' for Inactive)
REMARK    1  A    between atoms: C_2  and  C_3 
REMARK    2  A    between atoms: C_3  and  C_6 
REMARK    3  A    between atoms: C_3  and  N_17 
REMARK    4  A    between atoms: C_12  and  C_23 
REMARK       I    between atoms: C_12  and  N_20 
REMARK    5  A    between atoms: N_14  and  C_19 
REMARK       I    between atoms: N_17  and  C_22 
REMARK    6  A    between atoms: C_18  and  C_19 
REMARK    7  A    between atoms: C_18  and  C_23 
REMARK    8  A    between atoms: C_19  and  C_22 
ROOT
HETATM    1  C           1     -22.014  -6.545  -3.064  0.00  0.00     0.275 C 
ENDROOT
BRANCH   1   2
HETATM    2  N           1     -22.210  -5.661  -1.867  0.00  0.00    -0.066 N 
HETATM    3  H           1     -23.090  -5.932  -1.375  0.00  0.00     0.275 HD
HETATM    4  H           1     -22.274  -4.665  -2.178  0.00  0.00     0.275 HD
HETATM    5  H           1     -21.399  -5.770  -1.217  0.00  0.00     0.275 HD
ENDBRANCH   1   2
BRANCH   1   6
HETATM    6  C           1     -20.915  -5.968  -3.947  0.00  0.00     0.052 C 
BRANCH   6   7
HETATM    7  C           1     -21.429  -5.833  -5.374  0.00  0.00     0.105 C 
BRANCH   7   8
HETATM    8  C           1     -20.509  -6.575  -6.313  0.00  0.00     0.215 C 
HETATM    9  N           1     -19.854  -7.698  -5.884  0.00  0.00    -0.370 N 
HETATM   10  H           1     -19.236  -8.195  -6.514  0.00  0.00     0.159 HD
HETATM   11  H           1     -19.985  -8.031  -4.937  0.00  0.00     0.159 HD
HETATM   12  O           1     -20.352  -6.178  -7.442  0.00  0.00    -0.274 OA
ENDBRANCH   7   8
ENDBRANCH   6   7
ENDBRANCH   1   6
BRANCH   1  13
HETATM   13  C           1     -21.618  -7.928  -2.606  0.00  0.00     0.249 C 
HETATM   14  O           1     -20.812  -8.567  -3.240  0.00  0.00    -0.271 OA
HETATM   15  N           1     -22.173  -8.458  -1.473  0.00  0.00    -0.344 N 
HETATM   16  H           1     -22.848  -7.924  -0.942  0.00  0.00     0.163 HD
BRANCH  15  17
HETATM   17  C           1     -21.793  -9.787  -1.034  0.00  0.00     0.189 C 
BRANCH  17  18
HETATM   18  C           1     -22.836 -10.781  -1.481  0.00  0.00     0.197 C 
HETATM   19  O           1     -22.730 -11.340  -2.594  0.00  0.00    -0.646 OA
HETATM   20  O           1     -23.805 -11.048  -0.738  0.00  0.00    -0.646 OA
ENDBRANCH  17  18
BRANCH  17  21
HETATM   21  C           1     -21.690  -9.808   0.486  0.00  0.00     0.010 C 
HETATM   22  C           1     -20.533 -10.707   0.903  0.00  0.00     0.012 C 
HETATM   23  C           1     -21.445  -8.395   0.997  0.00  0.00     0.012 C 
ENDBRANCH  17  21
ENDBRANCH  15  17
ENDBRANCH   1  13
TORSDOF 8
ENDMDL
MODEL 8
REMARK VINA RESULT:      -5.4      3.751      8.970
REMARK  8 active torsions:
REMARK  status: ('A' for Active; 'I' for Inactive)
REMARK    1  A    between atoms: C_2  and  C_3 
REMARK    2  A    between atoms: C_3  and  C_6 
REMARK    3  A    between atoms: C_3  and  N_17 
REMARK    4  A    between atoms: C_12  and  C_23 
REMARK       I    between atoms: C_12  and  N_20 
REMARK    5  A    between atoms: N_14  and  C_19 
REMARK       I    between atoms: N_17  and  C_22 
REMARK    6  A    between atoms: C_18  and  C_19 
REMARK    7  A    between atoms: C_18  and  C_23 
REMARK    8  A    between atoms: C_19  and  C_22 
ROOT
HETATM    1  C           1     -20.880  -7.390  -3.396  0.00  0.00     0.275 C 
ENDROOT
BRANCH   1   2
HETATM    2  N           1     -20.575  -8.621  -4.199  0.00  0.00    -0.066 N 
HETATM    3  H           1     -21.419  -9.235  -4.228  0.00  0.00     0.275 HD
HETATM    4  H           1     -19.781  -9.137  -3.757  0.00  0.00     0.275 HD
HETATM    5  H           1     -20.311  -8.345  -5.172  0.00  0.00     0.275 HD
ENDBRANCH   1   2
BRANCH   1   6
HETATM    6  C           1     -21.769  -6.460  -4.211  0.00  0.00     0.052 C 
BRANCH   6   7
HETATM    7  C           1     -20.900  -5.498  -5.010  0.00  0.00     0.105 C 
BRANCH   7   8
HETATM    8  C           1     -21.009  -5.823  -6.480  0.00  0.00     0.215 C 
HETATM    9  N           1     -21.172  -4.816  -7.393  0.00  0.00    -0.370 N 
HETATM   10  H           1     -21.245  -5.033  -8.378  0.00  0.00     0.159 HD
HETATM   11  H           1     -21.219  -3.853  -7.082  0.00  0.00     0.159 HD
HETATM   12  O           1     -20.953  -6.970  -6.850  0.00  0.00    -0.274 OA
ENDBRANCH   7   8
ENDBRANCH   6   7
ENDBRANCH   1   6
BRANCH   1  13
HETATM   13  C           1     -21.594  -7.784  -2.126  0.00  0.00     0.249 C 
HETATM   14  O           1     -22.227  -6.961  -1.508  0.00  0.00    -0.271 OA
HETATM   15  N           1     -21.524  -9.075  -1.674  0.00  0.00    -0.344 N 
HETATM   16  H           1     -20.994  -9.764  -2.191  0.00  0.00     0.163 HD
BRANCH  15  17
HETATM   17  C           1     -22.209  -9.453  -0.453  0.00  0.00     0.189 C 
BRANCH  17  18
HETATM   18  C           1     -21.218  -9.508   0.683  0.00  0.00     0.197 C 
HETATM   19  O           1     -20.554 -10.547   0.884  0.00  0.00    -0.646 OA
HETATM   20  O           1     -21.062  -8.513   1.424  0.00  0.00    -0.646 OA
ENDBRANCH  17  18
BRANCH  17  21
HETATM   21  C           1     -22.850 -10.822  -0.635  0.00  0.00     0.010 C 
HETATM   22  C           1     -24.226 -10.829   0.016  0.00  0.00     0.012 C 
HETATM   23  C           1     -22.990 -11.123  -2.122  0.00  0.00     0.012 C 
ENDBRANCH  17  21
ENDBRANCH  15  17
ENDBRANCH   1  13
TORSDOF 8
ENDMDL
MODEL 9
REMARK VINA RESULT:      -5.4      4.771      8.560
REMARK  8 active torsions:
REMARK  status: ('A' for Active; 'I' for Inactive)
REMARK    1  A    between atoms: C_2  and  C_3 
REMARK    2  A    between atoms: C_3  and  C_6 
REMARK    3  A    between atoms: C_3  and  N_17 
REMARK    4  A    between atoms: C_12  and  C_23 
REMARK       I    between atoms: C_12  and  N_20 
REMARK    5  A    between atoms: N_14  and  C_19 
REMARK       I    between atoms: N_17  and  C_22 
REMARK    6  A    between atoms: C_18  and  C_19 
REMARK    7  A    between atoms: C_18  and  C_23 
REMARK    8  A    between atoms: C_19  and  C_22 
ROOT
HETATM    1  C           1     -20.453  -9.530  -4.221  0.00  0.00     0.275 C 
ENDROOT
BRANCH   1   2
HETATM    2  N           1     -21.001  -9.994  -5.538  0.00  0.00    -0.066 N 
HETATM    3  H           1     -22.033  -9.832  -5.563  0.00  0.00     0.275 HD
HETATM    4  H           1     -20.805 -11.014  -5.657  0.00  0.00     0.275 HD
HETATM    5  H           1     -20.546  -9.461  -6.313  0.00  0.00     0.275 HD
ENDBRANCH   1   2
BRANCH   1   6
HETATM    6  C           1     -20.044  -8.067  -4.329  0.00  0.00     0.052 C 
BRANCH   6   7
HETATM    7  C           1     -20.945  -7.360  -5.332  0.00  0.00     0.105 C 
BRANCH   7   8
HETATM    8  C           1     -21.896  -6.446  -4.599  0.00  0.00     0.215 C 
HETATM    9  N           1     -21.558  -5.952  -3.368  0.00  0.00    -0.370 N 
HETATM   10  H           1     -22.196  -5.339  -2.877  0.00  0.00     0.159 HD
HETATM   11  H           1     -20.671  -6.200  -2.949  0.00  0.00     0.159 HD
HETATM   12  O           1     -22.954  -6.150  -5.099  0.00  0.00    -0.274 OA
ENDBRANCH   7   8
ENDBRANCH   6   7
ENDBRANCH   1   6
BRANCH   1  13
HETATM   13  C           1     -21.512  -9.680  -3.156  0.00  0.00     0.249 C 
HETATM   14  O           1     -22.525 -10.294  -3.393  0.00  0.00    -0.271 OA
HETATM   15  N           1     -21.325  -9.119  -1.921  0.00  0.00    -0.344 N 
HETATM   16  H           1     -20.477  -8.605  -1.723  0.00  0.00     0.163 HD
BRANCH  15  17
HETATM   17  C           1     -22.342  -9.263  -0.898  0.00  0.00     0.189 C 
BRANCH  17  18
HETATM   18  C           1     -22.517  -7.950  -0.176  0.00  0.00     0.197 C 
HETATM   19  O           1     -22.737  -6.904  -0.823  0.00  0.00    -0.646 OA
HETATM   20  O           1     -22.442  -7.908   1.072  0.00  0.00    -0.646 OA
ENDBRANCH  17  18
BRANCH  17  21
HETATM   21  C           1     -21.915 -10.336   0.094  0.00  0.00     0.010 C 
HETATM   22  C           1     -22.768 -11.582  -0.109  0.00  0.00     0.012 C 
HETATM   23  C           1     -20.449 -10.681  -0.132  0.00  0.00     0.012 C 
ENDBRANCH  17  21
ENDBRANCH  15  17
ENDBRANCH   1  13
TORSDOF 8
ENDMDL
