MODEL 1
REMARK VINA RESULT:      -6.5      0.000      0.000
REMARK  15 active torsions:
REMARK  status: ('A' for Active; 'I' for Inactive)
REMARK    1  A    between atoms: C_1  and  C_2 
REMARK    2  A    between atoms: C_1  and  C_20 
REMARK    3  A    between atoms: C_1  and  N_32 
REMARK       I    between atoms: C_2  and  N_3 
REMARK    4  A    between atoms: N_3  and  C_12 
REMARK    5  A    between atoms: C_6  and  C_7 
REMARK    6  A    between atoms: C_7  and  C_8 
REMARK    7  A    between atoms: C_7  and  N_17 
REMARK    8  A    between atoms: C_8  and  O_29 
REMARK       I    between atoms: C_9  and  N_10 
REMARK       I    between atoms: C_9  and  N_30 
REMARK    9  A    between atoms: N_10  and  C_18 
REMARK   10  A    between atoms: C_11  and  C_12 
REMARK   11  A    between atoms: C_12  and  C_13 
REMARK   12  A    between atoms: C_13  and  C_14 
REMARK   13  A    between atoms: C_14  and  N_17 
REMARK   14  A    between atoms: C_18  and  C_19 
REMARK   15  A    between atoms: C_19  and  C_20 
ROOT
HETATM    1  C           1     -21.573  -6.579  -4.361  0.00  0.00     0.249 C 
HETATM    2  N           1     -21.171  -5.500  -5.101  0.00  0.00    -0.345 N 
HETATM    3  O           1     -22.136  -7.503  -4.897  0.00  0.00    -0.271 OA
HETATM    4  H           1     -20.699  -4.725  -4.653  0.00  0.00     0.163 HD
ENDROOT
BRANCH   1   5
HETATM    5  C           1     -21.314  -6.612  -2.874  0.00  0.00     0.274 C 
BRANCH   5   6
HETATM    6  C           1     -21.392  -8.050  -2.377  0.00  0.00     0.044 C 
BRANCH   6   7
HETATM    7  C           1     -19.987  -8.571  -2.105  0.00  0.00     0.023 C 
BRANCH   7   8
HETATM    8  C           1     -19.730  -9.808  -2.956  0.00  0.00     0.138 C 
BRANCH   8   9
HETATM    9  N           1     -18.772  -9.481  -4.020  0.00  0.00    -0.227 N 
HETATM   10  C           1     -19.129  -9.536  -5.234  0.00  0.00     0.665 C 
HETATM   11  N           1     -18.305  -9.256  -6.151  0.00  0.00    -0.235 N 
HETATM   12  N           1     -20.346  -9.884  -5.537  0.00  0.00    -0.235 N 
HETATM   13  H           1     -17.323  -8.975  -5.906  0.00  0.00     0.174 HD
HETATM   14  H           1     -18.602  -9.302  -7.157  0.00  0.00     0.174 HD
HETATM   15  H           1     -21.027 -10.115  -4.779  0.00  0.00     0.174 HD
HETATM   16  H           1     -20.642  -9.930  -6.537  0.00  0.00     0.174 HD
HETATM   17  H           1     -17.789  -9.200  -3.776  0.00  0.00     0.177 HD
ENDBRANCH   8   9
ENDBRANCH   7   8
ENDBRANCH   6   7
ENDBRANCH   5   6
BRANCH   5  18
HETATM   18  N           1     -22.345  -5.782  -2.169  0.00  0.00    -0.067 N 
HETATM   19  H           1     -22.709  -5.050  -2.820  0.00  0.00     0.275 HD
HETATM   20  H           1     -21.911  -5.324  -1.336  0.00  0.00     0.275 HD
HETATM   21  H           1     -23.132  -6.395  -1.859  0.00  0.00     0.275 HD
ENDBRANCH   5  18
ENDBRANCH   1   5
BRANCH   2  22
HETATM   22  C           1     -21.420  -5.468  -6.529  0.00  0.00     0.187 C 
BRANCH  22  23
HETATM   23  C           1     -20.117  -5.637  -7.271  0.00  0.00     0.196 C 
HETATM   24  O           1     -19.462  -6.694  -7.151  0.00  0.00    -0.646 OA
HETATM   25  O           1     -19.693  -4.719  -8.006  0.00  0.00    -0.646 OA
ENDBRANCH  22  23
BRANCH  22  26
HETATM   26  C           1     -22.050  -4.132  -6.905  0.00  0.00     0.066 C 
BRANCH  26  27
HETATM   27  C           1     -23.073  -4.346  -8.012  0.00  0.00     0.273 C 
BRANCH  27  28
HETATM   28  N           1     -22.732  -3.529  -9.146  0.00  0.00     0.100 N 
HETATM   29  H           1     -21.944  -2.928  -8.906  0.00  0.00     0.317 HD
BRANCH  28  30
HETATM   30  C           1     -22.356  -4.408 -10.220  0.00  0.00     0.343 C 
BRANCH  30  31
HETATM   31  C           1     -21.374  -3.704 -11.124  0.00  0.00     0.209 C 
HETATM   32  O           1     -21.664  -2.593 -11.618  0.00  0.00    -0.646 OA
HETATM   33  O           1     -20.270  -4.233 -11.378  0.00  0.00    -0.646 OA
ENDBRANCH  30  31
BRANCH  30  34
HETATM   34  C           1     -23.596  -4.792 -11.017  0.00  0.00     0.211 C 
BRANCH  34  35
HETATM   35  O           1     -23.278  -4.842 -12.382  0.00  0.00    -0.398 OA
HETATM   36  H           1     -23.108  -3.957 -12.656  0.00  0.00     0.209 HD
ENDBRANCH  34  35
ENDBRANCH  30  34
ENDBRANCH  28  30
ENDBRANCH  27  28
ENDBRANCH  26  27
ENDBRANCH  22  26
ENDBRANCH   2  22
TORSDOF 15
ENDMDL
MODEL 2
REMARK VINA RESULT:      -6.2      2.181      2.909
REMARK  15 active torsions:
REMARK  status: ('A' for Active; 'I' for Inactive)
REMARK    1  A    between atoms: C_1  and  C_2 
REMARK    2  A    between atoms: C_1  and  C_20 
REMARK    3  A    between atoms: C_1  and  N_32 
REMARK       I    between atoms: C_2  and  N_3 
REMARK    4  A    between atoms: N_3  and  C_12 
REMARK    5  A    between atoms: C_6  and  C_7 
REMARK    6  A    between atoms: C_7  and  C_8 
REMARK    7  A    between atoms: C_7  and  N_17 
REMARK    8  A    between atoms: C_8  and  O_29 
REMARK       I    between atoms: C_9  and  N_10 
REMARK       I    between atoms: C_9  and  N_30 
REMARK    9  A    between atoms: N_10  and  C_18 
REMARK   10  A    between atoms: C_11  and  C_12 
REMARK   11  A    between atoms: C_12  and  C_13 
REMARK   12  A    between atoms: C_13  and  C_14 
REMARK   13  A    between atoms: C_14  and  N_17 
REMARK   14  A    between atoms: C_18  and  C_19 
REMARK   15  A    between atoms: C_19  and  C_20 
ROOT
HETATM    1  C           1     -21.523  -6.593  -4.188  0.00  0.00     0.249 C 
HETATM    2  N           1     -21.135  -5.522  -4.947  0.00  0.00    -0.345 N 
HETATM    3  O           1     -22.036  -7.552  -4.715  0.00  0.00    -0.271 OA
HETATM    4  H           1     -20.704  -4.719  -4.507  0.00  0.00     0.163 HD
ENDROOT
BRANCH   1   5
HETATM    5  C           1     -21.311  -6.575  -2.694  0.00  0.00     0.274 C 
BRANCH   5   6
HETATM    6  C           1     -21.536  -7.973  -2.133  0.00  0.00     0.044 C 
BRANCH   6   7
HETATM    7  C           1     -22.274  -7.874  -0.804  0.00  0.00     0.023 C 
BRANCH   7   8
HETATM    8  C           1     -22.305  -9.243  -0.136  0.00  0.00     0.138 C 
BRANCH   8   9
HETATM    9  N           1     -20.938  -9.771  -0.036  0.00  0.00    -0.227 N 
HETATM   10  C           1     -20.749 -10.995   0.228  0.00  0.00     0.665 C 
HETATM   11  N           1     -19.571 -11.450   0.316  0.00  0.00    -0.235 N 
HETATM   12  N           1     -21.766 -11.784   0.410  0.00  0.00    -0.235 N 
HETATM   13  H           1     -18.750 -10.812   0.169  0.00  0.00     0.174 HD
HETATM   14  H           1     -19.415 -12.465   0.534  0.00  0.00     0.174 HD
HETATM   15  H           1     -22.739 -11.408   0.337  0.00  0.00     0.174 HD
HETATM   16  H           1     -21.611 -12.794   0.627  0.00  0.00     0.174 HD
HETATM   17  H           1     -20.116  -9.133  -0.182  0.00  0.00     0.177 HD
ENDBRANCH   8   9
ENDBRANCH   7   8
ENDBRANCH   6   7
ENDBRANCH   5   6
BRANCH   5  18
HETATM   18  N           1     -22.280  -5.621  -2.063  0.00  0.00    -0.067 N 
HETATM   19  H           1     -23.242  -5.810  -2.426  0.00  0.00     0.275 HD
HETATM   20  H           1     -22.005  -4.641  -2.298  0.00  0.00     0.275 HD
HETATM   21  H           1     -22.268  -5.748  -1.026  0.00  0.00     0.275 HD
ENDBRANCH   5  18
ENDBRANCH   1   5
BRANCH   2  22
HETATM   22  C           1     -21.339  -5.539  -6.383  0.00  0.00     0.187 C 
BRANCH  22  23
HETATM   23  C           1     -20.037  -5.865  -7.072  0.00  0.00     0.196 C 
HETATM   24  O           1     -19.503  -5.025  -7.829  0.00  0.00    -0.646 OA
HETATM   25  O           1     -19.492  -6.974  -6.886  0.00  0.00    -0.646 OA
ENDBRANCH  22  23
BRANCH  22  26
HETATM   26  C           1     -21.829  -4.171  -6.842  0.00  0.00     0.066 C 
BRANCH  26  27
HETATM   27  C           1     -22.982  -4.347  -7.821  0.00  0.00     0.273 C 
BRANCH  27  28
HETATM   28  N           1     -22.460  -4.651  -9.127  0.00  0.00     0.100 N 
HETATM   29  H           1     -21.985  -5.553  -9.101  0.00  0.00     0.317 HD
BRANCH  28  30
HETATM   30  C           1     -23.572  -4.720 -10.036  0.00  0.00     0.343 C 
BRANCH  30  31
HETATM   31  C           1     -23.090  -4.450 -11.440  0.00  0.00     0.209 C 
HETATM   32  O           1     -22.071  -3.749 -11.627  0.00  0.00    -0.646 OA
HETATM   33  O           1     -23.709  -4.927 -12.416  0.00  0.00    -0.646 OA
ENDBRANCH  30  31
BRANCH  30  34
HETATM   34  C           1     -24.611  -3.677  -9.646  0.00  0.00     0.211 C 
BRANCH  34  35
HETATM   35  O           1     -25.154  -3.102 -10.803  0.00  0.00    -0.398 OA
HETATM   36  H           1     -24.524  -2.478 -11.121  0.00  0.00     0.209 HD
ENDBRANCH  34  35
ENDBRANCH  30  34
ENDBRANCH  28  30
ENDBRANCH  27  28
ENDBRANCH  26  27
ENDBRANCH  22  26
ENDBRANCH   2  22
TORSDOF 15
ENDMDL
MODEL 3
REMARK VINA RESULT:      -6.0      3.131      7.415
REMARK  15 active torsions:
REMARK  status: ('A' for Active; 'I' for Inactive)
REMARK    1  A    between atoms: C_1  and  C_2 
REMARK    2  A    between atoms: C_1  and  C_20 
REMARK    3  A    between atoms: C_1  and  N_32 
REMARK       I    between atoms: C_2  and  N_3 
REMARK    4  A    between atoms: N_3  and  C_12 
REMARK    5  A    between atoms: C_6  and  C_7 
REMARK    6  A    between atoms: C_7  and  C_8 
REMARK    7  A    between atoms: C_7  and  N_17 
REMARK    8  A    between atoms: C_8  and  O_29 
REMARK       I    between atoms: C_9  and  N_10 
REMARK       I    between atoms: C_9  and  N_30 
REMARK    9  A    between atoms: N_10  and  C_18 
REMARK   10  A    between atoms: C_11  and  C_12 
REMARK   11  A    between atoms: C_12  and  C_13 
REMARK   12  A    between atoms: C_13  and  C_14 
REMARK   13  A    between atoms: C_14  and  N_17 
REMARK   14  A    between atoms: C_18  and  C_19 
REMARK   15  A    between atoms: C_19  and  C_20 
ROOT
HETATM    1  C           1     -21.151  -6.774  -5.092  0.00  0.00     0.249 C 
HETATM    2  N           1     -20.864  -6.612  -3.764  0.00  0.00    -0.345 N 
HETATM    3  O           1     -21.731  -7.764  -5.468  0.00  0.00    -0.271 OA
HETATM    4  H           1     -20.378  -5.782  -3.448  0.00  0.00     0.163 HD
ENDROOT
BRANCH   1   5
HETATM    5  C           1     -20.743  -5.715  -6.086  0.00  0.00     0.274 C 
BRANCH   5   6
HETATM    6  C           1     -21.987  -5.049  -6.659  0.00  0.00     0.044 C 
BRANCH   6   7
HETATM    7  C           1     -21.584  -3.802  -7.437  0.00  0.00     0.023 C 
BRANCH   7   8
HETATM    8  C           1     -22.186  -3.861  -8.836  0.00  0.00     0.138 C 
BRANCH   8   9
HETATM    9  N           1     -23.618  -3.541  -8.767  0.00  0.00    -0.227 N 
HETATM   10  C           1     -24.379  -3.832  -9.737  0.00  0.00     0.665 C 
HETATM   11  N           1     -25.613  -3.556  -9.680  0.00  0.00    -0.235 N 
HETATM   12  N           1     -23.891  -4.413 -10.794  0.00  0.00    -0.235 N 
HETATM   13  H           1     -26.006  -3.086  -8.826  0.00  0.00     0.174 HD
HETATM   14  H           1     -26.243  -3.797 -10.483  0.00  0.00     0.174 HD
HETATM   15  H           1     -22.872  -4.641 -10.841  0.00  0.00     0.174 HD
HETATM   16  H           1     -24.518  -4.653 -11.594  0.00  0.00     0.174 HD
HETATM   17  H           1     -24.012  -3.071  -7.914  0.00  0.00     0.177 HD
ENDBRANCH   8   9
ENDBRANCH   7   8
ENDBRANCH   6   7
ENDBRANCH   5   6
BRANCH   5  18
HETATM   18  N           1     -19.959  -6.348  -7.197  0.00  0.00    -0.067 N 
HETATM   19  H           1     -19.469  -7.198  -6.837  0.00  0.00     0.275 HD
HETATM   20  H           1     -19.255  -5.666  -7.558  0.00  0.00     0.275 HD
HETATM   21  H           1     -20.608  -6.620  -7.969  0.00  0.00     0.275 HD
ENDBRANCH   5  18
ENDBRANCH   1   5
BRANCH   2  22
HETATM   22  C           1     -21.256  -7.629  -2.808  0.00  0.00     0.187 C 
BRANCH  22  23
HETATM   23  C           1     -22.055  -6.995  -1.697  0.00  0.00     0.196 C 
HETATM   24  O           1     -22.584  -5.875  -1.868  0.00  0.00    -0.646 OA
HETATM   25  O           1     -22.189  -7.589  -0.605  0.00  0.00    -0.646 OA
ENDBRANCH  22  23
BRANCH  22  26
HETATM   26  C           1     -20.010  -8.287  -2.227  0.00  0.00     0.066 C 
BRANCH  26  27
HETATM   27  C           1     -20.020  -9.774  -2.555  0.00  0.00     0.273 C 
BRANCH  27  28
HETATM   28  N           1     -20.489  -9.965  -3.902  0.00  0.00     0.100 N 
HETATM   29  H           1     -20.622  -9.057  -4.347  0.00  0.00     0.317 HD
BRANCH  28  30
HETATM   30  C           1     -19.482 -10.704  -4.614  0.00  0.00     0.343 C 
BRANCH  30  31
HETATM   31  C           1     -18.425  -9.754  -5.121  0.00  0.00     0.209 C 
HETATM   32  O           1     -17.292  -9.738  -4.591  0.00  0.00    -0.646 OA
HETATM   33  O           1     -18.682  -8.983  -6.071  0.00  0.00    -0.646 OA
ENDBRANCH  30  31
BRANCH  30  34
HETATM   34  C           1     -20.122 -11.427  -5.792  0.00  0.00     0.211 C 
BRANCH  34  35
HETATM   35  O           1     -21.114 -10.612  -6.357  0.00  0.00    -0.398 OA
HETATM   36  H           1     -21.943 -10.936  -6.048  0.00  0.00     0.209 HD
ENDBRANCH  34  35
ENDBRANCH  30  34
ENDBRANCH  28  30
ENDBRANCH  27  28
ENDBRANCH  26  27
ENDBRANCH  22  26
ENDBRANCH   2  22
TORSDOF 15
ENDMDL
MODEL 4
REMARK VINA RESULT:      -5.9      2.890      8.009
REMARK  15 active torsions:
REMARK  status: ('A' for Active; 'I' for Inactive)
REMARK    1  A    between atoms: C_1  and  C_2 
REMARK    2  A    between atoms: C_1  and  C_20 
REMARK    3  A    between atoms: C_1  and  N_32 
REMARK       I    between atoms: C_2  and  N_3 
REMARK    4  A    between atoms: N_3  and  C_12 
REMARK    5  A    between atoms: C_6  and  C_7 
REMARK    6  A    between atoms: C_7  and  C_8 
REMARK    7  A    between atoms: C_7  and  N_17 
REMARK    8  A    between atoms: C_8  and  O_29 
REMARK       I    between atoms: C_9  and  N_10 
REMARK       I    between atoms: C_9  and  N_30 
REMARK    9  A    between atoms: N_10  and  C_18 
REMARK   10  A    between atoms: C_11  and  C_12 
REMARK   11  A    between atoms: C_12  and  C_13 
REMARK   12  A    between atoms: C_13  and  C_14 
REMARK   13  A    between atoms: C_14  and  N_17 
REMARK   14  A    between atoms: C_18  and  C_19 
REMARK   15  A    between atoms: C_19  and  C_20 
ROOT
HETATM    1  C           1     -20.481  -6.816  -6.006  0.00  0.00     0.249 C 
HETATM    2  N           1     -20.631  -7.749  -5.017  0.00  0.00    -0.345 N 
HETATM    3  O           1     -19.478  -6.806  -6.680  0.00  0.00    -0.271 OA
HETATM    4  H           1     -21.471  -7.758  -4.452  0.00  0.00     0.163 HD
ENDROOT
BRANCH   1   5
HETATM    5  C           1     -21.566  -5.797  -6.253  0.00  0.00     0.274 C 
BRANCH   5   6
HETATM    6  C           1     -20.958  -4.401  -6.270  0.00  0.00     0.044 C 
BRANCH   6   7
HETATM    7  C           1     -21.536  -3.609  -7.437  0.00  0.00     0.023 C 
BRANCH   7   8
HETATM    8  C           1     -22.396  -4.526  -8.297  0.00  0.00     0.138 C 
BRANCH   8   9
HETATM    9  N           1     -23.740  -3.949  -8.437  0.00  0.00    -0.227 N 
HETATM   10  C           1     -24.341  -4.004  -9.550  0.00  0.00     0.665 C 
HETATM   11  N           1     -25.498  -3.507  -9.672  0.00  0.00    -0.235 N 
HETATM   12  N           1     -23.767  -4.572 -10.570  0.00  0.00    -0.235 N 
HETATM   13  H           1     -25.961  -3.048  -8.848  0.00  0.00     0.174 HD
HETATM   14  H           1     -25.996  -3.553 -10.595  0.00  0.00     0.174 HD
HETATM   15  H           1     -22.811  -4.983 -10.469  0.00  0.00     0.174 HD
HETATM   16  H           1     -24.261  -4.618 -11.489  0.00  0.00     0.174 HD
HETATM   17  H           1     -24.204  -3.490  -7.613  0.00  0.00     0.177 HD
ENDBRANCH   8   9
ENDBRANCH   7   8
ENDBRANCH   6   7
ENDBRANCH   5   6
BRANCH   5  18
HETATM   18  N           1     -22.591  -5.883  -5.161  0.00  0.00    -0.067 N 
HETATM   19  H           1     -22.399  -5.146  -4.445  0.00  0.00     0.275 HD
HETATM   20  H           1     -22.543  -6.826  -4.714  0.00  0.00     0.275 HD
HETATM   21  H           1     -23.543  -5.737  -5.565  0.00  0.00     0.275 HD
ENDBRANCH   5  18
ENDBRANCH   1   5
BRANCH   2  22
HETATM   22  C           1     -19.588  -8.728  -4.779  0.00  0.00     0.187 C 
BRANCH  22  23
HETATM   23  C           1     -19.965 -10.034  -5.432  0.00  0.00     0.196 C 
HETATM   24  O           1     -19.185 -11.009  -5.378  0.00  0.00    -0.646 OA
HETATM   25  O           1     -21.059 -10.142  -6.027  0.00  0.00    -0.646 OA
ENDBRANCH  22  23
BRANCH  22  26
HETATM   26  C           1     -19.423  -8.938  -3.278  0.00  0.00     0.066 C 
BRANCH  26  27
HETATM   27  C           1     -20.794  -9.060  -2.628  0.00  0.00     0.273 C 
BRANCH  27  28
HETATM   28  N           1     -20.669  -8.881  -1.206  0.00  0.00     0.100 N 
HETATM   29  H           1     -19.682  -8.841  -0.955  0.00  0.00     0.317 HD
BRANCH  28  30
HETATM   30  C           1     -21.301  -7.635  -0.865  0.00  0.00     0.343 C 
BRANCH  30  31
HETATM   31  C           1     -22.157  -7.826   0.363  0.00  0.00     0.209 C 
HETATM   32  O           1     -21.636  -8.206   1.435  0.00  0.00    -0.646 OA
HETATM   33  O           1     -23.386  -7.605   0.309  0.00  0.00    -0.646 OA
ENDBRANCH  30  31
BRANCH  30  34
HETATM   34  C           1     -22.174  -7.176  -2.026  0.00  0.00     0.211 C 
BRANCH  34  35
HETATM   35  O           1     -22.498  -5.822  -1.860  0.00  0.00    -0.398 OA
HETATM   36  H           1     -23.431  -5.776  -1.741  0.00  0.00     0.209 HD
ENDBRANCH  34  35
ENDBRANCH  30  34
ENDBRANCH  28  30
ENDBRANCH  27  28
ENDBRANCH  26  27
ENDBRANCH  22  26
ENDBRANCH   2  22
TORSDOF 15
ENDMDL
MODEL 5
REMARK VINA RESULT:      -5.7      2.124      3.272
REMARK  15 active torsions:
REMARK  status: ('A' for Active; 'I' for Inactive)
REMARK    1  A    between atoms: C_1  and  C_2 
REMARK    2  A    between atoms: C_1  and  C_20 
REMARK    3  A    between atoms: C_1  and  N_32 
REMARK       I    between atoms: C_2  and  N_3 
REMARK    4  A    between atoms: N_3  and  C_12 
REMARK    5  A    between atoms: C_6  and  C_7 
REMARK    6  A    between atoms: C_7  and  C_8 
REMARK    7  A    between atoms: C_7  and  N_17 
REMARK    8  A    between atoms: C_8  and  O_29 
REMARK       I    between atoms: C_9  and  N_10 
REMARK       I    between atoms: C_9  and  N_30 
REMARK    9  A    between atoms: N_10  and  C_18 
REMARK   10  A    between atoms: C_11  and  C_12 
REMARK   11  A    between atoms: C_12  and  C_13 
REMARK   12  A    between atoms: C_13  and  C_14 
REMARK   13  A    between atoms: C_14  and  N_17 
REMARK   14  A    between atoms: C_18  and  C_19 
REMARK   15  A    between atoms: C_19  and  C_20 
ROOT
HETATM    1  C           1     -21.456  -7.311  -4.991  0.00  0.00     0.249 C 
HETATM    2  N           1     -21.616  -5.974  -5.233  0.00  0.00    -0.345 N 
HETATM    3  O           1     -21.180  -8.060  -5.898  0.00  0.00    -0.271 OA
HETATM    4  H           1     -21.847  -5.345  -4.474  0.00  0.00     0.163 HD
ENDROOT
BRANCH   1   5
HETATM    5  C           1     -21.624  -7.850  -3.591  0.00  0.00     0.274 C 
BRANCH   5   6
HETATM    6  C           1     -21.226  -6.779  -2.584  0.00  0.00     0.044 C 
BRANCH   6   7
HETATM    7  C           1     -22.322  -6.634  -1.535  0.00  0.00     0.023 C 
BRANCH   7   8
HETATM    8  C           1     -21.990  -7.504  -0.330  0.00  0.00     0.138 C 
BRANCH   8   9
HETATM    9  N           1     -22.824  -8.714  -0.353  0.00  0.00    -0.227 N 
HETATM   10  C           1     -22.307  -9.845  -0.114  0.00  0.00     0.665 C 
HETATM   11  N           1     -23.025 -10.887  -0.134  0.00  0.00    -0.235 N 
HETATM   12  N           1     -21.037  -9.935   0.151  0.00  0.00    -0.235 N 
HETATM   13  H           1     -24.050 -10.813  -0.349  0.00  0.00     0.174 HD
HETATM   14  H           1     -22.596 -11.824   0.063  0.00  0.00     0.174 HD
HETATM   15  H           1     -20.444  -9.074   0.168  0.00  0.00     0.174 HD
HETATM   16  H           1     -20.610 -10.868   0.348  0.00  0.00     0.174 HD
HETATM   17  H           1     -23.850  -8.641  -0.567  0.00  0.00     0.177 HD
ENDBRANCH   8   9
ENDBRANCH   7   8
ENDBRANCH   6   7
ENDBRANCH   5   6
BRANCH   5  18
HETATM   18  N           1     -20.750  -9.055  -3.411  0.00  0.00    -0.067 N 
HETATM   19  H           1     -20.793  -9.371  -2.416  0.00  0.00     0.275 HD
HETATM   20  H           1     -19.766  -8.810  -3.658  0.00  0.00     0.275 HD
HETATM   21  H           1     -21.085  -9.824  -4.035  0.00  0.00     0.275 HD
ENDBRANCH   5  18
ENDBRANCH   1   5
BRANCH   2  22
HETATM   22  C           1     -21.454  -5.456  -6.578  0.00  0.00     0.187 C 
BRANCH  22  23
HETATM   23  C           1     -20.215  -4.599  -6.641  0.00  0.00     0.196 C 
HETATM   24  O           1     -19.483  -4.482  -5.634  0.00  0.00    -0.646 OA
HETATM   25  O           1     -19.919  -4.005  -7.700  0.00  0.00    -0.646 OA
ENDBRANCH  22  23
BRANCH  22  26
HETATM   26  C           1     -22.672  -4.618  -6.949  0.00  0.00     0.066 C 
BRANCH  26  27
HETATM   27  C           1     -22.861  -4.638  -8.460  0.00  0.00     0.273 C 
BRANCH  27  28
HETATM   28  N           1     -22.852  -3.291  -8.963  0.00  0.00     0.100 N 
HETATM   29  H           1     -22.087  -2.772  -8.531  0.00  0.00     0.317 HD
BRANCH  28  30
HETATM   30  C           1     -22.644  -3.357 -10.385  0.00  0.00     0.343 C 
BRANCH  30  31
HETATM   31  C           1     -23.907  -3.840 -11.055  0.00  0.00     0.209 C 
HETATM   32  O           1     -25.000  -3.291 -10.796  0.00  0.00    -0.646 OA
HETATM   33  O           1     -23.859  -4.787 -11.868  0.00  0.00    -0.646 OA
ENDBRANCH  30  31
BRANCH  30  34
HETATM   34  C           1     -21.507  -4.325 -10.686  0.00  0.00     0.211 C 
BRANCH  34  35
HETATM   35  O           1     -20.577  -3.705 -11.533  0.00  0.00    -0.398 OA
HETATM   36  H           1     -20.486  -4.258 -12.290  0.00  0.00     0.209 HD
ENDBRANCH  34  35
ENDBRANCH  30  34
ENDBRANCH  28  30
ENDBRANCH  27  28
ENDBRANCH  26  27
ENDBRANCH  22  26
ENDBRANCH   2  22
TORSDOF 15
ENDMDL
MODEL 6
REMARK VINA RESULT:      -5.7      3.432      8.890
REMARK  15 active torsions:
REMARK  status: ('A' for Active; 'I' for Inactive)
REMARK    1  A    between atoms: C_1  and  C_2 
REMARK    2  A    between atoms: C_1  and  C_20 
REMARK    3  A    between atoms: C_1  and  N_32 
REMARK       I    between atoms: C_2  and  N_3 
REMARK    4  A    between atoms: N_3  and  C_12 
REMARK    5  A    between atoms: C_6  and  C_7 
REMARK    6  A    between atoms: C_7  and  C_8 
REMARK    7  A    between atoms: C_7  and  N_17 
REMARK    8  A    between atoms: C_8  and  O_29 
REMARK       I    between atoms: C_9  and  N_10 
REMARK       I    between atoms: C_9  and  N_30 
REMARK    9  A    between atoms: N_10  and  C_18 
REMARK   10  A    between atoms: C_11  and  C_12 
REMARK   11  A    between atoms: C_12  and  C_13 
REMARK   12  A    between atoms: C_13  and  C_14 
REMARK   13  A    between atoms: C_14  and  N_17 
REMARK   14  A    between atoms: C_18  and  C_19 
REMARK   15  A    between atoms: C_19  and  C_20 
ROOT
HETATM    1  C           1     -21.239  -6.797  -4.902  0.00  0.00     0.249 C 
HETATM    2  N           1     -21.050  -6.531  -3.573  0.00  0.00    -0.345 N 
HETATM    3  O           1     -21.774  -7.825  -5.242  0.00  0.00    -0.271 OA
HETATM    4  H           1     -20.602  -5.669  -3.287  0.00  0.00     0.163 HD
ENDROOT
BRANCH   1   5
HETATM    5  C           1     -20.779  -5.805  -5.942  0.00  0.00     0.274 C 
BRANCH   5   6
HETATM    6  C           1     -21.991  -5.203  -6.641  0.00  0.00     0.044 C 
BRANCH   6   7
HETATM    7  C           1     -21.608  -3.864  -7.259  0.00  0.00     0.023 C 
BRANCH   7   8
HETATM    8  C           1     -22.077  -3.820  -8.708  0.00  0.00     0.138 C 
BRANCH   8   9
HETATM    9  N           1     -23.491  -3.424  -8.753  0.00  0.00    -0.227 N 
HETATM   10  C           1     -24.264  -3.932  -9.618  0.00  0.00     0.665 C 
HETATM   11  N           1     -25.482  -3.591  -9.659  0.00  0.00    -0.235 N 
HETATM   12  N           1     -23.805  -4.805 -10.466  0.00  0.00    -0.235 N 
HETATM   13  H           1     -25.852  -2.886  -8.973  0.00  0.00     0.174 HD
HETATM   14  H           1     -26.122  -4.013 -10.376  0.00  0.00     0.174 HD
HETATM   15  H           1     -22.799  -5.086 -10.433  0.00  0.00     0.174 HD
HETATM   16  H           1     -24.442  -5.224 -11.180  0.00  0.00     0.174 HD
HETATM   17  H           1     -23.863  -2.719  -8.068  0.00  0.00     0.177 HD
ENDBRANCH   8   9
ENDBRANCH   7   8
ENDBRANCH   6   7
ENDBRANCH   5   6
BRANCH   5  18
HETATM   18  N           1     -19.916  -6.503  -6.951  0.00  0.00    -0.067 N 
HETATM   19  H           1     -19.476  -7.344  -6.511  0.00  0.00     0.275 HD
HETATM   20  H           1     -19.170  -5.851  -7.281  0.00  0.00     0.275 HD
HETATM   21  H           1     -20.502  -6.802  -7.763  0.00  0.00     0.275 HD
ENDBRANCH   5  18
ENDBRANCH   1   5
BRANCH   2  22
HETATM   22  C           1     -21.492  -7.484  -2.573  0.00  0.00     0.187 C 
BRANCH  22  23
HETATM   23  C           1     -22.206  -6.753  -1.464  0.00  0.00     0.196 C 
HETATM   24  O           1     -22.589  -7.376  -0.449  0.00  0.00    -0.646 OA
HETATM   25  O           1     -22.415  -5.524  -1.558  0.00  0.00    -0.646 OA
ENDBRANCH  22  23
BRANCH  22  26
HETATM   26  C           1     -20.285  -8.219  -2.003  0.00  0.00     0.066 C 
BRANCH  26  27
HETATM   27  C           1     -20.529  -9.721  -2.065  0.00  0.00     0.273 C 
BRANCH  27  28
HETATM   28  N           1     -21.938  -9.984  -1.944  0.00  0.00     0.100 N 
HETATM   29  H           1     -22.371  -9.943  -2.867  0.00  0.00     0.317 HD
BRANCH  28  30
HETATM   30  C           1     -22.091 -11.306  -1.400  0.00  0.00     0.343 C 
BRANCH  30  31
HETATM   31  C           1     -23.444 -11.425  -0.742  0.00  0.00     0.209 C 
HETATM   32  O           1     -24.084 -12.496  -0.820  0.00  0.00    -0.646 OA
HETATM   33  O           1     -23.924 -10.453  -0.120  0.00  0.00    -0.646 OA
ENDBRANCH  30  31
BRANCH  30  34
HETATM   34  C           1     -21.000 -11.558  -0.368  0.00  0.00     0.211 C 
BRANCH  34  35
HETATM   35  O           1     -21.584 -11.954   0.843  0.00  0.00    -0.398 OA
HETATM   36  H           1     -22.473 -12.198   0.652  0.00  0.00     0.209 HD
ENDBRANCH  34  35
ENDBRANCH  30  34
ENDBRANCH  28  30
ENDBRANCH  27  28
ENDBRANCH  26  27
ENDBRANCH  22  26
ENDBRANCH   2  22
TORSDOF 15
ENDMDL
MODEL 7
REMARK VINA RESULT:      -5.7      3.355      9.095
REMARK  15 active torsions:
REMARK  status: ('A' for Active; 'I' for Inactive)
REMARK    1  A    between atoms: C_1  and  C_2 
REMARK    2  A    between atoms: C_1  and  C_20 
REMARK    3  A    between atoms: C_1  and  N_32 
REMARK       I    between atoms: C_2  and  N_3 
REMARK    4  A    between atoms: N_3  and  C_12 
REMARK    5  A    between atoms: C_6  and  C_7 
REMARK    6  A    between atoms: C_7  and  C_8 
REMARK    7  A    between atoms: C_7  and  N_17 
REMARK    8  A    between atoms: C_8  and  O_29 
REMARK       I    between atoms: C_9  and  N_10 
REMARK       I    between atoms: C_9  and  N_30 
REMARK    9  A    between atoms: N_10  and  C_18 
REMARK   10  A    between atoms: C_11  and  C_12 
REMARK   11  A    between atoms: C_12  and  C_13 
REMARK   12  A    between atoms: C_13  and  C_14 
REMARK   13  A    between atoms: C_14  and  N_17 
REMARK   14  A    between atoms: C_18  and  C_19 
REMARK   15  A    between atoms: C_19  and  C_20 
ROOT
HETATM    1  C           1     -21.100  -6.825  -5.062  0.00  0.00     0.249 C 
HETATM    2  N           1     -20.895  -6.586  -3.730  0.00  0.00    -0.345 N 
HETATM    3  O           1     -21.605  -7.863  -5.418  0.00  0.00    -0.271 OA
HETATM    4  H           1     -20.471  -5.717  -3.431  0.00  0.00     0.163 HD
ENDROOT
BRANCH   1   5
HETATM    5  C           1     -20.693  -5.793  -6.085  0.00  0.00     0.274 C 
BRANCH   5   6
HETATM    6  C           1     -21.935  -5.099  -6.628  0.00  0.00     0.044 C 
BRANCH   6   7
HETATM    7  C           1     -21.521  -3.880  -7.442  0.00  0.00     0.023 C 
BRANCH   7   8
HETATM    8  C           1     -22.148  -3.958  -8.828  0.00  0.00     0.138 C 
BRANCH   8   9
HETATM    9  N           1     -23.576  -3.626  -8.741  0.00  0.00    -0.227 N 
HETATM   10  C           1     -24.339  -3.840  -9.729  0.00  0.00     0.665 C 
HETATM   11  N           1     -25.569  -3.554  -9.654  0.00  0.00    -0.235 N 
HETATM   12  N           1     -23.856  -4.355 -10.821  0.00  0.00    -0.235 N 
HETATM   13  H           1     -25.958  -3.138  -8.772  0.00  0.00     0.174 HD
HETATM   14  H           1     -26.201  -3.732 -10.473  0.00  0.00     0.174 HD
HETATM   15  H           1     -22.840  -4.592 -10.883  0.00  0.00     0.174 HD
HETATM   16  H           1     -24.484  -4.532 -11.637  0.00  0.00     0.174 HD
HETATM   17  H           1     -23.966  -3.210  -7.858  0.00  0.00     0.177 HD
ENDBRANCH   8   9
ENDBRANCH   7   8
ENDBRANCH   6   7
ENDBRANCH   5   6
BRANCH   5  18
HETATM   18  N           1     -19.964  -6.466  -7.210  0.00  0.00    -0.067 N 
HETATM   19  H           1     -19.559  -7.368  -6.873  0.00  0.00     0.275 HD
HETATM   20  H           1     -19.197  -5.843  -7.548  0.00  0.00     0.275 HD
HETATM   21  H           1     -20.630  -6.654  -7.993  0.00  0.00     0.275 HD
ENDBRANCH   5  18
ENDBRANCH   1   5
BRANCH   2  22
HETATM   22  C           1     -21.286  -7.578  -2.747  0.00  0.00     0.187 C 
BRANCH  22  23
HETATM   23  C           1     -22.087  -6.914  -1.655  0.00  0.00     0.196 C 
HETATM   24  O           1     -22.562  -5.772  -1.833  0.00  0.00    -0.646 OA
HETATM   25  O           1     -22.277  -7.507  -0.571  0.00  0.00    -0.646 OA
ENDBRANCH  22  23
BRANCH  22  26
HETATM   26  C           1     -20.039  -8.216  -2.147  0.00  0.00     0.066 C 
BRANCH  26  27
HETATM   27  C           1     -20.064  -9.717  -2.402  0.00  0.00     0.273 C 
BRANCH  27  28
HETATM   28  N           1     -21.190 -10.301  -1.724  0.00  0.00     0.100 N 
HETATM   29  H           1     -21.886 -10.592  -2.411  0.00  0.00     0.317 HD
BRANCH  28  30
HETATM   30  C           1     -20.717 -11.452  -1.004  0.00  0.00     0.343 C 
BRANCH  30  31
HETATM   31  C           1     -21.061 -11.306   0.458  0.00  0.00     0.209 C 
HETATM   32  O           1     -20.907 -10.204   1.029  0.00  0.00    -0.646 OA
HETATM   33  O           1     -21.499 -12.286   1.099  0.00  0.00    -0.646 OA
ENDBRANCH  30  31
BRANCH  30  34
HETATM   34  C           1     -19.206 -11.563  -1.162  0.00  0.00     0.211 C 
BRANCH  34  35
HETATM   35  O           1     -18.622 -11.817   0.087  0.00  0.00    -0.398 OA
HETATM   36  H           1     -18.343 -12.716   0.081  0.00  0.00     0.209 HD
ENDBRANCH  34  35
ENDBRANCH  30  34
ENDBRANCH  28  30
ENDBRANCH  27  28
ENDBRANCH  26  27
ENDBRANCH  22  26
ENDBRANCH   2  22
TORSDOF 15
ENDMDL
MODEL 8
REMARK VINA RESULT:      -5.7      3.007      8.007
REMARK  15 active torsions:
REMARK  status: ('A' for Active; 'I' for Inactive)
REMARK    1  A    between atoms: C_1  and  C_2 
REMARK    2  A    between atoms: C_1  and  C_20 
REMARK    3  A    between atoms: C_1  and  N_32 
REMARK       I    between atoms: C_2  and  N_3 
REMARK    4  A    between atoms: N_3  and  C_12 
REMARK    5  A    between atoms: C_6  and  C_7 
REMARK    6  A    between atoms: C_7  and  C_8 
REMARK    7  A    between atoms: C_7  and  N_17 
REMARK    8  A    between atoms: C_8  and  O_29 
REMARK       I    between atoms: C_9  and  N_10 
REMARK       I    between atoms: C_9  and  N_30 
REMARK    9  A    between atoms: N_10  and  C_18 
REMARK   10  A    between atoms: C_11  and  C_12 
REMARK   11  A    between atoms: C_12  and  C_13 
REMARK   12  A    between atoms: C_13  and  C_14 
REMARK   13  A    between atoms: C_14  and  N_17 
REMARK   14  A    between atoms: C_18  and  C_19 
REMARK   15  A    between atoms: C_19  and  C_20 
ROOT
HETATM    1  C           1     -20.556  -7.338  -5.412  0.00  0.00     0.249 C 
HETATM    2  N           1     -20.803  -8.353  -4.527  0.00  0.00    -0.345 N 
HETATM    3  O           1     -19.720  -7.479  -6.273  0.00  0.00    -0.271 OA
HETATM    4  H           1     -21.504  -8.236  -3.806  0.00  0.00     0.163 HD
ENDROOT
BRANCH   1   5
HETATM    5  C           1     -21.325  -6.044  -5.310  0.00  0.00     0.274 C 
BRANCH   5   6
HETATM    6  C           1     -20.379  -4.872  -5.534  0.00  0.00     0.044 C 
BRANCH   6   7
HETATM    7  C           1     -20.746  -4.164  -6.833  0.00  0.00     0.023 C 
BRANCH   7   8
HETATM    8  C           1     -22.177  -4.516  -7.217  0.00  0.00     0.138 C 
BRANCH   8   9
HETATM    9  N           1     -22.265  -4.692  -8.673  0.00  0.00    -0.227 N 
HETATM   10  C           1     -23.268  -4.247  -9.305  0.00  0.00     0.665 C 
HETATM   11  N           1     -23.345  -4.398 -10.559  0.00  0.00    -0.235 N 
HETATM   12  N           1     -24.220  -3.634  -8.664  0.00  0.00    -0.235 N 
HETATM   13  H           1     -22.576  -4.893 -11.076  0.00  0.00     0.174 HD
HETATM   14  H           1     -24.177  -4.029 -11.083  0.00  0.00     0.174 HD
HETATM   15  H           1     -24.156  -3.508  -7.629  0.00  0.00     0.174 HD
HETATM   16  H           1     -25.047  -3.266  -9.185  0.00  0.00     0.174 HD
HETATM   17  H           1     -21.497  -5.187  -9.190  0.00  0.00     0.177 HD
ENDBRANCH   8   9
ENDBRANCH   7   8
ENDBRANCH   6   7
ENDBRANCH   5   6
BRANCH   5  18
HETATM   18  N           1     -21.942  -5.935  -3.947  0.00  0.00    -0.067 N 
HETATM   19  H           1     -22.279  -4.958  -3.795  0.00  0.00     0.275 HD
HETATM   20  H           1     -21.229  -6.175  -3.223  0.00  0.00     0.275 HD
HETATM   21  H           1     -22.748  -6.596  -3.876  0.00  0.00     0.275 HD
ENDBRANCH   5  18
ENDBRANCH   1   5
BRANCH   2  22
HETATM   22  C           1     -20.064  -9.596  -4.625  0.00  0.00     0.187 C 
BRANCH  22  23
HETATM   23  C           1     -20.937 -10.652  -5.256  0.00  0.00     0.196 C 
HETATM   24  O           1     -21.854 -11.185  -4.593  0.00  0.00    -0.646 OA
HETATM   25  O           1     -20.744 -10.996  -6.442  0.00  0.00    -0.646 OA
ENDBRANCH  22  23
BRANCH  22  26
HETATM   26  C           1     -19.646 -10.049  -3.231  0.00  0.00     0.066 C 
BRANCH  26  27
HETATM   27  C           1     -19.845  -8.905  -2.245  0.00  0.00     0.273 C 
BRANCH  27  28
HETATM   28  N           1     -20.572  -9.381  -1.098  0.00  0.00     0.100 N 
HETATM   29  H           1     -20.199  -8.944  -0.255  0.00  0.00     0.317 HD
BRANCH  28  30
HETATM   30  C           1     -21.949  -9.004  -1.266  0.00  0.00     0.343 C 
BRANCH  30  31
HETATM   31  C           1     -22.233  -7.764  -0.454  0.00  0.00     0.209 C 
HETATM   32  O           1     -22.644  -6.727  -1.019  0.00  0.00    -0.646 OA
HETATM   33  O           1     -22.057  -7.774   0.784  0.00  0.00    -0.646 OA
ENDBRANCH  30  31
BRANCH  30  34
HETATM   34  C           1     -22.846 -10.139  -0.791  0.00  0.00     0.211 C 
BRANCH  34  35
HETATM   35  O           1     -22.251 -10.778   0.306  0.00  0.00    -0.398 OA
HETATM   36  H           1     -21.986 -11.633   0.014  0.00  0.00     0.209 HD
ENDBRANCH  34  35
ENDBRANCH  30  34
ENDBRANCH  28  30
ENDBRANCH  27  28
ENDBRANCH  26  27
ENDBRANCH  22  26
ENDBRANCH   2  22
TORSDOF 15
ENDMDL
MODEL 9
REMARK VINA RESULT:      -5.5      3.162      7.964
REMARK  15 active torsions:
REMARK  status: ('A' for Active; 'I' for Inactive)
REMARK    1  A    between atoms: C_1  and  C_2 
REMARK    2  A    between atoms: C_1  and  C_20 
REMARK    3  A    between atoms: C_1  and  N_32 
REMARK       I    between atoms: C_2  and  N_3 
REMARK    4  A    between atoms: N_3  and  C_12 
REMARK    5  A    between atoms: C_6  and  C_7 
REMARK    6  A    between atoms: C_7  and  C_8 
REMARK    7  A    between atoms: C_7  and  N_17 
REMARK    8  A    between atoms: C_8  and  O_29 
REMARK       I    between atoms: C_9  and  N_10 
REMARK       I    between atoms: C_9  and  N_30 
REMARK    9  A    between atoms: N_10  and  C_18 
REMARK   10  A    between atoms: C_11  and  C_12 
REMARK   11  A    between atoms: C_12  and  C_13 
REMARK   12  A    between atoms: C_13  and  C_14 
REMARK   13  A    between atoms: C_14  and  N_17 
REMARK   14  A    between atoms: C_18  and  C_19 
REMARK   15  A    between atoms: C_19  and  C_20 
ROOT
HETATM    1  C           1     -21.327  -6.263  -5.148  0.00  0.00     0.249 C 
HETATM    2  N           1     -20.715  -7.263  -4.443  0.00  0.00    -0.345 N 
HETATM    3  O           1     -22.510  -6.063  -5.010  0.00  0.00    -0.271 OA
HETATM    4  H           1     -19.724  -7.431  -4.558  0.00  0.00     0.163 HD
ENDROOT
BRANCH   1   5
HETATM    5  C           1     -20.524  -5.411  -6.100  0.00  0.00     0.274 C 
BRANCH   5   6
HETATM    6  C           1     -21.456  -4.462  -6.842  0.00  0.00     0.044 C 
BRANCH   6   7
HETATM    7  C           1     -21.668  -4.967  -8.264  0.00  0.00     0.023 C 
BRANCH   7   8
HETATM    8  C           1     -22.093  -3.808  -9.157  0.00  0.00     0.138 C 
BRANCH   8   9
HETATM    9  N           1     -23.516  -3.517  -8.940  0.00  0.00    -0.227 N 
HETATM   10  C           1     -24.369  -3.830  -9.822  0.00  0.00     0.665 C 
HETATM   11  N           1     -25.595  -3.579  -9.636  0.00  0.00    -0.235 N 
HETATM   12  N           1     -23.983  -4.409 -10.921  0.00  0.00    -0.235 N 
HETATM   13  H           1     -25.906  -3.111  -8.749  0.00  0.00     0.174 HD
HETATM   14  H           1     -26.302  -3.839 -10.368  0.00  0.00     0.174 HD
HETATM   15  H           1     -22.970  -4.617 -11.075  0.00  0.00     0.174 HD
HETATM   16  H           1     -24.686  -4.667 -11.650  0.00  0.00     0.174 HD
HETATM   17  H           1     -23.828  -3.049  -8.052  0.00  0.00     0.177 HD
ENDBRANCH   8   9
ENDBRANCH   7   8
ENDBRANCH   6   7
ENDBRANCH   5   6
BRANCH   5  18
HETATM   18  N           1     -19.819  -6.292  -7.087  0.00  0.00    -0.067 N 
HETATM   19  H           1     -18.863  -6.519  -6.731  0.00  0.00     0.275 HD
HETATM   20  H           1     -19.741  -5.796  -8.003  0.00  0.00     0.275 HD
HETATM   21  H           1     -20.362  -7.176  -7.214  0.00  0.00     0.275 HD
ENDBRANCH   5  18
ENDBRANCH   1   5
BRANCH   2  22
HETATM   22  C           1     -21.487  -8.082  -3.529  0.00  0.00     0.187 C 
BRANCH  22  23
HETATM   23  C           1     -21.265  -7.604  -2.115  0.00  0.00     0.196 C 
HETATM   24  O           1     -20.203  -7.886  -1.519  0.00  0.00    -0.646 OA
HETATM   25  O           1     -22.143  -6.926  -1.540  0.00  0.00    -0.646 OA
ENDBRANCH  22  23
BRANCH  22  26
HETATM   26  C           1     -21.042  -9.535  -3.650  0.00  0.00     0.066 C 
BRANCH  26  27
HETATM   27  C           1     -19.702  -9.598  -4.369  0.00  0.00     0.273 C 
BRANCH  27  28
HETATM   28  N           1     -18.669  -9.951  -3.432  0.00  0.00     0.100 N 
HETATM   29  H           1     -19.032 -10.636  -2.770  0.00  0.00     0.317 HD
BRANCH  28  30
HETATM   30  C           1     -17.583 -10.529  -4.175  0.00  0.00     0.343 C 
BRANCH  30  31
HETATM   31  C           1     -16.285 -10.272  -3.450  0.00  0.00     0.209 C 
HETATM   32  O           1     -16.104  -9.185  -2.858  0.00  0.00    -0.646 OA
HETATM   33  O           1     -15.391 -11.146  -3.440  0.00  0.00    -0.646 OA
ENDBRANCH  30  31
BRANCH  30  34
HETATM   34  C           1     -17.525  -9.899  -5.560  0.00  0.00     0.211 C 
BRANCH  34  35
HETATM   35  O           1     -16.188  -9.677  -5.918  0.00  0.00    -0.398 OA
HETATM   36  H           1     -16.164  -8.870  -6.403  0.00  0.00     0.209 HD
ENDBRANCH  34  35
ENDBRANCH  30  34
ENDBRANCH  28  30
ENDBRANCH  27  28
ENDBRANCH  26  27
ENDBRANCH  22  26
ENDBRANCH   2  22
TORSDOF 15
ENDMDL
