MODEL 1
REMARK VINA RESULT:      -6.3      0.000      0.000
REMARK  10 active torsions:
REMARK  status: ('A' for Active; 'I' for Inactive)
REMARK    1  A    between atoms: C_5  and  C_21 
REMARK    2  A    between atoms: C_5  and  C_15 
REMARK    3  A    between atoms: C_5  and  N_16 
REMARK    4  A    between atoms: C_6  and  C_15 
REMARK    5  A    between atoms: C_6  and  C_13 
REMARK    6  A    between atoms: C_10  and  C_23 
REMARK    7  A    between atoms: C_10  and  C_12 
REMARK    8  A    between atoms: C_12  and  C_14 
REMARK    9  A    between atoms: C_12  and  N_19 
REMARK   10  A    between atoms: C_13  and  N_22 
REMARK       I    between atoms: N_19  and  C_21 
ROOT
HETATM    1  C           1     -33.061  -4.462 -16.652  0.00  0.00     0.274 C 
ENDROOT
BRANCH   1   2
HETATM    2  C           1     -33.921  -4.503 -15.413  0.00  0.00     0.249 C 
HETATM    3  O           1     -35.031  -4.977 -15.463  0.00  0.00    -0.271 OA
HETATM    4  N           1     -33.443  -4.004 -14.232  0.00  0.00    -0.344 N 
HETATM    5  H           1     -32.514  -3.606 -14.189  0.00  0.00     0.163 HD
BRANCH   4   6
HETATM    6  C           1     -34.269  -4.044 -13.041  0.00  0.00     0.189 C 
BRANCH   6   7
HETATM    7  C           1     -33.391  -4.302 -11.823  0.00  0.00     0.014 C 
HETATM    8  C           1     -32.836  -2.981 -11.308  0.00  0.00     0.012 C 
BRANCH   7   9
HETATM    9  C           1     -34.221  -4.965 -10.732  0.00  0.00     0.002 C 
HETATM   10  C           1     -34.034  -6.475 -10.798  0.00  0.00     0.005 C 
ENDBRANCH   7   9
ENDBRANCH   6   7
BRANCH   6  11
HETATM   11  C           1     -34.980  -2.724 -12.878  0.00  0.00     0.197 C 
HETATM   12  O           1     -34.758  -1.790 -13.679  0.00  0.00    -0.646 OA
HETATM   13  O           1     -35.794  -2.563 -11.942  0.00  0.00    -0.646 OA
ENDBRANCH   6  11
ENDBRANCH   4   6
ENDBRANCH   1   2
BRANCH   1  14
HETATM   14  C           1     -31.603  -4.678 -16.267  0.00  0.00     0.044 C 
BRANCH  14  15
HETATM   15  C           1     -30.731  -4.601 -17.512  0.00  0.00     0.030 C 
BRANCH  15  16
HETATM   16  C           1     -29.430  -3.884 -17.177  0.00  0.00     0.230 C 
BRANCH  16  17
HETATM   17  N           1     -29.551  -2.433 -17.535  0.00  0.00    -0.079 N 
HETATM   18  H           1     -28.757  -2.161 -18.158  0.00  0.00     0.274 HD
HETATM   19  H           1     -29.523  -1.856 -16.664  0.00  0.00     0.274 HD
HETATM   20  H           1     -30.455  -2.270 -18.032  0.00  0.00     0.274 HD
ENDBRANCH  16  17
ENDBRANCH  15  16
ENDBRANCH  14  15
ENDBRANCH   1  14
BRANCH   1  21
HETATM   21  N           1     -33.208  -3.127 -17.320  0.00  0.00    -0.067 N 
HETATM   22  H           1     -34.185  -2.779 -17.194  0.00  0.00     0.275 HD
HETATM   23  H           1     -33.001  -3.224 -18.340  0.00  0.00     0.275 HD
HETATM   24  H           1     -32.539  -2.449 -16.890  0.00  0.00     0.275 HD
ENDBRANCH   1  21
TORSDOF 10
ENDMDL
MODEL 2
REMARK VINA RESULT:      -6.3      3.419      4.769
REMARK  10 active torsions:
REMARK  status: ('A' for Active; 'I' for Inactive)
REMARK    1  A    between atoms: C_5  and  C_21 
REMARK    2  A    between atoms: C_5  and  C_15 
REMARK    3  A    between atoms: C_5  and  N_16 
REMARK    4  A    between atoms: C_6  and  C_15 
REMARK    5  A    between atoms: C_6  and  C_13 
REMARK    6  A    between atoms: C_10  and  C_23 
REMARK    7  A    between atoms: C_10  and  C_12 
REMARK    8  A    between atoms: C_12  and  C_14 
REMARK    9  A    between atoms: C_12  and  N_19 
REMARK   10  A    between atoms: C_13  and  N_22 
REMARK       I    between atoms: N_19  and  C_21 
ROOT
HETATM    1  C           1     -36.121   0.369 -14.649  0.00  0.00     0.274 C 
ENDROOT
BRANCH   1   2
HETATM    2  C           1     -36.654  -0.327 -13.421  0.00  0.00     0.249 C 
HETATM    3  O           1     -37.783  -0.755 -13.412  0.00  0.00    -0.271 OA
HETATM    4  N           1     -35.857  -0.474 -12.317  0.00  0.00    -0.344 N 
HETATM    5  H           1     -34.912  -0.114 -12.325  0.00  0.00     0.163 HD
BRANCH   4   6
HETATM    6  C           1     -36.370  -1.142 -11.137  0.00  0.00     0.189 C 
BRANCH   6   7
HETATM    7  C           1     -35.307  -2.086 -10.588  0.00  0.00     0.014 C 
HETATM    8  C           1     -35.749  -3.527 -10.802  0.00  0.00     0.012 C 
BRANCH   7   9
HETATM    9  C           1     -33.991  -1.845 -11.314  0.00  0.00     0.002 C 
HETATM   10  C           1     -33.186  -3.137 -11.348  0.00  0.00     0.005 C 
ENDBRANCH   7   9
ENDBRANCH   6   7
BRANCH   6  11
HETATM   11  C           1     -36.722  -0.116 -10.091  0.00  0.00     0.197 C 
HETATM   12  O           1     -37.592   0.749 -10.331  0.00  0.00    -0.646 OA
HETATM   13  O           1     -36.145  -0.130  -8.981  0.00  0.00    -0.646 OA
ENDBRANCH   6  11
ENDBRANCH   4   6
ENDBRANCH   1   2
BRANCH   1  14
HETATM   14  C           1     -36.480  -0.440 -15.888  0.00  0.00     0.044 C 
BRANCH  14  15
HETATM   15  C           1     -35.207  -0.933 -16.561  0.00  0.00     0.030 C 
BRANCH  15  16
HETATM   16  C           1     -35.133  -2.450 -16.462  0.00  0.00     0.230 C 
BRANCH  16  17
HETATM   17  N           1     -33.896  -2.939 -17.154  0.00  0.00    -0.079 N 
HETATM   18  H           1     -33.367  -3.574 -16.514  0.00  0.00     0.274 HD
HETATM   19  H           1     -33.296  -2.124 -17.412  0.00  0.00     0.274 HD
HETATM   20  H           1     -34.163  -3.461 -18.019  0.00  0.00     0.274 HD
ENDBRANCH  16  17
ENDBRANCH  15  16
ENDBRANCH  14  15
ENDBRANCH   1  14
BRANCH   1  21
HETATM   21  N           1     -34.629   0.491 -14.548  0.00  0.00    -0.067 N 
HETATM   22  H           1     -34.385   1.159 -13.783  0.00  0.00     0.275 HD
HETATM   23  H           1     -34.247   0.843 -15.454  0.00  0.00     0.275 HD
HETATM   24  H           1     -34.218  -0.447 -14.336  0.00  0.00     0.275 HD
ENDBRANCH   1  21
TORSDOF 10
ENDMDL
MODEL 3
REMARK VINA RESULT:      -6.1     14.634     15.689
REMARK  10 active torsions:
REMARK  status: ('A' for Active; 'I' for Inactive)
REMARK    1  A    between atoms: C_5  and  C_21 
REMARK    2  A    between atoms: C_5  and  C_15 
REMARK    3  A    between atoms: C_5  and  N_16 
REMARK    4  A    between atoms: C_6  and  C_15 
REMARK    5  A    between atoms: C_6  and  C_13 
REMARK    6  A    between atoms: C_10  and  C_23 
REMARK    7  A    between atoms: C_10  and  C_12 
REMARK    8  A    between atoms: C_12  and  C_14 
REMARK    9  A    between atoms: C_12  and  N_19 
REMARK   10  A    between atoms: C_13  and  N_22 
REMARK       I    between atoms: N_19  and  C_21 
ROOT
HETATM    1  C           1     -20.510  -5.078  -6.427  0.00  0.00     0.274 C 
ENDROOT
BRANCH   1   2
HETATM    2  C           1     -21.350  -5.912  -5.491  0.00  0.00     0.249 C 
HETATM    3  O           1     -22.554  -5.829  -5.524  0.00  0.00    -0.271 OA
HETATM    4  N           1     -20.748  -6.764  -4.605  0.00  0.00    -0.344 N 
HETATM    5  H           1     -19.739  -6.833  -4.577  0.00  0.00     0.163 HD
BRANCH   4   6
HETATM    6  C           1     -21.555  -7.565  -3.706  0.00  0.00     0.189 C 
BRANCH   6   7
HETATM    7  C           1     -20.928  -8.945  -3.555  0.00  0.00     0.014 C 
HETATM    8  C           1     -21.851  -9.991  -4.164  0.00  0.00     0.012 C 
BRANCH   7   9
HETATM    9  C           1     -19.585  -8.973  -4.271  0.00  0.00     0.002 C 
HETATM   10  C           1     -18.488  -9.338  -3.281  0.00  0.00     0.005 C 
ENDBRANCH   7   9
ENDBRANCH   6   7
BRANCH   6  11
HETATM   11  C           1     -21.624  -6.892  -2.358  0.00  0.00     0.197 C 
HETATM   12  O           1     -22.310  -5.858  -2.209  0.00  0.00    -0.646 OA
HETATM   13  O           1     -20.996  -7.370  -1.388  0.00  0.00    -0.646 OA
ENDBRANCH   6  11
ENDBRANCH   4   6
ENDBRANCH   1   2
BRANCH   1  14
HETATM   14  C           1     -21.362  -3.963  -7.018  0.00  0.00     0.044 C 
BRANCH  14  15
HETATM   15  C           1     -21.433  -4.125  -8.531  0.00  0.00     0.030 C 
BRANCH  15  16
HETATM   16  C           1     -22.884  -4.045  -8.983  0.00  0.00     0.230 C 
BRANCH  16  17
HETATM   17  N           1     -23.788  -4.154  -7.792  0.00  0.00    -0.079 N 
HETATM   18  H           1     -24.455  -4.946  -7.932  0.00  0.00     0.274 HD
HETATM   19  H           1     -24.323  -3.264  -7.678  0.00  0.00     0.274 HD
HETATM   20  H           1     -23.216  -4.328  -6.935  0.00  0.00     0.274 HD
ENDBRANCH  16  17
ENDBRANCH  15  16
ENDBRANCH  14  15
ENDBRANCH   1  14
BRANCH   1  21
HETATM   21  N           1     -19.983  -5.944  -7.532  0.00  0.00    -0.067 N 
HETATM   22  H           1     -19.520  -6.787  -7.125  0.00  0.00     0.275 HD
HETATM   23  H           1     -19.288  -5.404  -8.096  0.00  0.00     0.275 HD
HETATM   24  H           1     -20.774  -6.243  -8.146  0.00  0.00     0.275 HD
ENDBRANCH   1  21
TORSDOF 10
ENDMDL
MODEL 4
REMARK VINA RESULT:      -6.0     14.083     15.037
REMARK  10 active torsions:
REMARK  status: ('A' for Active; 'I' for Inactive)
REMARK    1  A    between atoms: C_5  and  C_21 
REMARK    2  A    between atoms: C_5  and  C_15 
REMARK    3  A    between atoms: C_5  and  N_16 
REMARK    4  A    between atoms: C_6  and  C_15 
REMARK    5  A    between atoms: C_6  and  C_13 
REMARK    6  A    between atoms: C_10  and  C_23 
REMARK    7  A    between atoms: C_10  and  C_12 
REMARK    8  A    between atoms: C_12  and  C_14 
REMARK    9  A    between atoms: C_12  and  N_19 
REMARK   10  A    between atoms: C_13  and  N_22 
REMARK       I    between atoms: N_19  and  C_21 
ROOT
HETATM    1  C           1     -22.052  -4.506  -7.116  0.00  0.00     0.274 C 
ENDROOT
BRANCH   1   2
HETATM    2  C           1     -21.117  -5.313  -6.250  0.00  0.00     0.249 C 
HETATM    3  O           1     -19.943  -5.034  -6.205  0.00  0.00    -0.271 OA
HETATM    4  N           1     -21.600  -6.361  -5.513  0.00  0.00    -0.344 N 
HETATM    5  H           1     -22.584  -6.595  -5.550  0.00  0.00     0.163 HD
BRANCH   4   6
HETATM    6  C           1     -20.701  -7.136  -4.680  0.00  0.00     0.189 C 
BRANCH   6   7
HETATM    7  C           1     -21.408  -7.510  -3.383  0.00  0.00     0.014 C 
HETATM    8  C           1     -20.439  -8.255  -2.475  0.00  0.00     0.012 C 
BRANCH   7   9
HETATM    9  C           1     -21.888  -6.245  -2.685  0.00  0.00     0.002 C 
HETATM   10  C           1     -22.291  -6.575  -1.254  0.00  0.00     0.005 C 
ENDBRANCH   7   9
ENDBRANCH   6   7
BRANCH   6  11
HETATM   11  C           1     -20.295  -8.391  -5.412  0.00  0.00     0.197 C 
HETATM   12  O           1     -21.159  -9.234  -5.735  0.00  0.00    -0.646 OA
HETATM   13  O           1     -19.093  -8.588  -5.696  0.00  0.00    -0.646 OA
ENDBRANCH   6  11
ENDBRANCH   4   6
ENDBRANCH   1   2
BRANCH   1  14
HETATM   14  C           1     -21.993  -5.023  -8.548  0.00  0.00     0.044 C 
BRANCH  14  15
HETATM   15  C           1     -22.553  -3.970  -9.493  0.00  0.00     0.030 C 
BRANCH  15  16
HETATM   16  C           1     -23.675  -4.577 -10.324  0.00  0.00     0.230 C 
BRANCH  16  17
HETATM   17  N           1     -24.967  -4.481  -9.568  0.00  0.00    -0.079 N 
HETATM   18  H           1     -24.852  -3.821  -8.765  0.00  0.00     0.274 HD
HETATM   19  H           1     -25.231  -5.425  -9.209  0.00  0.00     0.274 HD
HETATM   20  H           1     -25.718  -4.128 -10.204  0.00  0.00     0.274 HD
ENDBRANCH  16  17
ENDBRANCH  15  16
ENDBRANCH  14  15
ENDBRANCH   1  14
BRANCH   1  21
HETATM   21  N           1     -21.641  -3.064  -7.089  0.00  0.00    -0.067 N 
HETATM   22  H           1     -22.488  -2.458  -7.153  0.00  0.00     0.275 HD
HETATM   23  H           1     -21.009  -2.868  -7.898  0.00  0.00     0.275 HD
HETATM   24  H           1     -21.136  -2.864  -6.196  0.00  0.00     0.275 HD
ENDBRANCH   1  21
TORSDOF 10
ENDMDL
MODEL 5
REMARK VINA RESULT:      -5.8     12.123     13.869
REMARK  10 active torsions:
REMARK  status: ('A' for Active; 'I' for Inactive)
REMARK    1  A    between atoms: C_5  and  C_21 
REMARK    2  A    between atoms: C_5  and  C_15 
REMARK    3  A    between atoms: C_5  and  N_16 
REMARK    4  A    between atoms: C_6  and  C_15 
REMARK    5  A    between atoms: C_6  and  C_13 
REMARK    6  A    between atoms: C_10  and  C_23 
REMARK    7  A    between atoms: C_10  and  C_12 
REMARK    8  A    between atoms: C_12  and  C_14 
REMARK    9  A    between atoms: C_12  and  N_19 
REMARK   10  A    between atoms: C_13  and  N_22 
REMARK       I    between atoms: N_19  and  C_21 
ROOT
HETATM    1  C           1     -21.292  -5.575  -6.938  0.00  0.00     0.274 C 
ENDROOT
BRANCH   1   2
HETATM    2  C           1     -21.790  -4.463  -7.828  0.00  0.00     0.249 C 
HETATM    3  O           1     -21.654  -3.312  -7.488  0.00  0.00    -0.271 OA
HETATM    4  N           1     -22.393  -4.758  -9.020  0.00  0.00    -0.344 N 
HETATM    5  H           1     -22.507  -5.722  -9.305  0.00  0.00     0.163 HD
BRANCH   4   6
HETATM    6  C           1     -22.871  -3.689  -9.875  0.00  0.00     0.189 C 
BRANCH   6   7
HETATM    7  C           1     -22.080  -3.690 -11.178  0.00  0.00     0.014 C 
HETATM    8  C           1     -21.251  -2.416 -11.269  0.00  0.00     0.012 C 
BRANCH   7   9
HETATM    9  C           1     -21.158  -4.900 -11.210  0.00  0.00     0.002 C 
HETATM   10  C           1     -19.750  -4.478 -10.812  0.00  0.00     0.005 C 
ENDBRANCH   7   9
ENDBRANCH   6   7
BRANCH   6  11
HETATM   11  C           1     -24.334  -3.899 -10.173  0.00  0.00     0.197 C 
HETATM   12  O           1     -24.952  -3.077 -10.883  0.00  0.00    -0.646 OA
HETATM   13  O           1     -24.929  -4.896  -9.711  0.00  0.00    -0.646 OA
ENDBRANCH   6  11
ENDBRANCH   4   6
ENDBRANCH   1   2
BRANCH   1  14
HETATM   14  C           1     -20.899  -5.004  -5.582  0.00  0.00     0.044 C 
BRANCH  14  15
HETATM   15  C           1     -20.743  -6.138  -4.578  0.00  0.00     0.030 C 
BRANCH  15  16
HETATM   16  C           1     -22.109  -6.521  -4.027  0.00  0.00     0.230 C 
BRANCH  16  17
HETATM   17  N           1     -22.227  -6.051  -2.608  0.00  0.00    -0.079 N 
HETATM   18  H           1     -23.100  -6.441  -2.184  0.00  0.00     0.274 HD
HETATM   19  H           1     -22.266  -5.008  -2.589  0.00  0.00     0.274 HD
HETATM   20  H           1     -21.399  -6.379  -2.061  0.00  0.00     0.274 HD
ENDBRANCH  16  17
ENDBRANCH  15  16
ENDBRANCH  14  15
ENDBRANCH   1  14
BRANCH   1  21
HETATM   21  N           1     -20.098  -6.226  -7.571  0.00  0.00    -0.067 N 
HETATM   22  H           1     -20.305  -7.234  -7.753  0.00  0.00     0.275 HD
HETATM   23  H           1     -19.279  -6.150  -6.926  0.00  0.00     0.275 HD
HETATM   24  H           1     -19.879  -5.747  -8.473  0.00  0.00     0.275 HD
ENDBRANCH   1  21
TORSDOF 10
ENDMDL
MODEL 6
REMARK VINA RESULT:      -5.4     23.419     25.079
REMARK  10 active torsions:
REMARK  status: ('A' for Active; 'I' for Inactive)
REMARK    1  A    between atoms: C_5  and  C_21 
REMARK    2  A    between atoms: C_5  and  C_15 
REMARK    3  A    between atoms: C_5  and  N_16 
REMARK    4  A    between atoms: C_6  and  C_15 
REMARK    5  A    between atoms: C_6  and  C_13 
REMARK    6  A    between atoms: C_10  and  C_23 
REMARK    7  A    between atoms: C_10  and  C_12 
REMARK    8  A    between atoms: C_12  and  C_14 
REMARK    9  A    between atoms: C_12  and  N_19 
REMARK   10  A    between atoms: C_13  and  N_22 
REMARK       I    between atoms: N_19  and  C_21 
ROOT
HETATM    1  C           1     -13.282   5.619 -20.631  0.00  0.00     0.274 C 
ENDROOT
BRANCH   1   2
HETATM    2  C           1     -12.645   6.956 -20.918  0.00  0.00     0.249 C 
HETATM    3  O           1     -12.292   7.229 -22.040  0.00  0.00    -0.271 OA
HETATM    4  N           1     -12.467   7.861 -19.906  0.00  0.00    -0.344 N 
HETATM    5  H           1     -12.762   7.632 -18.965  0.00  0.00     0.163 HD
BRANCH   4   6
HETATM    6  C           1     -11.855   9.146 -20.182  0.00  0.00     0.189 C 
BRANCH   6   7
HETATM    7  C           1     -12.650  10.245 -19.489  0.00  0.00     0.014 C 
HETATM    8  C           1     -13.522  10.961 -20.511  0.00  0.00     0.012 C 
BRANCH   7   9
HETATM    9  C           1     -13.530   9.631 -18.410  0.00  0.00     0.002 C 
HETATM   10  C           1     -14.516  10.675 -17.903  0.00  0.00     0.005 C 
ENDBRANCH   7   9
ENDBRANCH   6   7
BRANCH   6  11
HETATM   11  C           1     -10.437   9.148 -19.668  0.00  0.00     0.197 C 
HETATM   12  O           1      -9.528   9.677 -20.342  0.00  0.00    -0.646 OA
HETATM   13  O           1     -10.171   8.621 -18.566  0.00  0.00    -0.646 OA
ENDBRANCH   6  11
ENDBRANCH   4   6
ENDBRANCH   1   2
BRANCH   1  14
HETATM   14  C           1     -12.216   4.531 -20.659  0.00  0.00     0.044 C 
BRANCH  14  15
HETATM   15  C           1     -11.457   4.528 -19.339  0.00  0.00     0.030 C 
BRANCH  15  16
HETATM   16  C           1     -10.036   5.026 -19.568  0.00  0.00     0.230 C 
BRANCH  16  17
HETATM   17  N           1      -9.514   5.648 -18.308  0.00  0.00    -0.079 N 
HETATM   18  H           1     -10.316   5.936 -17.703  0.00  0.00     0.274 HD
HETATM   19  H           1      -8.939   6.487 -18.546  0.00  0.00     0.274 HD
HETATM   20  H           1      -8.923   4.955 -17.796  0.00  0.00     0.274 HD
ENDBRANCH  16  17
ENDBRANCH  15  16
ENDBRANCH  14  15
ENDBRANCH   1  14
BRANCH   1  21
HETATM   21  N           1     -14.322   5.326 -21.671  0.00  0.00    -0.067 N 
HETATM   22  H           1     -14.020   4.508 -22.245  0.00  0.00     0.275 HD
HETATM   23  H           1     -14.440   6.161 -22.289  0.00  0.00     0.275 HD
HETATM   24  H           1     -15.230   5.107 -21.202  0.00  0.00     0.275 HD
ENDBRANCH   1  21
TORSDOF 10
ENDMDL
MODEL 7
REMARK VINA RESULT:      -5.3     15.551     16.581
REMARK  10 active torsions:
REMARK  status: ('A' for Active; 'I' for Inactive)
REMARK    1  A    between atoms: C_5  and  C_21 
REMARK    2  A    between atoms: C_5  and  C_15 
REMARK    3  A    between atoms: C_5  and  N_16 
REMARK    4  A    between atoms: C_6  and  C_15 
REMARK    5  A    between atoms: C_6  and  C_13 
REMARK    6  A    between atoms: C_10  and  C_23 
REMARK    7  A    between atoms: C_10  and  C_12 
REMARK    8  A    between atoms: C_12  and  C_14 
REMARK    9  A    between atoms: C_12  and  N_19 
REMARK   10  A    between atoms: C_13  and  N_22 
REMARK       I    between atoms: N_19  and  C_21 
ROOT
HETATM    1  C           1     -21.368  -6.857  -5.618  0.00  0.00     0.274 C 
ENDROOT
BRANCH   1   2
HETATM    2  C           1     -20.744  -7.606  -4.466  0.00  0.00     0.249 C 
HETATM    3  O           1     -19.649  -8.099  -4.589  0.00  0.00    -0.271 OA
HETATM    4  N           1     -21.419  -7.724  -3.281  0.00  0.00    -0.344 N 
HETATM    5  H           1     -22.337  -7.310  -3.178  0.00  0.00     0.163 HD
BRANCH   4   6
HETATM    6  C           1     -20.819  -8.443  -2.174  0.00  0.00     0.189 C 
BRANCH   6   7
HETATM    7  C           1     -21.287  -7.832  -0.859  0.00  0.00     0.014 C 
HETATM    8  C           1     -22.262  -6.698  -1.146  0.00  0.00     0.012 C 
BRANCH   7   9
HETATM    9  C           1     -21.980  -8.898  -0.023  0.00  0.00     0.002 C 
HETATM   10  C           1     -23.251  -8.321   0.586  0.00  0.00     0.005 C 
ENDBRANCH   7   9
ENDBRANCH   6   7
BRANCH   6  11
HETATM   11  C           1     -21.234  -9.892  -2.232  0.00  0.00     0.197 C 
HETATM   12  O           1     -20.464 -10.780  -1.809  0.00  0.00    -0.646 OA
HETATM   13  O           1     -22.350 -10.205  -2.703  0.00  0.00    -0.646 OA
ENDBRANCH   6  11
ENDBRANCH   4   6
ENDBRANCH   1   2
BRANCH   1  14
HETATM   14  C           1     -20.395  -5.800  -6.124  0.00  0.00     0.044 C 
BRANCH  14  15
HETATM   15  C           1     -20.790  -5.377  -7.532  0.00  0.00     0.030 C 
BRANCH  15  16
HETATM   16  C           1     -21.182  -3.906  -7.530  0.00  0.00     0.230 C 
BRANCH  16  17
HETATM   17  N           1     -22.655  -3.779  -7.781  0.00  0.00    -0.079 N 
HETATM   18  H           1     -23.137  -3.512  -6.893  0.00  0.00     0.274 HD
HETATM   19  H           1     -23.030  -4.693  -8.120  0.00  0.00     0.274 HD
HETATM   20  H           1     -22.824  -3.044  -8.504  0.00  0.00     0.274 HD
ENDBRANCH  16  17
ENDBRANCH  15  16
ENDBRANCH  14  15
ENDBRANCH   1  14
BRANCH   1  21
HETATM   21  N           1     -22.631  -6.192  -5.158  0.00  0.00    -0.067 N 
HETATM   22  H           1     -22.577  -6.013  -4.130  0.00  0.00     0.275 HD
HETATM   23  H           1     -23.446  -6.816  -5.360  0.00  0.00     0.275 HD
HETATM   24  H           1     -22.751  -5.286  -5.664  0.00  0.00     0.275 HD
ENDBRANCH   1  21
TORSDOF 10
ENDMDL
MODEL 8
REMARK VINA RESULT:      -5.3     16.927     18.280
REMARK  10 active torsions:
REMARK  status: ('A' for Active; 'I' for Inactive)
REMARK    1  A    between atoms: C_5  and  C_21 
REMARK    2  A    between atoms: C_5  and  C_15 
REMARK    3  A    between atoms: C_5  and  N_16 
REMARK    4  A    between atoms: C_6  and  C_15 
REMARK    5  A    between atoms: C_6  and  C_13 
REMARK    6  A    between atoms: C_10  and  C_23 
REMARK    7  A    between atoms: C_10  and  C_12 
REMARK    8  A    between atoms: C_12  and  C_14 
REMARK    9  A    between atoms: C_12  and  N_19 
REMARK   10  A    between atoms: C_13  and  N_22 
REMARK       I    between atoms: N_19  and  C_21 
ROOT
HETATM    1  C           1     -21.010  -6.650  -4.053  0.00  0.00     0.274 C 
ENDROOT
BRANCH   1   2
HETATM    2  C           1     -20.328  -7.651  -4.953  0.00  0.00     0.249 C 
HETATM    3  O           1     -20.382  -7.520  -6.152  0.00  0.00    -0.271 OA
HETATM    4  N           1     -19.647  -8.706  -4.409  0.00  0.00    -0.344 N 
HETATM    5  H           1     -19.602  -8.817  -3.405  0.00  0.00     0.163 HD
BRANCH   4   6
HETATM    6  C           1     -18.991  -9.668  -5.274  0.00  0.00     0.189 C 
BRANCH   6   7
HETATM    7  C           1     -17.706 -10.151  -4.613  0.00  0.00     0.014 C 
HETATM    8  C           1     -16.521  -9.827  -5.512  0.00  0.00     0.012 C 
BRANCH   7   9
HETATM    9  C           1     -17.533  -9.452  -3.272  0.00  0.00     0.002 C 
HETATM   10  C           1     -16.074  -9.533  -2.841  0.00  0.00     0.005 C 
ENDBRANCH   7   9
ENDBRANCH   6   7
BRANCH   6  11
HETATM   11  C           1     -19.909 -10.842  -5.508  0.00  0.00     0.197 C 
HETATM   12  O           1     -20.419 -11.441  -4.536  0.00  0.00    -0.646 OA
HETATM   13  O           1     -20.161 -11.216  -6.674  0.00  0.00    -0.646 OA
ENDBRANCH   6  11
ENDBRANCH   4   6
ENDBRANCH   1   2
BRANCH   1  14
HETATM   14  C           1     -21.134  -7.230  -2.649  0.00  0.00     0.044 C 
BRANCH  14  15
HETATM   15  C           1     -22.182  -6.450  -1.868  0.00  0.00     0.030 C 
BRANCH  15  16
HETATM   16  C           1     -22.435  -7.136  -0.532  0.00  0.00     0.230 C 
BRANCH  16  17
HETATM   17  N           1     -22.428  -8.623  -0.723  0.00  0.00    -0.079 N 
HETATM   18  H           1     -23.410  -8.979  -0.721  0.00  0.00     0.274 HD
HETATM   19  H           1     -21.893  -9.071   0.054  0.00  0.00     0.274 HD
HETATM   20  H           1     -21.976  -8.856  -1.636  0.00  0.00     0.274 HD
ENDBRANCH  16  17
ENDBRANCH  15  16
ENDBRANCH  14  15
ENDBRANCH   1  14
BRANCH   1  21
HETATM   21  N           1     -22.376  -6.344  -4.589  0.00  0.00    -0.067 N 
HETATM   22  H           1     -22.292  -5.934  -5.546  0.00  0.00     0.275 HD
HETATM   23  H           1     -22.853  -5.661  -3.958  0.00  0.00     0.275 HD
HETATM   24  H           1     -22.936  -7.225  -4.636  0.00  0.00     0.275 HD
ENDBRANCH   1  21
TORSDOF 10
ENDMDL
MODEL 9
REMARK VINA RESULT:      -5.3     17.762     19.305
REMARK  10 active torsions:
REMARK  status: ('A' for Active; 'I' for Inactive)
REMARK    1  A    between atoms: C_5  and  C_21 
REMARK    2  A    between atoms: C_5  and  C_15 
REMARK    3  A    between atoms: C_5  and  N_16 
REMARK    4  A    between atoms: C_6  and  C_15 
REMARK    5  A    between atoms: C_6  and  C_13 
REMARK    6  A    between atoms: C_10  and  C_23 
REMARK    7  A    between atoms: C_10  and  C_12 
REMARK    8  A    between atoms: C_12  and  C_14 
REMARK    9  A    between atoms: C_12  and  N_19 
REMARK   10  A    between atoms: C_13  and  N_22 
REMARK       I    between atoms: N_19  and  C_21 
ROOT
HETATM    1  C           1     -21.255  -6.801  -2.349  0.00  0.00     0.274 C 
ENDROOT
BRANCH   1   2
HETATM    2  C           1     -20.970  -8.228  -2.747  0.00  0.00     0.249 C 
HETATM    3  O           1     -21.813  -8.875  -3.320  0.00  0.00    -0.271 OA
HETATM    4  N           1     -19.755  -8.789  -2.458  0.00  0.00    -0.344 N 
HETATM    5  H           1     -19.049  -8.247  -1.977  0.00  0.00     0.163 HD
BRANCH   4   6
HETATM    6  C           1     -19.481 -10.161  -2.840  0.00  0.00     0.189 C 
BRANCH   6   7
HETATM    7  C           1     -18.144 -10.227  -3.567  0.00  0.00     0.014 C 
HETATM    8  C           1     -18.314  -9.712  -4.990  0.00  0.00     0.012 C 
BRANCH   7   9
HETATM    9  C           1     -17.125  -9.367  -2.833  0.00  0.00     0.002 C 
HETATM   10  C           1     -15.854 -10.173  -2.598  0.00  0.00     0.005 C 
ENDBRANCH   7   9
ENDBRANCH   6   7
BRANCH   6  11
HETATM   11  C           1     -19.428 -11.025  -1.606  0.00  0.00     0.197 C 
HETATM   12  O           1     -20.049 -10.686  -0.576  0.00  0.00    -0.646 OA
HETATM   13  O           1     -18.761 -12.083  -1.611  0.00  0.00    -0.646 OA
ENDBRANCH   6  11
ENDBRANCH   4   6
ENDBRANCH   1   2
BRANCH   1  14
HETATM   14  C           1     -22.385  -6.773  -1.328  0.00  0.00     0.044 C 
BRANCH  14  15
HETATM   15  C           1     -21.983  -7.583  -0.103  0.00  0.00     0.030 C 
BRANCH  15  16
HETATM   16  C           1     -23.124  -8.509   0.292  0.00  0.00     0.230 C 
BRANCH  16  17
HETATM   17  N           1     -22.996  -9.807  -0.448  0.00  0.00    -0.079 N 
HETATM   18  H           1     -23.170 -10.601   0.208  0.00  0.00     0.274 HD
HETATM   19  H           1     -22.033  -9.887  -0.845  0.00  0.00     0.274 HD
HETATM   20  H           1     -23.696  -9.837  -1.224  0.00  0.00     0.274 HD
ENDBRANCH  16  17
ENDBRANCH  15  16
ENDBRANCH  14  15
ENDBRANCH   1  14
BRANCH   1  21
HETATM   21  N           1     -21.659  -6.015  -3.561  0.00  0.00    -0.067 N 
HETATM   22  H           1     -20.832  -5.494  -3.931  0.00  0.00     0.275 HD
HETATM   23  H           1     -22.410  -5.336  -3.301  0.00  0.00     0.275 HD
HETATM   24  H           1     -22.016  -6.668  -4.295  0.00  0.00     0.275 HD
ENDBRANCH   1  21
TORSDOF 10
ENDMDL
