MODEL 1
REMARK VINA RESULT:      -5.3      0.000      0.000
REMARK  7 active torsions:
REMARK  status: ('A' for Active; 'I' for Inactive)
REMARK    1  A    between atoms: C_1  and  C_8 
REMARK    2  A    between atoms: C_1  and  O_2 
REMARK    3  A    between atoms: O_2  and  P_3 
REMARK    4  A    between atoms: P_3  and  O_10 
REMARK    5  A    between atoms: C_6  and  C_8 
REMARK    6  A    between atoms: C_8  and  N_23 
REMARK    7  A    between atoms: C_21  and  C_22 
REMARK       I    between atoms: C_22  and  N_23 
ROOT
HETATM    1  O           1     -21.068  -6.643  -7.336  0.00  0.00    -0.271 OA
HETATM    2  C           1     -20.645  -5.782  -6.601  0.00  0.00     0.249 C 
HETATM    3  N           1     -20.578  -6.006  -5.253  0.00  0.00    -0.343 N 
HETATM    4  H           1     -20.225  -5.285  -4.636  0.00  0.00     0.163 HD
ENDROOT
BRANCH   3   5
HETATM    5  C           1     -21.014  -7.277  -4.706  0.00  0.00     0.210 C 
BRANCH   5   6
HETATM    6  C           1     -19.819  -8.212  -4.584  0.00  0.00     0.217 C 
BRANCH   6   7
HETATM    7  O           1     -19.829  -9.125  -5.649  0.00  0.00    -0.287 OA
BRANCH   7   8
HETATM    8  P           1     -20.369 -10.608  -5.305  0.00  0.00     0.406 P 
HETATM    9  O           1     -19.225 -11.488  -4.978  0.00  0.00    -0.624 OA
HETATM   10  O           1     -21.092 -11.153  -6.476  0.00  0.00    -0.624 OA
BRANCH   8  11
HETATM   11  O           1     -21.370 -10.534  -4.040  0.00  0.00    -0.300 OA
HETATM   12  H           1     -21.725  -9.662  -4.060  0.00  0.00     0.223 HD
ENDBRANCH   8  11
ENDBRANCH   7   8
ENDBRANCH   6   7
ENDBRANCH   5   6
BRANCH   5  13
HETATM   13  C           1     -21.622  -7.055  -3.342  0.00  0.00     0.198 C 
HETATM   14  O           1     -21.452  -7.901  -2.438  0.00  0.00    -0.646 OA
HETATM   15  O           1     -22.294  -6.026  -3.118  0.00  0.00    -0.646 OA
ENDBRANCH   5  13
ENDBRANCH   3   5
BRANCH   2  16
HETATM   16  C           1     -20.192  -4.459  -7.170  0.00  0.00     0.274 C 
HETATM   17  N           1     -19.753  -4.651  -8.591  0.00  0.00    -0.067 N 
HETATM   18  H           1     -19.440  -3.736  -8.986  0.00  0.00     0.275 HD
HETATM   19  H           1     -18.961  -5.333  -8.622  0.00  0.00     0.275 HD
HETATM   20  H           1     -20.552  -5.019  -9.156  0.00  0.00     0.275 HD
HETATM   21 Se           1     -21.938  -4.250  -9.797  0.00  0.00     0.000 Se
HETATM   22  C           1     -23.666  -4.906 -10.414  0.00  0.00     0.000 C 
HETATM   23  C           1     -22.509  -4.001  -7.950  0.00  0.00     0.003 C 
HETATM   24  C           1     -21.346  -3.466  -7.125  0.00  0.00     0.042 C 
ENDBRANCH   2  16
TORSDOF 7
ENDMDL
MODEL 2
REMARK VINA RESULT:      -5.2      3.927      6.765
REMARK  7 active torsions:
REMARK  status: ('A' for Active; 'I' for Inactive)
REMARK    1  A    between atoms: C_1  and  C_8 
REMARK    2  A    between atoms: C_1  and  O_2 
REMARK    3  A    between atoms: O_2  and  P_3 
REMARK    4  A    between atoms: P_3  and  O_10 
REMARK    5  A    between atoms: C_6  and  C_8 
REMARK    6  A    between atoms: C_8  and  N_23 
REMARK    7  A    between atoms: C_21  and  C_22 
REMARK       I    between atoms: C_22  and  N_23 
ROOT
HETATM    1  O           1     -21.533  -7.301  -6.753  0.00  0.00    -0.271 OA
HETATM    2  C           1     -21.308  -6.359  -6.032  0.00  0.00     0.249 C 
HETATM    3  N           1     -21.264  -5.094  -6.552  0.00  0.00    -0.343 N 
HETATM    4  H           1     -21.075  -4.304  -5.948  0.00  0.00     0.163 HD
ENDROOT
BRANCH   3   5
HETATM    5  C           1     -21.488  -4.884  -7.970  0.00  0.00     0.210 C 
BRANCH   5   6
HETATM    6  C           1     -22.402  -3.682  -8.166  0.00  0.00     0.217 C 
BRANCH   6   7
HETATM    7  O           1     -23.626  -4.108  -8.704  0.00  0.00    -0.287 OA
BRANCH   7   8
HETATM    8  P           1     -23.779  -3.975 -10.306  0.00  0.00     0.406 P 
HETATM    9  O           1     -25.031  -3.253 -10.625  0.00  0.00    -0.624 OA
HETATM   10  O           1     -23.819  -5.324 -10.911  0.00  0.00    -0.624 OA
BRANCH   8  11
HETATM   11  O           1     -22.520  -3.154 -10.899  0.00  0.00    -0.300 OA
HETATM   12  H           1     -21.961  -2.996 -10.158  0.00  0.00     0.223 HD
ENDBRANCH   8  11
ENDBRANCH   7   8
ENDBRANCH   6   7
ENDBRANCH   5   6
BRANCH   5  13
HETATM   13  C           1     -20.167  -4.630  -8.655  0.00  0.00     0.198 C 
HETATM   14  O           1     -20.089  -4.689  -9.901  0.00  0.00    -0.646 OA
HETATM   15  O           1     -19.153  -4.360  -7.977  0.00  0.00    -0.646 OA
ENDBRANCH   5  13
ENDBRANCH   3   5
BRANCH   2  16
HETATM   16  C           1     -21.074  -6.576  -4.557  0.00  0.00     0.274 C 
HETATM   17  N           1     -22.254  -7.287  -3.964  0.00  0.00    -0.067 N 
HETATM   18  H           1     -22.093  -7.438  -2.943  0.00  0.00     0.275 HD
HETATM   19  H           1     -23.113  -6.707  -4.099  0.00  0.00     0.275 HD
HETATM   20  H           1     -22.379  -8.210  -4.438  0.00  0.00     0.275 HD
HETATM   21 Se           1     -21.539  -9.690  -4.278  0.00  0.00     0.000 Se
HETATM   22  C           1     -21.372 -11.263  -5.417  0.00  0.00     0.000 C 
HETATM   23  C           1     -20.005  -8.768  -5.049  0.00  0.00     0.003 C 
HETATM   24  C           1     -19.822  -7.422  -4.361  0.00  0.00     0.042 C 
ENDBRANCH   2  16
TORSDOF 7
ENDMDL
MODEL 3
REMARK VINA RESULT:      -5.0      4.846      6.525
REMARK  7 active torsions:
REMARK  status: ('A' for Active; 'I' for Inactive)
REMARK    1  A    between atoms: C_1  and  C_8 
REMARK    2  A    between atoms: C_1  and  O_2 
REMARK    3  A    between atoms: O_2  and  P_3 
REMARK    4  A    between atoms: P_3  and  O_10 
REMARK    5  A    between atoms: C_6  and  C_8 
REMARK    6  A    between atoms: C_8  and  N_23 
REMARK    7  A    between atoms: C_21  and  C_22 
REMARK       I    between atoms: C_22  and  N_23 
ROOT
HETATM    1  O           1     -20.487 -10.250  -0.323  0.00  0.00    -0.271 OA
HETATM    2  C           1     -21.433 -10.341  -1.067  0.00  0.00     0.249 C 
HETATM    3  N           1     -21.884  -9.237  -1.740  0.00  0.00    -0.343 N 
HETATM    4  H           1     -22.677  -9.313  -2.364  0.00  0.00     0.163 HD
ENDROOT
BRANCH   3   5
HETATM    5  C           1     -21.223  -7.958  -1.560  0.00  0.00     0.210 C 
BRANCH   5   6
HETATM    6  C           1     -20.487  -7.583  -2.839  0.00  0.00     0.217 C 
BRANCH   6   7
HETATM    7  O           1     -21.205  -8.055  -3.948  0.00  0.00    -0.287 OA
BRANCH   7   8
HETATM    8  P           1     -21.431  -6.997  -5.147  0.00  0.00     0.406 P 
HETATM    9  O           1     -21.382  -7.703  -6.446  0.00  0.00    -0.624 OA
HETATM   10  O           1     -20.367  -5.968  -5.104  0.00  0.00    -0.624 OA
BRANCH   8  11
HETATM   11  O           1     -22.873  -6.289  -4.973  0.00  0.00    -0.300 OA
HETATM   12  H           1     -23.390  -6.611  -5.692  0.00  0.00     0.223 HD
ENDBRANCH   8  11
ENDBRANCH   7   8
ENDBRANCH   6   7
ENDBRANCH   5   6
BRANCH   5  13
HETATM   13  C           1     -22.253  -6.902  -1.242  0.00  0.00     0.198 C 
HETATM   14  O           1     -23.055  -7.074  -0.299  0.00  0.00    -0.646 OA
HETATM   15  O           1     -22.304  -5.855  -1.923  0.00  0.00    -0.646 OA
ENDBRANCH   5  13
ENDBRANCH   3   5
BRANCH   2  16
HETATM   16  C           1     -22.121 -11.671  -1.255  0.00  0.00     0.274 C 
HETATM   17  N           1     -23.308 -11.497  -2.157  0.00  0.00    -0.067 N 
HETATM   18  H           1     -23.785 -12.417  -2.288  0.00  0.00     0.275 HD
HETATM   19  H           1     -23.975 -10.817  -1.725  0.00  0.00     0.275 HD
HETATM   20  H           1     -22.990 -11.133  -3.084  0.00  0.00     0.275 HD
HETATM   21 Se           1     -22.230 -11.906  -4.406  0.00  0.00     0.000 Se
HETATM   22  C           1     -21.191 -11.252  -5.919  0.00  0.00     0.000 C 
HETATM   23  C           1     -20.689 -12.132  -3.236  0.00  0.00     0.003 C 
HETATM   24  C           1     -21.149 -12.661  -1.884  0.00  0.00     0.042 C 
ENDBRANCH   2  16
TORSDOF 7
ENDMDL
MODEL 4
REMARK VINA RESULT:      -5.0      5.033      7.499
REMARK  7 active torsions:
REMARK  status: ('A' for Active; 'I' for Inactive)
REMARK    1  A    between atoms: C_1  and  C_8 
REMARK    2  A    between atoms: C_1  and  O_2 
REMARK    3  A    between atoms: O_2  and  P_3 
REMARK    4  A    between atoms: P_3  and  O_10 
REMARK    5  A    between atoms: C_6  and  C_8 
REMARK    6  A    between atoms: C_8  and  N_23 
REMARK    7  A    between atoms: C_21  and  C_22 
REMARK       I    between atoms: C_22  and  N_23 
ROOT
HETATM    1  O           1     -19.733 -10.235  -2.729  0.00  0.00    -0.271 OA
HETATM    2  C           1     -20.796 -10.368  -2.171  0.00  0.00     0.249 C 
HETATM    3  N           1     -21.625  -9.290  -2.011  0.00  0.00    -0.343 N 
HETATM    4  H           1     -22.516  -9.401  -1.544  0.00  0.00     0.163 HD
ENDROOT
BRANCH   3   5
HETATM    5  C           1     -21.227  -7.989  -2.513  0.00  0.00     0.210 C 
BRANCH   5   6
HETATM    6  C           1     -21.551  -7.898  -3.998  0.00  0.00     0.217 C 
BRANCH   6   7
HETATM    7  O           1     -20.519  -7.216  -4.661  0.00  0.00    -0.287 OA
BRANCH   7   8
HETATM    8  P           1     -20.981  -6.050  -5.677  0.00  0.00     0.406 P 
HETATM    9  O           1     -20.733  -6.481  -7.072  0.00  0.00    -0.624 OA
HETATM   10  O           1     -20.210  -4.818  -5.397  0.00  0.00    -0.624 OA
BRANCH   8  11
HETATM   11  O           1     -22.557  -5.756  -5.478  0.00  0.00    -0.300 OA
HETATM   12  H           1     -22.707  -5.853  -4.553  0.00  0.00     0.223 HD
ENDBRANCH   8  11
ENDBRANCH   7   8
ENDBRANCH   6   7
ENDBRANCH   5   6
BRANCH   5  13
HETATM   13  C           1     -21.977  -6.913  -1.767  0.00  0.00     0.198 C 
HETATM   14  O           1     -22.132  -7.002  -0.529  0.00  0.00    -0.646 OA
HETATM   15  O           1     -22.442  -5.932  -2.385  0.00  0.00    -0.646 OA
ENDBRANCH   5  13
ENDBRANCH   3   5
BRANCH   2  16
HETATM   16  C           1     -21.210 -11.722  -1.648  0.00  0.00     0.274 C 
HETATM   17  N           1     -20.283 -12.771  -2.187  0.00  0.00    -0.067 N 
HETATM   18  H           1     -20.568 -13.708  -1.826  0.00  0.00     0.275 HD
HETATM   19  H           1     -20.328 -12.771  -3.232  0.00  0.00     0.275 HD
HETATM   20  H           1     -19.305 -12.561  -1.881  0.00  0.00     0.275 HD
HETATM   21 Se           1     -18.515 -12.781  -0.381  0.00  0.00     0.000 Se
HETATM   22  C           1     -16.913 -12.005   0.413  0.00  0.00     0.000 C 
HETATM   23  C           1     -19.720 -11.419   0.320  0.00  0.00     0.003 C 
HETATM   24  C           1     -21.144 -11.721  -0.127  0.00  0.00     0.042 C 
ENDBRANCH   2  16
TORSDOF 7
ENDMDL
MODEL 5
REMARK VINA RESULT:      -5.0      4.150      6.292
REMARK  7 active torsions:
REMARK  status: ('A' for Active; 'I' for Inactive)
REMARK    1  A    between atoms: C_1  and  C_8 
REMARK    2  A    between atoms: C_1  and  O_2 
REMARK    3  A    between atoms: O_2  and  P_3 
REMARK    4  A    between atoms: P_3  and  O_10 
REMARK    5  A    between atoms: C_6  and  C_8 
REMARK    6  A    between atoms: C_8  and  N_23 
REMARK    7  A    between atoms: C_21  and  C_22 
REMARK       I    between atoms: C_22  and  N_23 
ROOT
HETATM    1  O           1     -21.451 -10.744  -4.103  0.00  0.00    -0.271 OA
HETATM    2  C           1     -20.534 -10.132  -4.596  0.00  0.00     0.249 C 
HETATM    3  N           1     -20.338  -8.815  -4.276  0.00  0.00    -0.343 N 
HETATM    4  H           1     -19.570  -8.302  -4.689  0.00  0.00     0.163 HD
ENDROOT
BRANCH   3   5
HETATM    5  C           1     -21.232  -8.155  -3.344  0.00  0.00     0.210 C 
BRANCH   5   6
HETATM    6  C           1     -20.553  -8.041  -1.985  0.00  0.00     0.217 C 
BRANCH   6   7
HETATM    7  O           1     -21.127  -8.961  -1.096  0.00  0.00    -0.287 OA
BRANCH   7   8
HETATM    8  P           1     -22.201  -8.360  -0.051  0.00  0.00     0.406 P 
HETATM    9  O           1     -21.562  -8.192   1.274  0.00  0.00    -0.624 OA
HETATM   10  O           1     -23.347  -9.289   0.068  0.00  0.00    -0.624 OA
BRANCH   8  11
HETATM   11  O           1     -22.722  -6.926  -0.582  0.00  0.00    -0.300 OA
HETATM   12  H           1     -23.554  -7.103  -0.985  0.00  0.00     0.223 HD
ENDBRANCH   8  11
ENDBRANCH   7   8
ENDBRANCH   6   7
ENDBRANCH   5   6
BRANCH   5  13
HETATM   13  C           1     -21.566  -6.777  -3.858  0.00  0.00     0.198 C 
HETATM   14  O           1     -22.311  -6.025  -3.192  0.00  0.00    -0.646 OA
HETATM   15  O           1     -21.099  -6.387  -4.949  0.00  0.00    -0.646 OA
ENDBRANCH   5  13
ENDBRANCH   3   5
BRANCH   2  16
HETATM   16  C           1     -19.604 -10.817  -5.567  0.00  0.00     0.274 C 
HETATM   17  N           1     -18.630  -9.817  -6.118  0.00  0.00    -0.067 N 
HETATM   18  H           1     -17.986 -10.291  -6.790  0.00  0.00     0.275 HD
HETATM   19  H           1     -19.154  -9.059  -6.612  0.00  0.00     0.275 HD
HETATM   20  H           1     -18.076  -9.404  -5.334  0.00  0.00     0.275 HD
HETATM   21 Se           1     -16.767 -10.020  -4.422  0.00  0.00     0.000 Se
HETATM   22  C           1     -16.011  -9.555  -2.687  0.00  0.00     0.000 C 
HETATM   23  C           1     -18.031 -11.319  -3.706  0.00  0.00     0.003 C 
HETATM   24  C           1     -18.842 -11.922  -4.846  0.00  0.00     0.042 C 
ENDBRANCH   2  16
TORSDOF 7
ENDMDL
MODEL 6
REMARK VINA RESULT:      -5.0     11.959     14.761
REMARK  7 active torsions:
REMARK  status: ('A' for Active; 'I' for Inactive)
REMARK    1  A    between atoms: C_1  and  C_8 
REMARK    2  A    between atoms: C_1  and  O_2 
REMARK    3  A    between atoms: O_2  and  P_3 
REMARK    4  A    between atoms: P_3  and  O_10 
REMARK    5  A    between atoms: C_6  and  C_8 
REMARK    6  A    between atoms: C_8  and  N_23 
REMARK    7  A    between atoms: C_21  and  C_22 
REMARK       I    between atoms: C_22  and  N_23 
ROOT
HETATM    1  O           1     -28.965  -5.203 -19.366  0.00  0.00    -0.271 OA
HETATM    2  C           1     -28.798  -6.241 -18.772  0.00  0.00     0.249 C 
HETATM    3  N           1     -27.940  -7.184 -19.270  0.00  0.00    -0.343 N 
HETATM    4  H           1     -27.800  -8.054 -18.773  0.00  0.00     0.163 HD
ENDROOT
BRANCH   3   5
HETATM    5  C           1     -27.230  -6.936 -20.510  0.00  0.00     0.210 C 
BRANCH   5   6
HETATM    6  C           1     -25.894  -6.272 -20.205  0.00  0.00     0.217 C 
BRANCH   6   7
HETATM    7  O           1     -25.453  -6.668 -18.934  0.00  0.00    -0.287 OA
BRANCH   7   8
HETATM    8  P           1     -23.936  -7.214 -18.849  0.00  0.00     0.406 P 
HETATM    9  O           1     -23.720  -7.874 -17.541  0.00  0.00    -0.624 OA
HETATM   10  O           1     -22.996  -6.080 -18.990  0.00  0.00    -0.624 OA
BRANCH   8  11
HETATM   11  O           1     -23.680  -8.278 -20.037  0.00  0.00    -0.300 OA
HETATM   12  H           1     -22.948  -7.934 -20.518  0.00  0.00     0.223 HD
ENDBRANCH   8  11
ENDBRANCH   7   8
ENDBRANCH   6   7
ENDBRANCH   5   6
BRANCH   5  13
HETATM   13  C           1     -26.992  -8.244 -21.223  0.00  0.00     0.198 C 
HETATM   14  O           1     -25.851  -8.524 -21.652  0.00  0.00    -0.646 OA
HETATM   15  O           1     -27.934  -9.049 -21.385  0.00  0.00    -0.646 OA
ENDBRANCH   5  13
ENDBRANCH   3   5
BRANCH   2  16
HETATM   16  C           1     -29.537  -6.500 -17.482  0.00  0.00     0.274 C 
HETATM   17  N           1     -29.100  -7.817 -16.912  0.00  0.00    -0.067 N 
HETATM   18  H           1     -29.610  -7.997 -16.018  0.00  0.00     0.275 HD
HETATM   19  H           1     -29.313  -8.579 -17.595  0.00  0.00     0.275 HD
HETATM   20  H           1     -28.071  -7.792 -16.727  0.00  0.00     0.275 HD
HETATM   21 Se           1     -27.160  -7.066 -15.476  0.00  0.00     0.000 Se
HETATM   22  C           1     -25.286  -6.557 -15.309  0.00  0.00     0.000 C 
HETATM   23  C           1     -27.728  -5.355 -16.216  0.00  0.00     0.003 C 
HETATM   24  C           1     -29.226  -5.389 -16.487  0.00  0.00     0.042 C 
ENDBRANCH   2  16
TORSDOF 7
ENDMDL
MODEL 7
REMARK VINA RESULT:      -5.0      3.899      6.219
REMARK  7 active torsions:
REMARK  status: ('A' for Active; 'I' for Inactive)
REMARK    1  A    between atoms: C_1  and  C_8 
REMARK    2  A    between atoms: C_1  and  O_2 
REMARK    3  A    between atoms: O_2  and  P_3 
REMARK    4  A    between atoms: P_3  and  O_10 
REMARK    5  A    between atoms: C_6  and  C_8 
REMARK    6  A    between atoms: C_8  and  N_23 
REMARK    7  A    between atoms: C_21  and  C_22 
REMARK       I    between atoms: C_22  and  N_23 
ROOT
HETATM    1  O           1     -19.664  -8.735  -5.514  0.00  0.00    -0.271 OA
HETATM    2  C           1     -20.714  -9.186  -5.121  0.00  0.00     0.249 C 
HETATM    3  N           1     -21.509  -8.445  -4.289  0.00  0.00    -0.343 N 
HETATM    4  H           1     -22.388  -8.822  -3.959  0.00  0.00     0.163 HD
ENDROOT
BRANCH   3   5
HETATM    5  C           1     -21.091  -7.118  -3.878  0.00  0.00     0.210 C 
BRANCH   5   6
HETATM    6  C           1     -21.687  -6.084  -4.824  0.00  0.00     0.217 C 
BRANCH   6   7
HETATM    7  O           1     -20.692  -5.174  -5.211  0.00  0.00    -0.287 OA
BRANCH   7   8
HETATM    8  P           1     -20.506  -4.963  -6.801  0.00  0.00     0.406 P 
HETATM    9  O           1     -21.360  -3.842  -7.254  0.00  0.00    -0.624 OA
HETATM   10  O           1     -20.897  -6.200  -7.512  0.00  0.00    -0.624 OA
BRANCH   8  11
HETATM   11  O           1     -18.959  -4.623  -7.121  0.00  0.00    -0.300 OA
HETATM   12  H           1     -18.960  -4.294  -8.003  0.00  0.00     0.223 HD
ENDBRANCH   8  11
ENDBRANCH   7   8
ENDBRANCH   6   7
ENDBRANCH   5   6
BRANCH   5  13
HETATM   13  C           1     -21.572  -6.852  -2.473  0.00  0.00     0.198 C 
HETATM   14  O           1     -22.410  -5.949  -2.260  0.00  0.00    -0.646 OA
HETATM   15  O           1     -21.132  -7.534  -1.522  0.00  0.00    -0.646 OA
ENDBRANCH   5  13
ENDBRANCH   3   5
BRANCH   2  16
HETATM   16  C           1     -21.149 -10.567  -5.547  0.00  0.00     0.274 C 
HETATM   17  N           1     -20.100 -11.170  -6.434  0.00  0.00    -0.067 N 
HETATM   18  H           1     -20.400 -12.126  -6.729  0.00  0.00     0.275 HD
HETATM   19  H           1     -19.972 -10.568  -7.279  0.00  0.00     0.275 HD
HETATM   20  H           1     -19.197 -11.233  -5.911  0.00  0.00     0.275 HD
HETATM   21 Se           1     -18.657 -12.321  -4.708  0.00  0.00     0.000 Se
HETATM   22  C           1     -17.244 -12.238  -3.368  0.00  0.00     0.000 C 
HETATM   23  C           1     -20.019 -11.538  -3.555  0.00  0.00     0.003 C 
HETATM   24  C           1     -21.335 -11.443  -4.315  0.00  0.00     0.042 C 
ENDBRANCH   2  16
TORSDOF 7
ENDMDL
MODEL 8
REMARK VINA RESULT:      -4.9      4.874      7.528
REMARK  7 active torsions:
REMARK  status: ('A' for Active; 'I' for Inactive)
REMARK    1  A    between atoms: C_1  and  C_8 
REMARK    2  A    between atoms: C_1  and  O_2 
REMARK    3  A    between atoms: O_2  and  P_3 
REMARK    4  A    between atoms: P_3  and  O_10 
REMARK    5  A    between atoms: C_6  and  C_8 
REMARK    6  A    between atoms: C_8  and  N_23 
REMARK    7  A    between atoms: C_21  and  C_22 
REMARK       I    between atoms: C_22  and  N_23 
ROOT
HETATM    1  O           1     -22.438 -10.244  -2.401  0.00  0.00    -0.271 OA
HETATM    2  C           1     -22.173  -9.440  -1.540  0.00  0.00     0.249 C 
HETATM    3  N           1     -21.572  -8.255  -1.870  0.00  0.00    -0.343 N 
HETATM    4  H           1     -21.351  -7.581  -1.148  0.00  0.00     0.163 HD
ENDROOT
BRANCH   3   5
HETATM    5  C           1     -21.253  -7.965  -3.255  0.00  0.00     0.210 C 
BRANCH   5   6
HETATM    6  C           1     -21.288  -6.459  -3.478  0.00  0.00     0.217 C 
BRANCH   6   7
HETATM    7  O           1     -22.142  -6.164  -4.551  0.00  0.00    -0.287 OA
BRANCH   7   8
HETATM    8  P           1     -21.428  -5.640  -5.901  0.00  0.00     0.406 P 
HETATM    9  O           1     -20.290  -4.761  -5.550  0.00  0.00    -0.624 OA
HETATM   10  O           1     -22.405  -4.881  -6.713  0.00  0.00    -0.624 OA
BRANCH   8  11
HETATM   11  O           1     -20.889  -6.905  -6.748  0.00  0.00    -0.300 OA
HETATM   12  H           1     -20.985  -6.652  -7.651  0.00  0.00     0.223 HD
ENDBRANCH   8  11
ENDBRANCH   7   8
ENDBRANCH   6   7
ENDBRANCH   5   6
BRANCH   5  13
HETATM   13  C           1     -19.875  -8.491  -3.573  0.00  0.00     0.198 C 
HETATM   14  O           1     -19.122  -8.868  -2.650  0.00  0.00    -0.646 OA
HETATM   15  O           1     -19.487  -8.548  -4.760  0.00  0.00    -0.646 OA
ENDBRANCH   5  13
ENDBRANCH   3   5
BRANCH   2  16
HETATM   16  C           1     -22.505  -9.741  -0.098  0.00  0.00     0.274 C 
HETATM   17  N           1     -23.225 -11.054  -0.015  0.00  0.00    -0.067 N 
HETATM   18  H           1     -23.455 -11.263   0.982  0.00  0.00     0.275 HD
HETATM   19  H           1     -24.108 -11.001  -0.572  0.00  0.00     0.275 HD
HETATM   20  H           1     -22.615 -11.811  -0.400  0.00  0.00     0.275 HD
HETATM   21 Se           1     -21.267 -12.627   0.263  0.00  0.00     0.000 Se
HETATM   22  C           1     -19.813 -13.661  -0.521  0.00  0.00     0.000 C 
HETATM   23  C           1     -20.330 -10.922   0.155  0.00  0.00     0.003 C 
HETATM   24  C           1     -21.217  -9.817   0.713  0.00  0.00     0.042 C 
ENDBRANCH   2  16
TORSDOF 7
ENDMDL
MODEL 9
REMARK VINA RESULT:      -4.9      5.008      7.003
REMARK  7 active torsions:
REMARK  status: ('A' for Active; 'I' for Inactive)
REMARK    1  A    between atoms: C_1  and  C_8 
REMARK    2  A    between atoms: C_1  and  O_2 
REMARK    3  A    between atoms: O_2  and  P_3 
REMARK    4  A    between atoms: P_3  and  O_10 
REMARK    5  A    between atoms: C_6  and  C_8 
REMARK    6  A    between atoms: C_8  and  N_23 
REMARK    7  A    between atoms: C_21  and  C_22 
REMARK       I    between atoms: C_22  and  N_23 
ROOT
HETATM    1  O           1     -21.818  -9.159   0.700  0.00  0.00    -0.271 OA
HETATM    2  C           1     -22.308  -9.644  -0.292  0.00  0.00     0.249 C 
HETATM    3  N           1     -22.017  -9.125  -1.524  0.00  0.00    -0.343 N 
HETATM    4  H           1     -22.427  -9.531  -2.355  0.00  0.00     0.163 HD
ENDROOT
BRANCH   3   5
HETATM    5  C           1     -21.119  -7.992  -1.640  0.00  0.00     0.210 C 
BRANCH   5   6
HETATM    6  C           1     -20.140  -8.236  -2.781  0.00  0.00     0.217 C 
BRANCH   6   7
HETATM    7  O           1     -20.609  -9.285  -3.585  0.00  0.00    -0.287 OA
BRANCH   7   8
HETATM    8  P           1     -20.633  -9.002  -5.174  0.00  0.00     0.406 P 
HETATM    9  O           1     -21.084 -10.219  -5.887  0.00  0.00    -0.624 OA
HETATM   10  O           1     -19.273  -8.638  -5.631  0.00  0.00    -0.624 OA
BRANCH   8  11
HETATM   11  O           1     -21.651  -7.787  -5.488  0.00  0.00    -0.300 OA
HETATM   12  H           1     -22.147  -8.073  -6.236  0.00  0.00     0.223 HD
ENDBRANCH   8  11
ENDBRANCH   7   8
ENDBRANCH   6   7
ENDBRANCH   5   6
BRANCH   5  13
HETATM   13  C           1     -21.918  -6.744  -1.920  0.00  0.00     0.198 C 
HETATM   14  O           1     -22.640  -6.251  -1.027  0.00  0.00    -0.646 OA
HETATM   15  O           1     -21.859  -6.203  -3.045  0.00  0.00    -0.646 OA
ENDBRANCH   5  13
ENDBRANCH   3   5
BRANCH   2  16
HETATM   16  C           1     -23.243 -10.823  -0.172  0.00  0.00     0.274 C 
HETATM   17  N           1     -23.819 -11.142  -1.520  0.00  0.00    -0.067 N 
HETATM   18  H           1     -24.467 -11.958  -1.439  0.00  0.00     0.275 HD
HETATM   19  H           1     -24.347 -10.314  -1.878  0.00  0.00     0.275 HD
HETATM   20  H           1     -23.045 -11.376  -2.183  0.00  0.00     0.275 HD
HETATM   21 Se           1     -22.097 -12.786  -2.368  0.00  0.00     0.000 Se
HETATM   22  C           1     -20.372 -13.137  -3.204  0.00  0.00     0.000 C 
HETATM   23  C           1     -21.349 -12.372  -0.618  0.00  0.00     0.003 C 
HETATM   24  C           1     -22.475 -12.030   0.349  0.00  0.00     0.042 C 
ENDBRANCH   2  16
TORSDOF 7
ENDMDL
