MODEL 1
REMARK VINA RESULT:      -5.2      0.000      0.000
REMARK  7 active torsions:
REMARK  status: ('A' for Active; 'I' for Inactive)
REMARK    1  A    between atoms: C_3  and  C_24 
REMARK    2  A    between atoms: C_8  and  C_9 
REMARK    3  A    between atoms: C_8  and  C_22 
REMARK    4  A    between atoms: C_9  and  C_18 
REMARK    5  A    between atoms: C_12  and  C_22 
REMARK    6  A    between atoms: N_17  and  C_18 
REMARK    7  A    between atoms: C_22  and  N_23 
REMARK       I    between atoms: N_23  and  C_24 
ROOT
HETATM    1  O           1     -28.709  -5.114 -19.607  0.00  0.00    -0.271 OA
HETATM    2  H           1     -27.513  -7.892 -18.774  0.00  0.00     0.163 HD
HETATM    3  N           1     -27.649  -7.061 -19.335  0.00  0.00    -0.345 N 
HETATM    4  C           1     -28.545  -6.106 -18.937  0.00  0.00     0.249 C 
ENDROOT
BRANCH   3   5
HETATM    5  C           1     -26.899  -6.884 -20.563  0.00  0.00     0.185 C 
BRANCH   5   6
HETATM    6  C           1     -25.512  -6.345 -20.235  0.00  0.00     0.038 C 
BRANCH   6   7
HETATM    7  C           1     -25.059  -6.891 -18.886  0.00  0.00     0.030 C 
BRANCH   7   8
HETATM    8  C           1     -23.570  -7.200 -18.937  0.00  0.00     0.230 C 
BRANCH   8   9
HETATM    9  N           1     -23.278  -8.063 -20.129  0.00  0.00    -0.079 N 
HETATM   10  H           1     -23.680  -7.621 -20.985  0.00  0.00     0.274 HD
HETATM   11  H           1     -23.706  -9.007 -19.988  0.00  0.00     0.274 HD
HETATM   12  H           1     -22.244  -8.164 -20.242  0.00  0.00     0.274 HD
ENDBRANCH   8   9
ENDBRANCH   7   8
ENDBRANCH   6   7
ENDBRANCH   5   6
BRANCH   5  13
HETATM   13  C           1     -26.770  -8.210 -21.270  0.00  0.00     0.196 C 
HETATM   14  O           1     -27.762  -8.963 -21.373  0.00  0.00    -0.646 OA
HETATM   15  O           1     -25.670  -8.557 -21.753  0.00  0.00    -0.646 OA
ENDBRANCH   5  13
ENDBRANCH   3   5
BRANCH   4  16
HETATM   16  C           1     -29.327  -6.291 -17.660  0.00  0.00     0.274 C 
HETATM   17  C           1     -28.940  -5.204 -16.665  0.00  0.00     0.042 C 
HETATM   18  C           1     -27.450  -5.297 -16.365  0.00  0.00     0.003 C 
HETATM   19 Se           1     -27.047  -7.046 -15.605  0.00  0.00     0.000 Se
HETATM   20  C           1     -25.139  -6.700 -15.403  0.00  0.00     0.000 C 
HETATM   21  H           1     -27.994  -7.700 -16.869  0.00  0.00     0.275 HD
HETATM   22  N           1     -29.017  -7.638 -17.074  0.00  0.00    -0.067 N 
HETATM   23  H           1     -29.282  -8.382 -17.757  0.00  0.00     0.275 HD
HETATM   24  H           1     -29.558  -7.766 -16.191  0.00  0.00     0.275 HD
ENDBRANCH   4  16
TORSDOF 7
ENDMDL
MODEL 2
REMARK VINA RESULT:      -5.1     10.489     12.001
REMARK  7 active torsions:
REMARK  status: ('A' for Active; 'I' for Inactive)
REMARK    1  A    between atoms: C_3  and  C_24 
REMARK    2  A    between atoms: C_8  and  C_9 
REMARK    3  A    between atoms: C_8  and  C_22 
REMARK    4  A    between atoms: C_9  and  C_18 
REMARK    5  A    between atoms: C_12  and  C_22 
REMARK    6  A    between atoms: N_17  and  C_18 
REMARK    7  A    between atoms: C_22  and  N_23 
REMARK       I    between atoms: N_23  and  C_24 
ROOT
HETATM    1  O           1     -36.296  -2.574 -11.216  0.00  0.00    -0.271 OA
HETATM    2  H           1     -33.609  -1.429 -12.361  0.00  0.00     0.163 HD
HETATM    3  N           1     -34.270  -2.125 -12.041  0.00  0.00    -0.345 N 
HETATM    4  C           1     -35.508  -1.742 -11.600  0.00  0.00     0.249 C 
ENDROOT
BRANCH   3   5
HETATM    5  C           1     -33.905  -3.528 -12.047  0.00  0.00     0.185 C 
BRANCH   5   6
HETATM    6  C           1     -34.465  -4.204 -10.802  0.00  0.00     0.038 C 
BRANCH   6   7
HETATM    7  C           1     -33.755  -5.534 -10.581  0.00  0.00     0.030 C 
BRANCH   7   8
HETATM    8  C           1     -34.753  -6.564 -10.072  0.00  0.00     0.230 C 
BRANCH   8   9
HETATM    9  N           1     -34.844  -7.699 -11.048  0.00  0.00    -0.079 N 
HETATM   10  H           1     -35.767  -7.666 -11.536  0.00  0.00     0.274 HD
HETATM   11  H           1     -34.751  -8.606 -10.537  0.00  0.00     0.274 HD
HETATM   12  H           1     -34.075  -7.616 -11.752  0.00  0.00     0.274 HD
ENDBRANCH   8   9
ENDBRANCH   7   8
ENDBRANCH   6   7
ENDBRANCH   5   6
BRANCH   5  13
HETATM   13  C           1     -34.472  -4.190 -13.278  0.00  0.00     0.196 C 
HETATM   14  O           1     -34.270  -3.692 -14.407  0.00  0.00    -0.646 OA
HETATM   15  O           1     -35.145  -5.239 -13.171  0.00  0.00    -0.646 OA
ENDBRANCH   5  13
ENDBRANCH   3   5
BRANCH   4  16
HETATM   16  C           1     -35.887  -0.282 -11.592  0.00  0.00     0.274 C 
HETATM   17  C           1     -37.229  -0.102 -12.291  0.00  0.00     0.042 C 
HETATM   18  C           1     -37.122  -0.591 -13.729  0.00  0.00     0.003 C 
HETATM   19 Se           1     -35.759   0.438 -14.668  0.00  0.00     0.000 Se
HETATM   20  C           1     -35.983  -0.500 -16.361  0.00  0.00     0.000 C 
HETATM   21  H           1     -34.765   0.174 -13.301  0.00  0.00     0.275 HD
HETATM   22  N           1     -34.837   0.511 -12.315  0.00  0.00    -0.067 N 
HETATM   23  H           1     -33.918   0.387 -11.835  0.00  0.00     0.275 HD
HETATM   24  H           1     -35.100   1.522 -12.310  0.00  0.00     0.275 HD
ENDBRANCH   4  16
TORSDOF 7
ENDMDL
MODEL 3
REMARK VINA RESULT:      -5.0      1.917      2.668
REMARK  7 active torsions:
REMARK  status: ('A' for Active; 'I' for Inactive)
REMARK    1  A    between atoms: C_3  and  C_24 
REMARK    2  A    between atoms: C_8  and  C_9 
REMARK    3  A    between atoms: C_8  and  C_22 
REMARK    4  A    between atoms: C_9  and  C_18 
REMARK    5  A    between atoms: C_12  and  C_22 
REMARK    6  A    between atoms: N_17  and  C_18 
REMARK    7  A    between atoms: C_22  and  N_23 
REMARK       I    between atoms: N_23  and  C_24 
ROOT
HETATM    1  O           1     -28.480  -5.076 -19.003  0.00  0.00    -0.271 OA
HETATM    2  H           1     -26.453  -7.401 -18.432  0.00  0.00     0.163 HD
HETATM    3  N           1     -27.030  -6.774 -18.978  0.00  0.00    -0.345 N 
HETATM    4  C           1     -27.790  -5.823 -18.352  0.00  0.00     0.249 C 
ENDROOT
BRANCH   3   5
HETATM    5  C           1     -27.055  -6.885 -20.424  0.00  0.00     0.185 C 
BRANCH   5   6
HETATM    6  C           1     -25.651  -6.665 -20.972  0.00  0.00     0.038 C 
BRANCH   6   7
HETATM    7  C           1     -24.625  -7.061 -19.918  0.00  0.00     0.030 C 
BRANCH   7   8
HETATM    8  C           1     -23.730  -8.163 -20.467  0.00  0.00     0.230 C 
BRANCH   8   9
HETATM    9  N           1     -23.983  -8.327 -21.937  0.00  0.00    -0.079 N 
HETATM   10  H           1     -25.000  -8.501 -22.098  0.00  0.00     0.274 HD
HETATM   11  H           1     -23.428  -9.136 -22.297  0.00  0.00     0.274 HD
HETATM   12  H           1     -23.695  -7.457 -22.439  0.00  0.00     0.274 HD
ENDBRANCH   8   9
ENDBRANCH   7   8
ENDBRANCH   6   7
ENDBRANCH   5   6
BRANCH   5  13
HETATM   13  C           1     -27.540  -8.258 -20.815  0.00  0.00     0.196 C 
HETATM   14  O           1     -28.551  -8.745 -20.265  0.00  0.00    -0.646 OA
HETATM   15  O           1     -26.931  -8.911 -21.690  0.00  0.00    -0.646 OA
ENDBRANCH   5  13
ENDBRANCH   3   5
BRANCH   4  16
HETATM   16  C           1     -27.765  -5.709 -16.847  0.00  0.00     0.274 C 
HETATM   17  C           1     -28.699  -6.750 -16.243  0.00  0.00     0.042 C 
HETATM   18  C           1     -30.116  -6.515 -16.746  0.00  0.00     0.003 C 
HETATM   19 Se           1     -30.706  -4.732 -16.222  0.00  0.00     0.000 Se
HETATM   20  C           1     -32.466  -4.895 -17.044  0.00  0.00     0.000 C 
HETATM   21  H           1     -29.192  -4.177 -16.789  0.00  0.00     0.275 HD
HETATM   22  N           1     -28.220  -4.337 -16.443  0.00  0.00    -0.067 N 
HETATM   23  H           1     -27.579  -3.623 -16.858  0.00  0.00     0.275 HD
HETATM   24  H           1     -28.203  -4.257 -15.402  0.00  0.00     0.275 HD
ENDBRANCH   4  16
TORSDOF 7
ENDMDL
MODEL 4
REMARK VINA RESULT:      -4.9     12.818     15.163
REMARK  7 active torsions:
REMARK  status: ('A' for Active; 'I' for Inactive)
REMARK    1  A    between atoms: C_3  and  C_24 
REMARK    2  A    between atoms: C_8  and  C_9 
REMARK    3  A    between atoms: C_8  and  C_22 
REMARK    4  A    between atoms: C_9  and  C_18 
REMARK    5  A    between atoms: C_12  and  C_22 
REMARK    6  A    between atoms: N_17  and  C_18 
REMARK    7  A    between atoms: C_22  and  N_23 
REMARK       I    between atoms: N_23  and  C_24 
ROOT
HETATM    1  O           1     -21.062  -6.690  -7.136  0.00  0.00    -0.271 OA
HETATM    2  H           1     -20.513  -4.990  -4.557  0.00  0.00     0.163 HD
HETATM    3  N           1     -20.800  -5.788  -5.110  0.00  0.00    -0.345 N 
HETATM    4  C           1     -20.718  -5.739  -6.475  0.00  0.00     0.249 C 
ENDROOT
BRANCH   3   5
HETATM    5  C           1     -21.301  -6.981  -4.456  0.00  0.00     0.185 C 
BRANCH   5   6
HETATM    6  C           1     -20.259  -8.087  -4.552  0.00  0.00     0.038 C 
BRANCH   6   7
HETATM    7  C           1     -20.954  -9.422  -4.792  0.00  0.00     0.030 C 
BRANCH   7   8
HETATM    8  C           1     -20.329 -10.488  -3.903  0.00  0.00     0.230 C 
BRANCH   8   9
HETATM    9  N           1     -19.665  -9.833  -2.728  0.00  0.00    -0.079 N 
HETATM   10  H           1     -19.942 -10.329  -1.851  0.00  0.00     0.274 HD
HETATM   11  H           1     -19.963  -8.833  -2.673  0.00  0.00     0.274 HD
HETATM   12  H           1     -18.627  -9.881  -2.841  0.00  0.00     0.274 HD
ENDBRANCH   8   9
ENDBRANCH   7   8
ENDBRANCH   6   7
ENDBRANCH   5   6
BRANCH   5  13
HETATM   13  C           1     -21.584  -6.679  -3.006  0.00  0.00     0.196 C 
HETATM   14  O           1     -22.549  -5.947  -2.695  0.00  0.00    -0.646 OA
HETATM   15  O           1     -20.853  -7.161  -2.113  0.00  0.00    -0.646 OA
ENDBRANCH   5  13
ENDBRANCH   3   5
BRANCH   4  16
HETATM   16  C           1     -20.197  -4.496  -7.155  0.00  0.00     0.274 C 
HETATM   17  C           1     -21.280  -3.425  -7.156  0.00  0.00     0.042 C 
HETATM   18  C           1     -22.502  -3.939  -7.905  0.00  0.00     0.003 C 
HETATM   19 Se           1     -22.009  -4.364  -9.742  0.00  0.00     0.000 Se
HETATM   20  C           1     -23.796  -4.944 -10.261  0.00  0.00     0.000 C 
HETATM   21  H           1     -20.656  -5.176  -9.082  0.00  0.00     0.275 HD
HETATM   22  N           1     -19.817  -4.824  -8.570  0.00  0.00    -0.067 N 
HETATM   23  H           1     -19.074  -5.558  -8.569  0.00  0.00     0.275 HD
HETATM   24  H           1     -19.457  -3.964  -9.041  0.00  0.00     0.275 HD
ENDBRANCH   4  16
TORSDOF 7
ENDMDL
MODEL 5
REMARK VINA RESULT:      -4.8      9.678     12.031
REMARK  7 active torsions:
REMARK  status: ('A' for Active; 'I' for Inactive)
REMARK    1  A    between atoms: C_3  and  C_24 
REMARK    2  A    between atoms: C_8  and  C_9 
REMARK    3  A    between atoms: C_8  and  C_22 
REMARK    4  A    between atoms: C_9  and  C_18 
REMARK    5  A    between atoms: C_12  and  C_22 
REMARK    6  A    between atoms: N_17  and  C_18 
REMARK    7  A    between atoms: C_22  and  N_23 
REMARK       I    between atoms: N_23  and  C_24 
ROOT
HETATM    1  O           1     -34.800  -2.729 -13.345  0.00  0.00    -0.271 OA
HETATM    2  H           1     -36.513  -0.555 -11.869  0.00  0.00     0.163 HD
HETATM    3  N           1     -36.046  -1.015 -12.640  0.00  0.00    -0.345 N 
HETATM    4  C           1     -35.359  -2.180 -12.426  0.00  0.00     0.249 C 
ENDROOT
BRANCH   3   5
HETATM    5  C           1     -36.103  -0.442 -13.970  0.00  0.00     0.185 C 
BRANCH   5   6
HETATM    6  C           1     -37.443   0.258 -14.163  0.00  0.00     0.038 C 
BRANCH   6   7
HETATM    7  C           1     -37.753   0.361 -15.651  0.00  0.00     0.030 C 
BRANCH   7   8
HETATM    8  C           1     -37.386  -0.946 -16.339  0.00  0.00     0.230 C 
BRANCH   8   9
HETATM    9  N           1     -36.248  -0.711 -17.287  0.00  0.00    -0.079 N 
HETATM   10  H           1     -35.707  -1.596 -17.408  0.00  0.00     0.274 HD
HETATM   11  H           1     -35.622   0.032 -16.902  0.00  0.00     0.274 HD
HETATM   12  H           1     -36.623  -0.403 -18.213  0.00  0.00     0.274 HD
ENDBRANCH   8   9
ENDBRANCH   7   8
ENDBRANCH   6   7
ENDBRANCH   5   6
BRANCH   5  13
HETATM   13  C           1     -34.985   0.557 -14.136  0.00  0.00     0.196 C 
HETATM   14  O           1     -34.802   1.441 -13.271  0.00  0.00    -0.646 OA
HETATM   15  O           1     -34.240   0.500 -15.138  0.00  0.00    -0.646 OA
ENDBRANCH   5  13
ENDBRANCH   3   5
BRANCH   4  16
HETATM   16  C           1     -35.298  -2.776 -11.041  0.00  0.00     0.274 C 
HETATM   17  C           1     -33.962  -2.429 -10.396  0.00  0.00     0.042 C 
HETATM   18  C           1     -32.829  -2.994 -11.241  0.00  0.00     0.003 C 
HETATM   19 Se           1     -33.008  -4.931 -11.362  0.00  0.00     0.000 Se
HETATM   20  C           1     -31.425  -5.173 -12.473  0.00  0.00     0.000 C 
HETATM   21  H           1     -34.658  -4.653 -11.713  0.00  0.00     0.275 HD
HETATM   22  N           1     -35.436  -4.268 -11.133  0.00  0.00    -0.067 N 
HETATM   23  H           1     -36.353  -4.505 -11.575  0.00  0.00     0.275 HD
HETATM   24  H           1     -35.394  -4.681 -10.175  0.00  0.00     0.275 HD
ENDBRANCH   4  16
TORSDOF 7
ENDMDL
MODEL 6
REMARK VINA RESULT:      -4.7     15.852     17.938
REMARK  7 active torsions:
REMARK  status: ('A' for Active; 'I' for Inactive)
REMARK    1  A    between atoms: C_3  and  C_24 
REMARK    2  A    between atoms: C_8  and  C_9 
REMARK    3  A    between atoms: C_8  and  C_22 
REMARK    4  A    between atoms: C_9  and  C_18 
REMARK    5  A    between atoms: C_12  and  C_22 
REMARK    6  A    between atoms: N_17  and  C_18 
REMARK    7  A    between atoms: C_22  and  N_23 
REMARK       I    between atoms: N_23  and  C_24 
ROOT
HETATM    1  O           1     -22.072 -10.345  -3.577  0.00  0.00    -0.271 OA
HETATM    2  H           1     -20.122  -7.922  -3.991  0.00  0.00     0.163 HD
HETATM    3  N           1     -20.863  -8.467  -3.569  0.00  0.00    -0.345 N 
HETATM    4  C           1     -21.186  -9.695  -4.080  0.00  0.00     0.249 C 
ENDROOT
BRANCH   3   5
HETATM    5  C           1     -21.584  -7.947  -2.423  0.00  0.00     0.185 C 
BRANCH   5   6
HETATM    6  C           1     -20.697  -8.027  -1.187  0.00  0.00     0.038 C 
BRANCH   6   7
HETATM    7  C           1     -21.357  -8.922  -0.146  0.00  0.00     0.030 C 
BRANCH   7   8
HETATM    8  C           1     -22.020  -8.060   0.919  0.00  0.00     0.230 C 
BRANCH   8   9
HETATM    9  N           1     -23.477  -7.901   0.599  0.00  0.00    -0.079 N 
HETATM   10  H           1     -23.891  -8.836   0.387  0.00  0.00     0.274 HD
HETATM   11  H           1     -23.585  -7.274  -0.231  0.00  0.00     0.274 HD
HETATM   12  H           1     -23.970  -7.480   1.418  0.00  0.00     0.274 HD
ENDBRANCH   8   9
ENDBRANCH   7   8
ENDBRANCH   6   7
ENDBRANCH   5   6
BRANCH   5  13
HETATM   13  C           1     -21.963  -6.509  -2.678  0.00  0.00     0.196 C 
HETATM   14  O           1     -22.435  -5.813  -1.753  0.00  0.00    -0.646 OA
HETATM   15  O           1     -21.805  -6.013  -3.815  0.00  0.00    -0.646 OA
ENDBRANCH   5  13
ENDBRANCH   3   5
BRANCH   4  16
HETATM   16  C           1     -20.437 -10.236  -5.273  0.00  0.00     0.274 C 
HETATM   17  C           1     -19.681 -11.495  -4.869  0.00  0.00     0.042 C 
HETATM   18  C           1     -18.694 -11.162  -3.759  0.00  0.00     0.003 C 
HETATM   19 Se           1     -17.429  -9.821  -4.393  0.00  0.00     0.000 Se
HETATM   20  C           1     -16.434  -9.731  -2.719  0.00  0.00     0.000 C 
HETATM   21  H           1     -18.787  -8.976  -4.998  0.00  0.00     0.275 HD
HETATM   22  N           1     -19.463  -9.204  -5.761  0.00  0.00    -0.067 N 
HETATM   23  H           1     -19.982  -8.340  -6.038  0.00  0.00     0.275 HD
HETATM   24  H           1     -18.944  -9.578  -6.587  0.00  0.00     0.275 HD
ENDBRANCH   4  16
TORSDOF 7
ENDMDL
MODEL 7
REMARK VINA RESULT:      -4.7     13.448     15.736
REMARK  7 active torsions:
REMARK  status: ('A' for Active; 'I' for Inactive)
REMARK    1  A    between atoms: C_3  and  C_24 
REMARK    2  A    between atoms: C_8  and  C_9 
REMARK    3  A    between atoms: C_8  and  C_22 
REMARK    4  A    between atoms: C_9  and  C_18 
REMARK    5  A    between atoms: C_12  and  C_22 
REMARK    6  A    between atoms: N_17  and  C_18 
REMARK    7  A    between atoms: C_22  and  N_23 
REMARK       I    between atoms: N_23  and  C_24 
ROOT
HETATM    1  O           1     -19.358  -8.542  -4.222  0.00  0.00    -0.271 OA
HETATM    2  H           1     -21.592  -8.581  -6.424  0.00  0.00     0.163 HD
HETATM    3  N           1     -20.938  -8.187  -5.760  0.00  0.00    -0.345 N 
HETATM    4  C           1     -20.139  -9.012  -5.015  0.00  0.00     0.249 C 
ENDROOT
BRANCH   3   5
HETATM    5  C           1     -20.848  -6.749  -5.596  0.00  0.00     0.185 C 
BRANCH   5   6
HETATM    6  C           1     -21.009  -6.073  -6.951  0.00  0.00     0.038 C 
BRANCH   6   7
HETATM    7  C           1     -21.046  -4.562  -6.765  0.00  0.00     0.030 C 
BRANCH   7   8
HETATM    8  C           1     -22.017  -3.950  -7.765  0.00  0.00     0.230 C 
BRANCH   8   9
HETATM    9  N           1     -23.424  -4.271  -7.358  0.00  0.00    -0.079 N 
HETATM   10  H           1     -23.830  -4.964  -8.026  0.00  0.00     0.274 HD
HETATM   11  H           1     -23.998  -3.398  -7.369  0.00  0.00     0.274 HD
HETATM   12  H           1     -23.425  -4.675  -6.394  0.00  0.00     0.274 HD
ENDBRANCH   8   9
ENDBRANCH   7   8
ENDBRANCH   6   7
ENDBRANCH   5   6
BRANCH   5  13
HETATM   13  C           1     -21.940  -6.280  -4.667  0.00  0.00     0.196 C 
HETATM   14  O           1     -21.657  -5.902  -3.509  0.00  0.00    -0.646 OA
HETATM   15  O           1     -23.129  -6.269  -5.054  0.00  0.00    -0.646 OA
ENDBRANCH   5  13
ENDBRANCH   3   5
BRANCH   4  16
HETATM   16  C           1     -20.233 -10.509  -5.186  0.00  0.00     0.274 C 
HETATM   17  C           1     -21.643 -10.971  -4.843  0.00  0.00     0.042 C 
HETATM   18  C           1     -21.962 -10.604  -3.401  0.00  0.00     0.003 C 
HETATM   19 Se           1     -20.687 -11.474  -2.210  0.00  0.00     0.000 Se
HETATM   20  C           1     -21.463 -10.743  -0.578  0.00  0.00     0.000 C 
HETATM   21  H           1     -19.471 -10.925  -3.280  0.00  0.00     0.275 HD
HETATM   22  N           1     -19.251 -11.178  -4.269  0.00  0.00    -0.067 N 
HETATM   23  H           1     -18.284 -10.860  -4.504  0.00  0.00     0.275 HD
HETATM   24  H           1     -19.316 -12.214  -4.387  0.00  0.00     0.275 HD
ENDBRANCH   4  16
TORSDOF 7
ENDMDL
MODEL 8
REMARK VINA RESULT:      -4.7     11.504     12.775
REMARK  7 active torsions:
REMARK  status: ('A' for Active; 'I' for Inactive)
REMARK    1  A    between atoms: C_3  and  C_24 
REMARK    2  A    between atoms: C_8  and  C_9 
REMARK    3  A    between atoms: C_8  and  C_22 
REMARK    4  A    between atoms: C_9  and  C_18 
REMARK    5  A    between atoms: C_12  and  C_22 
REMARK    6  A    between atoms: N_17  and  C_18 
REMARK    7  A    between atoms: C_22  and  N_23 
REMARK       I    between atoms: N_23  and  C_24 
ROOT
HETATM    1  O           1     -34.588  -2.913 -13.644  0.00  0.00    -0.271 OA
HETATM    2  H           1     -35.489  -0.409 -11.982  0.00  0.00     0.163 HD
HETATM    3  N           1     -35.335  -0.984 -12.800  0.00  0.00    -0.345 N 
HETATM    4  C           1     -34.774  -2.226 -12.667  0.00  0.00     0.249 C 
ENDROOT
BRANCH   3   5
HETATM    5  C           1     -35.704  -0.493 -14.113  0.00  0.00     0.185 C 
BRANCH   5   6
HETATM    6  C           1     -37.138   0.020 -14.078  0.00  0.00     0.038 C 
BRANCH   6   7
HETATM    7  C           1     -37.581   0.391 -15.488  0.00  0.00     0.030 C 
BRANCH   7   8
HETATM    8  C           1     -37.545  -0.847 -16.373  0.00  0.00     0.230 C 
BRANCH   8   9
HETATM    9  N           1     -36.363  -0.771 -17.293  0.00  0.00    -0.079 N 
HETATM   10  H           1     -35.692  -1.537 -17.061  0.00  0.00     0.274 HD
HETATM   11  H           1     -35.891   0.154 -17.177  0.00  0.00     0.274 HD
HETATM   12  H           1     -36.683  -0.877 -18.282  0.00  0.00     0.274 HD
ENDBRANCH   8   9
ENDBRANCH   7   8
ENDBRANCH   6   7
ENDBRANCH   5   6
BRANCH   5  13
HETATM   13  C           1     -34.777   0.630 -14.509  0.00  0.00     0.196 C 
HETATM   14  O           1     -34.049   0.513 -15.519  0.00  0.00    -0.646 OA
HETATM   15  O           1     -34.737   1.678 -13.829  0.00  0.00    -0.646 OA
ENDBRANCH   5  13
ENDBRANCH   3   5
BRANCH   4  16
HETATM   16  C           1     -34.389  -2.737 -11.300  0.00  0.00     0.274 C 
HETATM   17  C           1     -35.583  -3.435 -10.664  0.00  0.00     0.042 C 
HETATM   18  C           1     -36.736  -2.450 -10.530  0.00  0.00     0.003 C 
HETATM   19 Se           1     -36.187  -0.953  -9.409  0.00  0.00     0.000 Se
HETATM   20  C           1     -37.896  -0.023  -9.530  0.00  0.00     0.000 C 
HETATM   21  H           1     -34.758  -0.909 -10.347  0.00  0.00     0.275 HD
HETATM   22  N           1     -33.966  -1.584 -10.437  0.00  0.00    -0.067 N 
HETATM   23  H           1     -33.146  -1.106 -10.874  0.00  0.00     0.275 HD
HETATM   24  H           1     -33.699  -1.937  -9.491  0.00  0.00     0.275 HD
ENDBRANCH   4  16
TORSDOF 7
ENDMDL
MODEL 9
REMARK VINA RESULT:      -4.6     16.208     18.166
REMARK  7 active torsions:
REMARK  status: ('A' for Active; 'I' for Inactive)
REMARK    1  A    between atoms: C_3  and  C_24 
REMARK    2  A    between atoms: C_8  and  C_9 
REMARK    3  A    between atoms: C_8  and  C_22 
REMARK    4  A    between atoms: C_9  and  C_18 
REMARK    5  A    between atoms: C_12  and  C_22 
REMARK    6  A    between atoms: N_17  and  C_18 
REMARK    7  A    between atoms: C_22  and  N_23 
REMARK       I    between atoms: N_23  and  C_24 
ROOT
HETATM    1  O           1     -18.903 -11.310  -3.599  0.00  0.00    -0.271 OA
HETATM    2  H           1     -18.822  -8.355  -2.548  0.00  0.00     0.163 HD
HETATM    3  N           1     -19.181  -9.168  -3.033  0.00  0.00    -0.345 N 
HETATM    4  C           1     -18.475 -10.340  -3.020  0.00  0.00     0.249 C 
ENDROOT
BRANCH   3   5
HETATM    5  C           1     -20.443  -9.090  -3.742  0.00  0.00     0.185 C 
BRANCH   5   6
HETATM    6  C           1     -21.562  -8.789  -2.753  0.00  0.00     0.038 C 
BRANCH   6   7
HETATM    7  C           1     -21.020  -7.930  -1.617  0.00  0.00     0.030 C 
BRANCH   7   8
HETATM    8  C           1     -22.118  -7.005  -1.111  0.00  0.00     0.230 C 
BRANCH   8   9
HETATM    9  N           1     -22.307  -5.876  -2.080  0.00  0.00    -0.079 N 
HETATM   10  H           1     -21.679  -5.084  -1.819  0.00  0.00     0.274 HD
HETATM   11  H           1     -23.302  -5.557  -2.052  0.00  0.00     0.274 HD
HETATM   12  H           1     -22.074  -6.202  -3.045  0.00  0.00     0.274 HD
ENDBRANCH   8   9
ENDBRANCH   7   8
ENDBRANCH   6   7
ENDBRANCH   5   6
BRANCH   5  13
HETATM   13  C           1     -20.374  -7.992  -4.774  0.00  0.00     0.196 C 
HETATM   14  O           1     -21.114  -6.990  -4.672  0.00  0.00    -0.646 OA
HETATM   15  O           1     -19.576  -8.084  -5.732  0.00  0.00    -0.646 OA
ENDBRANCH   5  13
ENDBRANCH   3   5
BRANCH   4  16
HETATM   16  C           1     -17.160 -10.421  -2.282  0.00  0.00     0.274 C 
HETATM   17  C           1     -16.155  -9.479  -2.932  0.00  0.00     0.042 C 
HETATM   18  C           1     -15.946  -9.883  -4.385  0.00  0.00     0.003 C 
HETATM   19 Se           1     -15.270 -11.709  -4.464  0.00  0.00     0.000 Se
HETATM   20  C           1     -15.169 -11.763  -6.410  0.00  0.00     0.000 C 
HETATM   21  H           1     -16.497 -12.102  -3.340  0.00  0.00     0.275 HD
HETATM   22  N           1     -16.639 -11.827  -2.343  0.00  0.00    -0.067 N 
HETATM   23  H           1     -17.330 -12.472  -1.896  0.00  0.00     0.275 HD
HETATM   24  H           1     -15.730 -11.883  -1.832  0.00  0.00     0.275 HD
ENDBRANCH   4  16
TORSDOF 7
ENDMDL
