MODEL 1
REMARK VINA RESULT:      -5.8      0.000      0.000
REMARK  10 active torsions:
REMARK  status: ('A' for Active; 'I' for Inactive)
REMARK    1  A    between atoms: Se_1  and  C_2 
REMARK    2  A    between atoms: C_2  and  C_3 
REMARK    3  A    between atoms: C_3  and  C_4 
REMARK    4  A    between atoms: C_3  and  N_7 
REMARK       I    between atoms: N_7  and  C_8 
REMARK    5  A    between atoms: C_8  and  C_9 
REMARK    6  A    between atoms: C_9  and  C_10 
REMARK    7  A    between atoms: C_9  and  N_16 
REMARK    8  A    between atoms: C_10  and  O_11 
REMARK    9  A    between atoms: O_11  and  P_12 
REMARK   10  A    between atoms: P_12  and  O_13 
ROOT
HETATM    1  C           1     -24.937  -6.740 -17.286  0.00  0.00     0.298 C 
ENDROOT
BRANCH   1   2
HETATM    2  C           1     -26.212  -6.917 -16.499  0.00  0.00     0.251 C 
HETATM    3  N           1     -27.416  -6.594 -17.064  0.00  0.00    -0.345 N 
HETATM    4  H           1     -27.450  -6.236 -18.011  0.00  0.00     0.163 HD
HETATM    5  O           1     -26.170  -7.344 -15.370  0.00  0.00    -0.271 OA
BRANCH   3   6
HETATM    6  C           1     -28.642  -6.764 -16.308  0.00  0.00     0.185 C 
BRANCH   6   7
HETATM    7  C           1     -29.064  -5.425 -15.719  0.00  0.00     0.039 C 
BRANCH   7   8
HETATM    8 Se           1     -28.538  -3.988 -16.927  0.00  0.00     0.000 Se
HETATM    9  H           1     -29.197  -2.932 -16.143  0.00  0.00     0.000 HD
ENDBRANCH   7   8
ENDBRANCH   6   7
BRANCH   6  10
HETATM   10  C           1     -29.727  -7.277 -17.222  0.00  0.00     0.196 C 
HETATM   11  O           1     -29.492  -8.227 -18.000  0.00  0.00    -0.646 OA
HETATM   12  O           1     -30.862  -6.754 -17.200  0.00  0.00    -0.646 OA
ENDBRANCH   6  10
ENDBRANCH   3   6
ENDBRANCH   1   2
BRANCH   1  13
HETATM   13  C           1     -25.261  -6.689 -18.773  0.00  0.00     0.224 C 
BRANCH  13  14
HETATM   14  O           1     -24.494  -7.646 -19.453  0.00  0.00    -0.287 OA
BRANCH  14  15
HETATM   15  P           1     -24.767  -7.776 -21.040  0.00  0.00     0.406 P 
HETATM   16  O           1     -26.052  -8.475 -21.264  0.00  0.00    -0.624 OA
HETATM   17  O           1     -24.826  -6.425 -21.642  0.00  0.00    -0.624 OA
BRANCH  15  18
HETATM   18  O           1     -23.571  -8.617 -21.724  0.00  0.00    -0.300 OA
HETATM   19  H           1     -22.809  -8.070 -21.642  0.00  0.00     0.223 HD
ENDBRANCH  15  18
ENDBRANCH  14  15
ENDBRANCH  13  14
ENDBRANCH   1  13
BRANCH   1  20
HETATM   20  N           1     -24.018  -7.894 -17.015  0.00  0.00    -0.064 N 
HETATM   21  H           1     -23.434  -8.082 -17.861  0.00  0.00     0.275 HD
HETATM   22  H           1     -23.396  -7.662 -16.208  0.00  0.00     0.275 HD
HETATM   23  H           1     -24.582  -8.743 -16.787  0.00  0.00     0.275 HD
ENDBRANCH   1  20
TORSDOF 10
ENDMDL
MODEL 2
REMARK VINA RESULT:      -5.6      5.892      7.891
REMARK  10 active torsions:
REMARK  status: ('A' for Active; 'I' for Inactive)
REMARK    1  A    between atoms: Se_1  and  C_2 
REMARK    2  A    between atoms: C_2  and  C_3 
REMARK    3  A    between atoms: C_3  and  C_4 
REMARK    4  A    between atoms: C_3  and  N_7 
REMARK       I    between atoms: N_7  and  C_8 
REMARK    5  A    between atoms: C_8  and  C_9 
REMARK    6  A    between atoms: C_9  and  C_10 
REMARK    7  A    between atoms: C_9  and  N_16 
REMARK    8  A    between atoms: C_10  and  O_11 
REMARK    9  A    between atoms: O_11  and  P_12 
REMARK   10  A    between atoms: P_12  and  O_13 
ROOT
HETATM    1  C           1     -32.990  -4.540 -16.640  0.00  0.00     0.298 C 
ENDROOT
BRANCH   1   2
HETATM    2  C           1     -33.858  -4.507 -15.407  0.00  0.00     0.251 C 
HETATM    3  N           1     -33.355  -4.024 -14.228  0.00  0.00    -0.345 N 
HETATM    4  H           1     -32.400  -3.689 -14.186  0.00  0.00     0.163 HD
HETATM    5  O           1     -34.996  -4.907 -15.457  0.00  0.00    -0.271 OA
BRANCH   3   6
HETATM    6  C           1     -34.188  -3.992 -13.042  0.00  0.00     0.185 C 
BRANCH   6   7
HETATM    7  C           1     -33.386  -4.486 -11.845  0.00  0.00     0.039 C 
BRANCH   7   8
HETATM    8 Se           1     -34.337  -5.954 -10.986  0.00  0.00     0.000 Se
HETATM    9  H           1     -33.248  -6.262 -10.046  0.00  0.00     0.000 HD
ENDBRANCH   7   8
ENDBRANCH   6   7
BRANCH   6  10
HETATM   10  C           1     -34.649  -2.577 -12.791  0.00  0.00     0.196 C 
HETATM   11  O           1     -35.031  -1.866 -13.745  0.00  0.00    -0.646 OA
HETATM   12  O           1     -34.649  -2.117 -11.629  0.00  0.00    -0.646 OA
ENDBRANCH   6  10
ENDBRANCH   3   6
ENDBRANCH   1   2
BRANCH   1  13
HETATM   13  C           1     -31.540  -4.774 -16.236  0.00  0.00     0.224 C 
BRANCH  13  14
HETATM   14  O           1     -30.799  -5.171 -17.358  0.00  0.00    -0.287 OA
BRANCH  14  15
HETATM   15  P           1     -29.497  -4.279 -17.699  0.00  0.00     0.406 P 
HETATM   16  O           1     -28.503  -4.422 -16.611  0.00  0.00    -0.624 OA
HETATM   17  O           1     -28.904  -4.740 -18.974  0.00  0.00    -0.624 OA
BRANCH  15  18
HETATM   18  O           1     -29.926  -2.729 -17.835  0.00  0.00    -0.300 OA
HETATM   19  H           1     -30.419  -2.682 -18.637  0.00  0.00     0.223 HD
ENDBRANCH  15  18
ENDBRANCH  14  15
ENDBRANCH  13  14
ENDBRANCH   1  13
BRANCH   1  20
HETATM   20  N           1     -33.101  -3.231 -17.364  0.00  0.00    -0.064 N 
HETATM   21  H           1     -32.382  -2.567 -16.997  0.00  0.00     0.275 HD
HETATM   22  H           1     -32.943  -3.383 -18.386  0.00  0.00     0.275 HD
HETATM   23  H           1     -34.053  -2.830 -17.214  0.00  0.00     0.275 HD
ENDBRANCH   1  20
TORSDOF 10
ENDMDL
MODEL 3
REMARK VINA RESULT:      -5.4     11.667     13.549
REMARK  10 active torsions:
REMARK  status: ('A' for Active; 'I' for Inactive)
REMARK    1  A    between atoms: Se_1  and  C_2 
REMARK    2  A    between atoms: C_2  and  C_3 
REMARK    3  A    between atoms: C_3  and  C_4 
REMARK    4  A    between atoms: C_3  and  N_7 
REMARK       I    between atoms: N_7  and  C_8 
REMARK    5  A    between atoms: C_8  and  C_9 
REMARK    6  A    between atoms: C_9  and  C_10 
REMARK    7  A    between atoms: C_9  and  N_16 
REMARK    8  A    between atoms: C_10  and  O_11 
REMARK    9  A    between atoms: O_11  and  P_12 
REMARK   10  A    between atoms: P_12  and  O_13 
ROOT
HETATM    1  C           1     -21.041  -4.968  -6.777  0.00  0.00     0.298 C 
ENDROOT
BRANCH   1   2
HETATM    2  C           1     -21.764  -5.816  -5.759  0.00  0.00     0.251 C 
HETATM    3  N           1     -21.060  -6.679  -4.963  0.00  0.00    -0.345 N 
HETATM    4  H           1     -20.054  -6.748  -5.058  0.00  0.00     0.163 HD
HETATM    5  O           1     -22.963  -5.733  -5.646  0.00  0.00    -0.271 OA
BRANCH   3   6
HETATM    6  C           1     -21.754  -7.493  -3.984  0.00  0.00     0.185 C 
BRANCH   6   7
HETATM    7  C           1     -21.166  -8.898  -3.985  0.00  0.00     0.039 C 
BRANCH   7   8
HETATM    8 Se           1     -19.457  -8.887  -4.922  0.00  0.00     0.000 Se
HETATM    9  H           1     -18.693  -8.400  -3.762  0.00  0.00     0.000 HD
ENDBRANCH   7   8
ENDBRANCH   6   7
BRANCH   6  10
HETATM   10  C           1     -21.592  -6.880  -2.615  0.00  0.00     0.196 C 
HETATM   11  O           1     -20.752  -7.348  -1.816  0.00  0.00    -0.646 OA
HETATM   12  O           1     -22.296  -5.903  -2.280  0.00  0.00    -0.646 OA
ENDBRANCH   6  10
ENDBRANCH   3   6
ENDBRANCH   1   2
BRANCH   1  13
HETATM   13  C           1     -22.053  -4.155  -7.573  0.00  0.00     0.224 C 
BRANCH  13  14
HETATM   14  O           1     -22.065  -4.595  -8.904  0.00  0.00    -0.287 OA
BRANCH  14  15
HETATM   15  P           1     -23.332  -4.133  -9.792  0.00  0.00     0.406 P 
HETATM   16  O           1     -22.886  -3.165 -10.820  0.00  0.00    -0.624 OA
HETATM   17  O           1     -23.929  -5.315 -10.452  0.00  0.00    -0.624 OA
BRANCH  15  18
HETATM   18  O           1     -24.432  -3.436  -8.839  0.00  0.00    -0.300 OA
HETATM   19  H           1     -24.798  -2.738  -9.357  0.00  0.00     0.223 HD
ENDBRANCH  15  18
ENDBRANCH  14  15
ENDBRANCH  13  14
ENDBRANCH   1  13
BRANCH   1  20
HETATM   20  N           1     -20.271  -5.856  -7.709  0.00  0.00    -0.064 N 
HETATM   21  H           1     -20.745  -5.881  -8.640  0.00  0.00     0.275 HD
HETATM   22  H           1     -19.301  -5.484  -7.823  0.00  0.00     0.275 HD
HETATM   23  H           1     -20.230  -6.823  -7.315  0.00  0.00     0.275 HD
ENDBRANCH   1  20
TORSDOF 10
ENDMDL
MODEL 4
REMARK VINA RESULT:      -5.4     10.960     12.809
REMARK  10 active torsions:
REMARK  status: ('A' for Active; 'I' for Inactive)
REMARK    1  A    between atoms: Se_1  and  C_2 
REMARK    2  A    between atoms: C_2  and  C_3 
REMARK    3  A    between atoms: C_3  and  C_4 
REMARK    4  A    between atoms: C_3  and  N_7 
REMARK       I    between atoms: N_7  and  C_8 
REMARK    5  A    between atoms: C_8  and  C_9 
REMARK    6  A    between atoms: C_9  and  C_10 
REMARK    7  A    between atoms: C_9  and  N_16 
REMARK    8  A    between atoms: C_10  and  O_11 
REMARK    9  A    between atoms: O_11  and  P_12 
REMARK   10  A    between atoms: P_12  and  O_13 
ROOT
HETATM    1  C           1     -21.308  -3.928  -7.781  0.00  0.00     0.298 C 
ENDROOT
BRANCH   1   2
HETATM    2  C           1     -20.707  -4.739  -6.659  0.00  0.00     0.251 C 
HETATM    3  N           1     -21.460  -5.690  -6.023  0.00  0.00    -0.345 N 
HETATM    4  H           1     -22.419  -5.847  -6.305  0.00  0.00     0.163 HD
HETATM    5  O           1     -19.563  -4.551  -6.323  0.00  0.00    -0.271 OA
BRANCH   3   6
HETATM    6  C           1     -20.883  -6.471  -4.946  0.00  0.00     0.185 C 
BRANCH   6   7
HETATM    7  C           1     -21.902  -6.614  -3.822  0.00  0.00     0.039 C 
BRANCH   7   8
HETATM    8 Se           1     -21.064  -7.484  -2.293  0.00  0.00     0.000 Se
HETATM    9  H           1     -21.078  -8.824  -2.900  0.00  0.00     0.000 HD
ENDBRANCH   7   8
ENDBRANCH   6   7
BRANCH   6  10
HETATM   10  C           1     -20.507  -7.837  -5.462  0.00  0.00     0.196 C 
HETATM   11  O           1     -21.398  -8.678  -5.712  0.00  0.00    -0.646 OA
HETATM   12  O           1     -19.305  -8.129  -5.641  0.00  0.00    -0.646 OA
ENDBRANCH   6  10
ENDBRANCH   3   6
ENDBRANCH   1   2
BRANCH   1  13
HETATM   13  C           1     -22.718  -4.426  -8.069  0.00  0.00     0.224 C 
BRANCH  13  14
HETATM   14  O           1     -23.415  -3.457  -8.804  0.00  0.00    -0.287 OA
BRANCH  14  15
HETATM   15  P           1     -23.773  -3.846 -10.331  0.00  0.00     0.406 P 
HETATM   16  O           1     -23.948  -5.312 -10.438  0.00  0.00    -0.624 OA
HETATM   17  O           1     -25.025  -3.167 -10.732  0.00  0.00    -0.624 OA
BRANCH  15  18
HETATM   18  O           1     -22.571  -3.376 -11.301  0.00  0.00    -0.300 OA
HETATM   19  H           1     -22.587  -2.435 -11.271  0.00  0.00     0.223 HD
ENDBRANCH  15  18
ENDBRANCH  14  15
ENDBRANCH  13  14
ENDBRANCH   1  13
BRANCH   1  20
HETATM   20  N           1     -20.465  -4.076  -9.012  0.00  0.00    -0.064 N 
HETATM   21  H           1     -19.680  -4.739  -8.820  0.00  0.00     0.275 HD
HETATM   22  H           1     -21.051  -4.448  -9.793  0.00  0.00     0.275 HD
HETATM   23  H           1     -20.074  -3.145  -9.281  0.00  0.00     0.275 HD
ENDBRANCH   1  20
TORSDOF 10
ENDMDL
MODEL 5
REMARK VINA RESULT:      -4.9      3.869      5.254
REMARK  10 active torsions:
REMARK  status: ('A' for Active; 'I' for Inactive)
REMARK    1  A    between atoms: Se_1  and  C_2 
REMARK    2  A    between atoms: C_2  and  C_3 
REMARK    3  A    between atoms: C_3  and  C_4 
REMARK    4  A    between atoms: C_3  and  N_7 
REMARK       I    between atoms: N_7  and  C_8 
REMARK    5  A    between atoms: C_8  and  C_9 
REMARK    6  A    between atoms: C_9  and  C_10 
REMARK    7  A    between atoms: C_9  and  N_16 
REMARK    8  A    between atoms: C_10  and  O_11 
REMARK    9  A    between atoms: O_11  and  P_12 
REMARK   10  A    between atoms: P_12  and  O_13 
ROOT
HETATM    1  C           1     -29.176  -5.657 -15.672  0.00  0.00     0.298 C 
ENDROOT
BRANCH   1   2
HETATM    2  C           1     -30.501  -5.531 -16.385  0.00  0.00     0.251 C 
HETATM    3  N           1     -31.486  -4.738 -15.861  0.00  0.00    -0.345 N 
HETATM    4  H           1     -31.326  -4.237 -14.996  0.00  0.00     0.163 HD
HETATM    5  O           1     -30.691  -6.129 -17.416  0.00  0.00    -0.271 OA
BRANCH   3   6
HETATM    6  C           1     -32.759  -4.616 -16.545  0.00  0.00     0.185 C 
BRANCH   6   7
HETATM    7  C           1     -33.885  -4.580 -15.519  0.00  0.00     0.039 C 
BRANCH   7   8
HETATM    8 Se           1     -35.064  -6.107 -15.796  0.00  0.00     0.000 Se
HETATM    9  H           1     -34.456  -6.917 -14.729  0.00  0.00     0.000 HD
ENDBRANCH   7   8
ENDBRANCH   6   7
BRANCH   6  10
HETATM   10  C           1     -32.774  -3.342 -17.354  0.00  0.00     0.196 C 
HETATM   11  O           1     -31.761  -3.001 -18.002  0.00  0.00    -0.646 OA
HETATM   12  O           1     -33.799  -2.628 -17.376  0.00  0.00    -0.646 OA
ENDBRANCH   6  10
ENDBRANCH   3   6
ENDBRANCH   1   2
BRANCH   1  13
HETATM   13  C           1     -28.457  -6.909 -16.156  0.00  0.00     0.224 C 
BRANCH  13  14
HETATM   14  O           1     -27.297  -7.107 -15.393  0.00  0.00    -0.287 OA
BRANCH  14  15
HETATM   15  P           1     -25.901  -6.736 -16.115  0.00  0.00     0.406 P 
HETATM   16  O           1     -26.172  -6.220 -17.476  0.00  0.00    -0.624 OA
HETATM   17  O           1     -25.197  -5.702 -15.325  0.00  0.00    -0.624 OA
BRANCH  15  18
HETATM   18  O           1     -24.979  -8.057 -16.215  0.00  0.00    -0.300 OA
HETATM   19  H           1     -24.099  -7.753 -16.065  0.00  0.00     0.223 HD
ENDBRANCH  15  18
ENDBRANCH  14  15
ENDBRANCH  13  14
ENDBRANCH   1  13
BRANCH   1  20
HETATM   20  N           1     -29.412  -5.757 -14.195  0.00  0.00    -0.064 N 
HETATM   21  H           1     -29.204  -6.728 -13.872  0.00  0.00     0.275 HD
HETATM   22  H           1     -28.787  -5.084 -13.696  0.00  0.00     0.275 HD
HETATM   23  H           1     -30.409  -5.527 -13.984  0.00  0.00     0.275 HD
ENDBRANCH   1  20
TORSDOF 10
ENDMDL
MODEL 6
REMARK VINA RESULT:      -4.8     14.733     16.456
REMARK  10 active torsions:
REMARK  status: ('A' for Active; 'I' for Inactive)
REMARK    1  A    between atoms: Se_1  and  C_2 
REMARK    2  A    between atoms: C_2  and  C_3 
REMARK    3  A    between atoms: C_3  and  C_4 
REMARK    4  A    between atoms: C_3  and  N_7 
REMARK       I    between atoms: N_7  and  C_8 
REMARK    5  A    between atoms: C_8  and  C_9 
REMARK    6  A    between atoms: C_9  and  C_10 
REMARK    7  A    between atoms: C_9  and  N_16 
REMARK    8  A    between atoms: C_10  and  O_11 
REMARK    9  A    between atoms: O_11  and  P_12 
REMARK   10  A    between atoms: P_12  and  O_13 
ROOT
HETATM    1  C           1     -20.376  -9.637  -4.320  0.00  0.00     0.298 C 
ENDROOT
BRANCH   1   2
HETATM    2  C           1     -21.459  -9.699  -3.270  0.00  0.00     0.251 C 
HETATM    3  N           1     -21.250  -9.142  -2.037  0.00  0.00    -0.345 N 
HETATM    4  H           1     -20.368  -8.689  -1.830  0.00  0.00     0.163 HD
HETATM    5  O           1     -22.510 -10.239  -3.518  0.00  0.00    -0.271 OA
BRANCH   3   6
HETATM    6  C           1     -22.290  -9.201  -1.029  0.00  0.00     0.185 C 
BRANCH   6   7
HETATM    7  C           1     -21.988 -10.333  -0.055  0.00  0.00     0.039 C 
BRANCH   7   8
HETATM    8 Se           1     -23.443 -11.629  -0.095  0.00  0.00     0.000 Se
HETATM    9  H           1     -23.290 -12.017   1.316  0.00  0.00     0.000 HD
ENDBRANCH   7   8
ENDBRANCH   6   7
BRANCH   6  10
HETATM   10  C           1     -22.337  -7.892  -0.280  0.00  0.00     0.196 C 
HETATM   11  O           1     -22.029  -7.853   0.932  0.00  0.00    -0.646 OA
HETATM   12  O           1     -22.683  -6.846  -0.870  0.00  0.00    -0.646 OA
ENDBRANCH   6  10
ENDBRANCH   3   6
ENDBRANCH   1   2
BRANCH   1  13
HETATM   13  C           1     -19.833  -8.216  -4.406  0.00  0.00     0.224 C 
BRANCH  13  14
HETATM   14  O           1     -20.857  -7.305  -4.115  0.00  0.00    -0.287 OA
BRANCH  14  15
HETATM   15  P           1     -21.295  -6.322  -5.319  0.00  0.00     0.406 P 
HETATM   16  O           1     -20.532  -5.057  -5.225  0.00  0.00    -0.624 OA
HETATM   17  O           1     -21.012  -6.975  -6.617  0.00  0.00    -0.624 OA
BRANCH  15  18
HETATM   18  O           1     -22.874  -6.006  -5.210  0.00  0.00    -0.300 OA
HETATM   19  H           1     -23.116  -5.674  -6.058  0.00  0.00     0.223 HD
ENDBRANCH  15  18
ENDBRANCH  14  15
ENDBRANCH  13  14
ENDBRANCH   1  13
BRANCH   1  20
HETATM   20  N           1     -20.945 -10.035  -5.649  0.00  0.00    -0.064 N 
HETATM   21  H           1     -20.208  -9.950  -6.384  0.00  0.00     0.275 HD
HETATM   22  H           1     -21.278 -11.024  -5.603  0.00  0.00     0.275 HD
HETATM   23  H           1     -21.747  -9.408  -5.887  0.00  0.00     0.275 HD
ENDBRANCH   1  20
TORSDOF 10
ENDMDL
MODEL 7
REMARK VINA RESULT:      -4.7      5.188      8.561
REMARK  10 active torsions:
REMARK  status: ('A' for Active; 'I' for Inactive)
REMARK    1  A    between atoms: Se_1  and  C_2 
REMARK    2  A    between atoms: C_2  and  C_3 
REMARK    3  A    between atoms: C_3  and  C_4 
REMARK    4  A    between atoms: C_3  and  N_7 
REMARK       I    between atoms: N_7  and  C_8 
REMARK    5  A    between atoms: C_8  and  C_9 
REMARK    6  A    between atoms: C_9  and  C_10 
REMARK    7  A    between atoms: C_9  and  N_16 
REMARK    8  A    between atoms: C_10  and  O_11 
REMARK    9  A    between atoms: O_11  and  P_12 
REMARK   10  A    between atoms: P_12  and  O_13 
ROOT
HETATM    1  C           1     -33.478  -4.250 -16.073  0.00  0.00     0.298 C 
ENDROOT
BRANCH   1   2
HETATM    2  C           1     -32.212  -4.167 -16.889  0.00  0.00     0.251 C 
HETATM    3  N           1     -31.291  -5.179 -16.830  0.00  0.00    -0.345 N 
HETATM    4  H           1     -31.461  -5.983 -16.238  0.00  0.00     0.163 HD
HETATM    5  O           1     -32.009  -3.208 -17.594  0.00  0.00    -0.271 OA
BRANCH   3   6
HETATM    6  C           1     -30.074  -5.100 -17.614  0.00  0.00     0.185 C 
BRANCH   6   7
HETATM    7  C           1     -28.928  -4.635 -16.726  0.00  0.00     0.039 C 
BRANCH   7   8
HETATM    8 Se           1     -28.800  -5.798 -15.167  0.00  0.00     0.000 Se
HETATM    9  H           1     -27.882  -4.911 -14.436  0.00  0.00     0.000 HD
ENDBRANCH   7   8
ENDBRANCH   6   7
BRANCH   6  10
HETATM   10  C           1     -29.752  -6.462 -18.180  0.00  0.00     0.196 C 
HETATM   11  O           1     -28.619  -6.688 -18.656  0.00  0.00    -0.646 OA
HETATM   12  O           1     -30.618  -7.363 -18.172  0.00  0.00    -0.646 OA
ENDBRANCH   6  10
ENDBRANCH   3   6
ENDBRANCH   1   2
BRANCH   1  13
HETATM   13  C           1     -34.082  -5.642 -16.212  0.00  0.00     0.224 C 
BRANCH  13  14
HETATM   14  O           1     -35.352  -5.662 -15.620  0.00  0.00    -0.287 OA
BRANCH  14  15
HETATM   15  P           1     -36.182  -7.040 -15.769  0.00  0.00     0.406 P 
HETATM   16  O           1     -37.596  -6.732 -16.078  0.00  0.00    -0.624 OA
HETATM   17  O           1     -35.601  -7.848 -16.865  0.00  0.00    -0.624 OA
BRANCH  15  18
HETATM   18  O           1     -36.102  -7.870 -14.387  0.00  0.00    -0.300 OA
HETATM   19  H           1     -36.486  -7.304 -13.739  0.00  0.00     0.223 HD
ENDBRANCH  15  18
ENDBRANCH  14  15
ENDBRANCH  13  14
ENDBRANCH   1  13
BRANCH   1  20
HETATM   20  N           1     -34.459  -3.229 -16.567  0.00  0.00    -0.064 N 
HETATM   21  H           1     -34.353  -2.347 -16.016  0.00  0.00     0.275 HD
HETATM   22  H           1     -34.276  -3.031 -17.577  0.00  0.00     0.275 HD
HETATM   23  H           1     -35.430  -3.595 -16.454  0.00  0.00     0.275 HD
ENDBRANCH   1  20
TORSDOF 10
ENDMDL
MODEL 8
REMARK VINA RESULT:      -4.7     14.777     16.600
REMARK  10 active torsions:
REMARK  status: ('A' for Active; 'I' for Inactive)
REMARK    1  A    between atoms: Se_1  and  C_2 
REMARK    2  A    between atoms: C_2  and  C_3 
REMARK    3  A    between atoms: C_3  and  C_4 
REMARK    4  A    between atoms: C_3  and  N_7 
REMARK       I    between atoms: N_7  and  C_8 
REMARK    5  A    between atoms: C_8  and  C_9 
REMARK    6  A    between atoms: C_9  and  C_10 
REMARK    7  A    between atoms: C_9  and  N_16 
REMARK    8  A    between atoms: C_10  and  O_11 
REMARK    9  A    between atoms: O_11  and  P_12 
REMARK   10  A    between atoms: P_12  and  O_13 
ROOT
HETATM    1  C           1     -20.960  -7.381  -3.496  0.00  0.00     0.298 C 
ENDROOT
BRANCH   1   2
HETATM    2  C           1     -21.655  -7.604  -2.175  0.00  0.00     0.251 C 
HETATM    3  N           1     -21.715  -8.861  -1.637  0.00  0.00    -0.345 N 
HETATM    4  H           1     -21.294  -9.641  -2.127  0.00  0.00     0.163 HD
HETATM    5  O           1     -22.157  -6.673  -1.592  0.00  0.00    -0.271 OA
BRANCH   3   6
HETATM    6  C           1     -22.382  -9.076  -0.368  0.00  0.00     0.185 C 
BRANCH   6   7
HETATM    7  C           1     -23.316 -10.274  -0.482  0.00  0.00     0.039 C 
BRANCH   7   8
HETATM    8 Se           1     -22.924 -11.250  -2.123  0.00  0.00     0.000 Se
HETATM    9  H           1     -21.476 -10.994  -2.066  0.00  0.00     0.000 HD
ENDBRANCH   7   8
ENDBRANCH   6   7
BRANCH   6  10
HETATM   10  C           1     -21.352  -9.341   0.702  0.00  0.00     0.196 C 
HETATM   11  O           1     -20.819 -10.469   0.791  0.00  0.00    -0.646 OA
HETATM   12  O           1     -21.030  -8.434   1.498  0.00  0.00    -0.646 OA
ENDBRANCH   6  10
ENDBRANCH   3   6
ENDBRANCH   1   2
BRANCH   1  13
HETATM   13  C           1     -21.995  -7.337  -4.613  0.00  0.00     0.224 C 
BRANCH  13  14
HETATM   14  O           1     -22.233  -6.004  -4.978  0.00  0.00    -0.287 OA
BRANCH  14  15
HETATM   15  P           1     -21.360  -5.442  -6.216  0.00  0.00     0.406 P 
HETATM   16  O           1     -20.887  -6.576  -7.041  0.00  0.00    -0.624 OA
HETATM   17  O           1     -22.198  -4.544  -7.042  0.00  0.00    -0.624 OA
BRANCH  15  18
HETATM   18  O           1     -20.090  -4.622  -5.651  0.00  0.00    -0.300 OA
HETATM   19  H           1     -20.237  -4.552  -4.723  0.00  0.00     0.223 HD
ENDBRANCH  15  18
ENDBRANCH  14  15
ENDBRANCH  13  14
ENDBRANCH   1  13
BRANCH   1  20
HETATM   20  N           1     -19.999  -8.504  -3.750  0.00  0.00    -0.064 N 
HETATM   21  H           1     -20.417  -9.173  -4.435  0.00  0.00     0.275 HD
HETATM   22  H           1     -19.109  -8.119  -4.140  0.00  0.00     0.275 HD
HETATM   23  H           1     -19.800  -9.002  -2.854  0.00  0.00     0.275 HD
ENDBRANCH   1  20
TORSDOF 10
ENDMDL
MODEL 9
REMARK VINA RESULT:      -4.6     14.920     16.554
REMARK  10 active torsions:
REMARK  status: ('A' for Active; 'I' for Inactive)
REMARK    1  A    between atoms: Se_1  and  C_2 
REMARK    2  A    between atoms: C_2  and  C_3 
REMARK    3  A    between atoms: C_3  and  C_4 
REMARK    4  A    between atoms: C_3  and  N_7 
REMARK       I    between atoms: N_7  and  C_8 
REMARK    5  A    between atoms: C_8  and  C_9 
REMARK    6  A    between atoms: C_9  and  C_10 
REMARK    7  A    between atoms: C_9  and  N_16 
REMARK    8  A    between atoms: C_10  and  O_11 
REMARK    9  A    between atoms: O_11  and  P_12 
REMARK   10  A    between atoms: P_12  and  O_13 
ROOT
HETATM    1  C           1     -20.351  -9.799  -4.238  0.00  0.00     0.298 C 
ENDROOT
BRANCH   1   2
HETATM    2  C           1     -21.522  -9.918  -3.294  0.00  0.00     0.251 C 
HETATM    3  N           1     -21.403  -9.490  -1.998  0.00  0.00    -0.345 N 
HETATM    4  H           1     -20.529  -9.094  -1.675  0.00  0.00     0.163 HD
HETATM    5  O           1     -22.564 -10.391  -3.680  0.00  0.00    -0.271 OA
BRANCH   3   6
HETATM    6  C           1     -22.528  -9.604  -1.090  0.00  0.00     0.185 C 
BRANCH   6   7
HETATM    7  C           1     -22.329 -10.814  -0.187  0.00  0.00     0.039 C 
BRANCH   7   8
HETATM    8 Se           1     -20.603 -10.680   0.709  0.00  0.00     0.000 Se
HETATM    9  H           1     -19.820 -10.842  -0.526  0.00  0.00     0.000 HD
ENDBRANCH   7   8
ENDBRANCH   6   7
BRANCH   6  10
HETATM   10  C           1     -22.621  -8.356  -0.248  0.00  0.00     0.196 C 
HETATM   11  O           1     -23.442  -8.297   0.693  0.00  0.00    -0.646 OA
HETATM   12  O           1     -21.878  -7.381  -0.490  0.00  0.00    -0.646 OA
ENDBRANCH   6  10
ENDBRANCH   3   6
ENDBRANCH   1   2
BRANCH   1  13
HETATM   13  C           1     -19.848  -8.361  -4.245  0.00  0.00     0.224 C 
BRANCH  13  14
HETATM   14  O           1     -20.906  -7.494  -3.937  0.00  0.00    -0.287 OA
BRANCH  14  15
HETATM   15  P           1     -21.365  -6.489  -5.115  0.00  0.00     0.406 P 
HETATM   16  O           1     -22.813  -6.212  -4.990  0.00  0.00    -0.624 OA
HETATM   17  O           1     -20.608  -5.222  -5.005  0.00  0.00    -0.624 OA
BRANCH  15  18
HETATM   18  O           1     -21.069  -7.169  -6.549  0.00  0.00    -0.300 OA
HETATM   19  H           1     -21.185  -6.476  -7.177  0.00  0.00     0.223 HD
ENDBRANCH  15  18
ENDBRANCH  14  15
ENDBRANCH  13  14
ENDBRANCH   1  13
BRANCH   1  20
HETATM   20  N           1     -20.784 -10.183  -5.621  0.00  0.00    -0.064 N 
HETATM   21  H           1     -20.392  -9.503  -6.312  0.00  0.00     0.275 HD
HETATM   22  H           1     -20.434 -11.143  -5.842  0.00  0.00     0.275 HD
HETATM   23  H           1     -21.827 -10.171  -5.676  0.00  0.00     0.275 HD
ENDBRANCH   1  20
TORSDOF 10
ENDMDL
