MODEL 1
REMARK VINA RESULT:      -6.1      0.000      0.000
REMARK  9 active torsions:
REMARK  status: ('A' for Active; 'I' for Inactive)
REMARK    1  A    between atoms: C_3  and  C_21 
REMARK    2  A    between atoms: C_6  and  C_7 
REMARK    3  A    between atoms: C_6  and  C_21 
REMARK    4  A    between atoms: C_7  and  C_8 
REMARK    5  A    between atoms: C_8  and  C_9 
REMARK    6  A    between atoms: C_9  and  N_15 
REMARK    7  A    between atoms: N_17  and  C_21 
REMARK       I    between atoms: N_17  and  C_18 
REMARK    8  A    between atoms: C_18  and  C_19 
REMARK    9  A    between atoms: C_19  and  N_20 
ROOT
HETATM    1  C           1     -34.792  -1.769 -11.584  0.00  0.00     0.185 C 
ENDROOT
BRANCH   1   2
HETATM    2  C           1     -35.898  -1.664 -10.562  0.00  0.00     0.196 C 
HETATM    3  O           1     -36.797  -2.532 -10.523  0.00  0.00    -0.646 OA
HETATM    4  O           1     -35.916  -0.710  -9.755  0.00  0.00    -0.646 OA
ENDBRANCH   1   2
BRANCH   1   5
HETATM    5  C           1     -33.507  -2.210 -10.896  0.00  0.00     0.036 C 
BRANCH   5   6
HETATM    6  C           1     -33.137  -3.613 -11.360  0.00  0.00     0.004 C 
BRANCH   6   7
HETATM    7  C           1     -33.893  -4.640 -10.527  0.00  0.00     0.027 C 
BRANCH   7   8
HETATM    8  C           1     -34.356  -5.781 -11.423  0.00  0.00     0.229 C 
BRANCH   8   9
HETATM    9  N           1     -34.705  -5.243 -12.779  0.00  0.00    -0.079 N 
HETATM   10  H           1     -34.169  -5.764 -13.509  0.00  0.00     0.274 HD
HETATM   11  H           1     -35.730  -5.360 -12.948  0.00  0.00     0.274 HD
HETATM   12  H           1     -34.460  -4.228 -12.824  0.00  0.00     0.274 HD
ENDBRANCH   8   9
ENDBRANCH   7   8
ENDBRANCH   6   7
ENDBRANCH   5   6
ENDBRANCH   1   5
BRANCH   1  13
HETATM   13  N           1     -34.586  -0.477 -12.208  0.00  0.00    -0.345 N 
HETATM   14  H           1     -34.052   0.237 -11.730  0.00  0.00     0.163 HD
HETATM   15  C           1     -35.116  -0.223 -13.445  0.00  0.00     0.243 C 
HETATM   16  O           1     -35.755  -1.075 -14.015  0.00  0.00    -0.272 OA
BRANCH  15  17
HETATM   17  C           1     -34.902   1.122 -14.095  0.00  0.00     0.332 C 
BRANCH  17  18
HETATM   18  N           1     -35.924   1.325 -15.174  0.00  0.00    -0.071 N 
HETATM   19  H           1     -36.751   0.715 -14.987  0.00  0.00     0.274 HD
HETATM   20  H           1     -36.223   2.325 -15.187  0.00  0.00     0.274 HD
HETATM   21  H           1     -35.508   1.074 -16.100  0.00  0.00     0.274 HD
ENDBRANCH  17  18
ENDBRANCH  15  17
ENDBRANCH   1  13
TORSDOF 9
ENDMDL
MODEL 2
REMARK VINA RESULT:      -5.6      2.436      4.851
REMARK  9 active torsions:
REMARK  status: ('A' for Active; 'I' for Inactive)
REMARK    1  A    between atoms: C_3  and  C_21 
REMARK    2  A    between atoms: C_6  and  C_7 
REMARK    3  A    between atoms: C_6  and  C_21 
REMARK    4  A    between atoms: C_7  and  C_8 
REMARK    5  A    between atoms: C_8  and  C_9 
REMARK    6  A    between atoms: C_9  and  N_15 
REMARK    7  A    between atoms: N_17  and  C_21 
REMARK       I    between atoms: N_17  and  C_18 
REMARK    8  A    between atoms: C_18  and  C_19 
REMARK    9  A    between atoms: C_19  and  N_20 
ROOT
HETATM    1  C           1     -35.434  -1.514 -11.732  0.00  0.00     0.185 C 
ENDROOT
BRANCH   1   2
HETATM    2  C           1     -34.127  -2.097 -11.254  0.00  0.00     0.196 C 
HETATM    3  O           1     -33.570  -3.002 -11.913  0.00  0.00    -0.646 OA
HETATM    4  O           1     -33.600  -1.675 -10.202  0.00  0.00    -0.646 OA
ENDBRANCH   1   2
BRANCH   1   5
HETATM    5  C           1     -35.271  -0.999 -13.156  0.00  0.00     0.036 C 
BRANCH   5   6
HETATM    6  C           1     -34.890   0.475 -13.122  0.00  0.00     0.004 C 
BRANCH   6   7
HETATM    7  C           1     -34.708   0.985 -14.546  0.00  0.00     0.027 C 
BRANCH   7   8
HETATM    8  C           1     -35.991   0.761 -15.335  0.00  0.00     0.229 C 
BRANCH   8   9
HETATM    9  N           1     -36.339   2.010 -16.090  0.00  0.00    -0.079 N 
HETATM   10  H           1     -35.572   2.710 -15.976  0.00  0.00     0.274 HD
HETATM   11  H           1     -36.456   1.784 -17.103  0.00  0.00     0.274 HD
HETATM   12  H           1     -37.232   2.405 -15.717  0.00  0.00     0.274 HD
ENDBRANCH   8   9
ENDBRANCH   7   8
ENDBRANCH   6   7
ENDBRANCH   5   6
ENDBRANCH   1   5
BRANCH   1  13
HETATM   13  N           1     -35.820  -0.418 -10.864  0.00  0.00    -0.345 N 
HETATM   14  H           1     -35.118   0.218 -10.510  0.00  0.00     0.163 HD
HETATM   15  C           1     -37.135  -0.245 -10.524  0.00  0.00     0.243 C 
HETATM   16  O           1     -37.973  -1.005 -10.946  0.00  0.00    -0.272 OA
BRANCH  15  17
HETATM   17  C           1     -37.536   0.895  -9.621  0.00  0.00     0.332 C 
BRANCH  17  18
HETATM   18  N           1     -36.355   1.327  -8.804  0.00  0.00    -0.071 N 
HETATM   19  H           1     -36.415   2.355  -8.623  0.00  0.00     0.274 HD
HETATM   20  H           1     -36.353   0.812  -7.895  0.00  0.00     0.274 HD
HETATM   21  H           1     -35.474   1.116  -9.325  0.00  0.00     0.274 HD
ENDBRANCH  17  18
ENDBRANCH  15  17
ENDBRANCH   1  13
TORSDOF 9
ENDMDL
MODEL 3
REMARK VINA RESULT:      -5.1      1.761      4.990
REMARK  9 active torsions:
REMARK  status: ('A' for Active; 'I' for Inactive)
REMARK    1  A    between atoms: C_3  and  C_21 
REMARK    2  A    between atoms: C_6  and  C_7 
REMARK    3  A    between atoms: C_6  and  C_21 
REMARK    4  A    between atoms: C_7  and  C_8 
REMARK    5  A    between atoms: C_8  and  C_9 
REMARK    6  A    between atoms: C_9  and  N_15 
REMARK    7  A    between atoms: N_17  and  C_21 
REMARK       I    between atoms: N_17  and  C_18 
REMARK    8  A    between atoms: C_18  and  C_19 
REMARK    9  A    between atoms: C_19  and  N_20 
ROOT
HETATM    1  C           1     -35.098  -1.211 -12.044  0.00  0.00     0.185 C 
ENDROOT
BRANCH   1   2
HETATM    2  C           1     -36.169  -1.019 -10.998  0.00  0.00     0.196 C 
HETATM    3  O           1     -37.371  -1.193 -11.296  0.00  0.00    -0.646 OA
HETATM    4  O           1     -35.855  -0.687  -9.835  0.00  0.00    -0.646 OA
ENDBRANCH   1   2
BRANCH   1   5
HETATM    5  C           1     -35.631  -0.771 -13.402  0.00  0.00     0.036 C 
BRANCH   5   6
HETATM    6  C           1     -35.059   0.596 -13.753  0.00  0.00     0.004 C 
BRANCH   6   7
HETATM    7  C           1     -35.447   0.958 -15.181  0.00  0.00     0.027 C 
BRANCH   7   8
HETATM    8  C           1     -36.613   0.086 -15.628  0.00  0.00     0.229 C 
BRANCH   8   9
HETATM    9  N           1     -36.325  -0.475 -16.989  0.00  0.00    -0.079 N 
HETATM   10  H           1     -36.535  -1.499 -16.994  0.00  0.00     0.274 HD
HETATM   11  H           1     -36.923   0.006 -17.698  0.00  0.00     0.274 HD
HETATM   12  H           1     -35.318  -0.324 -17.222  0.00  0.00     0.274 HD
ENDBRANCH   8   9
ENDBRANCH   7   8
ENDBRANCH   6   7
ENDBRANCH   5   6
ENDBRANCH   1   5
BRANCH   1  13
HETATM   13  N           1     -34.725  -2.611 -12.103  0.00  0.00    -0.345 N 
HETATM   14  H           1     -35.282  -3.261 -12.641  0.00  0.00     0.163 HD
HETATM   15  C           1     -33.618  -3.052 -11.428  0.00  0.00     0.243 C 
HETATM   16  O           1     -32.953  -2.276 -10.785  0.00  0.00    -0.272 OA
BRANCH  15  17
HETATM   17  C           1     -33.230  -4.509 -11.489  0.00  0.00     0.332 C 
BRANCH  17  18
HETATM   18  N           1     -34.055  -5.289 -10.509  0.00  0.00    -0.071 N 
HETATM   19  H           1     -33.426  -5.732  -9.801  0.00  0.00     0.274 HD
HETATM   20  H           1     -34.724  -4.647 -10.029  0.00  0.00     0.274 HD
HETATM   21  H           1     -34.588  -6.032 -11.014  0.00  0.00     0.274 HD
ENDBRANCH  17  18
ENDBRANCH  15  17
ENDBRANCH   1  13
TORSDOF 9
ENDMDL
MODEL 4
REMARK VINA RESULT:      -5.1     12.596     13.776
REMARK  9 active torsions:
REMARK  status: ('A' for Active; 'I' for Inactive)
REMARK    1  A    between atoms: C_3  and  C_21 
REMARK    2  A    between atoms: C_6  and  C_7 
REMARK    3  A    between atoms: C_6  and  C_21 
REMARK    4  A    between atoms: C_7  and  C_8 
REMARK    5  A    between atoms: C_8  and  C_9 
REMARK    6  A    between atoms: C_9  and  N_15 
REMARK    7  A    between atoms: N_17  and  C_21 
REMARK       I    between atoms: N_17  and  C_18 
REMARK    8  A    between atoms: C_18  and  C_19 
REMARK    9  A    between atoms: C_19  and  N_20 
ROOT
HETATM    1  C           1     -21.576  -5.186  -8.343  0.00  0.00     0.185 C 
ENDROOT
BRANCH   1   2
HETATM    2  C           1     -21.455  -5.715  -6.934  0.00  0.00     0.196 C 
HETATM    3  O           1     -22.182  -5.251  -6.029  0.00  0.00    -0.646 OA
HETATM    4  O           1     -20.630  -6.616  -6.673  0.00  0.00    -0.646 OA
ENDBRANCH   1   2
BRANCH   1   5
HETATM    5  C           1     -20.222  -4.669  -8.809  0.00  0.00     0.036 C 
BRANCH   5   6
HETATM    6  C           1     -20.144  -4.746 -10.328  0.00  0.00     0.004 C 
BRANCH   6   7
HETATM    7  C           1     -20.183  -3.339 -10.911  0.00  0.00     0.027 C 
BRANCH   7   8
HETATM    8  C           1     -21.430  -3.179 -11.771  0.00  0.00     0.229 C 
BRANCH   8   9
HETATM    9  N           1     -21.911  -4.530 -12.210  0.00  0.00    -0.079 N 
HETATM   10  H           1     -22.700  -4.835 -11.596  0.00  0.00     0.274 HD
HETATM   11  H           1     -22.240  -4.478 -13.200  0.00  0.00     0.274 HD
HETATM   12  H           1     -21.128  -5.218 -12.140  0.00  0.00     0.274 HD
ENDBRANCH   8   9
ENDBRANCH   7   8
ENDBRANCH   6   7
ENDBRANCH   5   6
ENDBRANCH   1   5
BRANCH   1  13
HETATM   13  N           1     -22.542  -4.104  -8.372  0.00  0.00    -0.345 N 
HETATM   14  H           1     -22.432  -3.311  -7.753  0.00  0.00     0.163 HD
HETATM   15  C           1     -23.603  -4.157  -9.235  0.00  0.00     0.243 C 
HETATM   16  O           1     -23.735  -5.105  -9.973  0.00  0.00    -0.272 OA
BRANCH  15  17
HETATM   17  C           1     -24.608  -3.032  -9.265  0.00  0.00     0.332 C 
BRANCH  17  18
HETATM   18  N           1     -25.958  -3.576  -9.626  0.00  0.00    -0.071 N 
HETATM   19  H           1     -25.854  -4.550  -9.991  0.00  0.00     0.274 HD
HETATM   20  H           1     -26.569  -3.583  -8.779  0.00  0.00     0.274 HD
HETATM   21  H           1     -26.392  -2.973 -10.362  0.00  0.00     0.274 HD
ENDBRANCH  17  18
ENDBRANCH  15  17
ENDBRANCH   1  13
TORSDOF 9
ENDMDL
MODEL 5
REMARK VINA RESULT:      -5.0     13.958     15.585
REMARK  9 active torsions:
REMARK  status: ('A' for Active; 'I' for Inactive)
REMARK    1  A    between atoms: C_3  and  C_21 
REMARK    2  A    between atoms: C_6  and  C_7 
REMARK    3  A    between atoms: C_6  and  C_21 
REMARK    4  A    between atoms: C_7  and  C_8 
REMARK    5  A    between atoms: C_8  and  C_9 
REMARK    6  A    between atoms: C_9  and  N_15 
REMARK    7  A    between atoms: N_17  and  C_21 
REMARK       I    between atoms: N_17  and  C_18 
REMARK    8  A    between atoms: C_18  and  C_19 
REMARK    9  A    between atoms: C_19  and  N_20 
ROOT
HETATM    1  C           1     -21.262  -5.538  -6.464  0.00  0.00     0.185 C 
ENDROOT
BRANCH   1   2
HETATM    2  C           1     -19.899  -5.749  -7.077  0.00  0.00     0.196 C 
HETATM    3  O           1     -19.374  -6.883  -7.055  0.00  0.00    -0.646 OA
HETATM    4  O           1     -19.296  -4.792  -7.608  0.00  0.00    -0.646 OA
ENDBRANCH   1   2
BRANCH   1   5
HETATM    5  C           1     -21.809  -4.184  -6.897  0.00  0.00     0.036 C 
BRANCH   5   6
HETATM    6  C           1     -23.126  -4.381  -7.635  0.00  0.00     0.004 C 
BRANCH   6   7
HETATM    7  C           1     -22.976  -3.913  -9.077  0.00  0.00     0.027 C 
BRANCH   7   8
HETATM    8  C           1     -24.138  -4.442  -9.907  0.00  0.00     0.229 C 
BRANCH   8   9
HETATM    9  N           1     -25.356  -3.604  -9.653  0.00  0.00    -0.079 N 
HETATM   10  H           1     -25.868  -3.977  -8.822  0.00  0.00     0.274 HD
HETATM   11  H           1     -25.068  -2.616  -9.470  0.00  0.00     0.274 HD
HETATM   12  H           1     -25.980  -3.634 -10.491  0.00  0.00     0.274 HD
ENDBRANCH   8   9
ENDBRANCH   7   8
ENDBRANCH   6   7
ENDBRANCH   5   6
ENDBRANCH   1   5
BRANCH   1  13
HETATM   13  N           1     -21.152  -5.574  -5.018  0.00  0.00    -0.345 N 
HETATM   14  H           1     -20.813  -4.763  -4.516  0.00  0.00     0.163 HD
HETATM   15  C           1     -21.507  -6.705  -4.333  0.00  0.00     0.243 C 
HETATM   16  O           1     -21.911  -7.672  -4.933  0.00  0.00    -0.272 OA
BRANCH  15  17
HETATM   17  C           1     -21.393  -6.742  -2.829  0.00  0.00     0.332 C 
BRANCH  17  18
HETATM   18  N           1     -22.416  -5.826  -2.226  0.00  0.00    -0.071 N 
HETATM   19  H           1     -23.355  -6.040  -2.631  0.00  0.00     0.274 HD
HETATM   20  H           1     -22.442  -5.967  -1.191  0.00  0.00     0.274 HD
HETATM   21  H           1     -22.164  -4.834  -2.436  0.00  0.00     0.274 HD
ENDBRANCH  17  18
ENDBRANCH  15  17
ENDBRANCH   1  13
TORSDOF 9
ENDMDL
MODEL 6
REMARK VINA RESULT:      -4.9     14.690     16.541
REMARK  9 active torsions:
REMARK  status: ('A' for Active; 'I' for Inactive)
REMARK    1  A    between atoms: C_3  and  C_21 
REMARK    2  A    between atoms: C_6  and  C_7 
REMARK    3  A    between atoms: C_6  and  C_21 
REMARK    4  A    between atoms: C_7  and  C_8 
REMARK    5  A    between atoms: C_8  and  C_9 
REMARK    6  A    between atoms: C_9  and  N_15 
REMARK    7  A    between atoms: N_17  and  C_21 
REMARK       I    between atoms: N_17  and  C_18 
REMARK    8  A    between atoms: C_18  and  C_19 
REMARK    9  A    between atoms: C_19  and  N_20 
ROOT
HETATM    1  C           1     -20.826  -6.779  -5.467  0.00  0.00     0.185 C 
ENDROOT
BRANCH   1   2
HETATM    2  C           1     -21.997  -6.293  -4.648  0.00  0.00     0.196 C 
HETATM    3  O           1     -21.863  -6.101  -3.420  0.00  0.00    -0.646 OA
HETATM    4  O           1     -23.100  -6.082  -5.197  0.00  0.00    -0.646 OA
ENDBRANCH   1   2
BRANCH   1   5
HETATM    5  C           1     -20.824  -6.077  -6.818  0.00  0.00     0.036 C 
BRANCH   5   6
HETATM    6  C           1     -20.274  -4.666  -6.657  0.00  0.00     0.004 C 
BRANCH   6   7
HETATM    7  C           1     -21.299  -3.659  -7.160  0.00  0.00     0.027 C 
BRANCH   7   8
HETATM    8  C           1     -22.254  -4.346  -8.127  0.00  0.00     0.229 C 
BRANCH   8   9
HETATM    9  N           1     -23.666  -4.155  -7.657  0.00  0.00    -0.079 N 
HETATM   10  H           1     -24.188  -5.056  -7.748  0.00  0.00     0.274 HD
HETATM   11  H           1     -23.663  -3.853  -6.657  0.00  0.00     0.274 HD
HETATM   12  H           1     -24.131  -3.422  -8.240  0.00  0.00     0.274 HD
ENDBRANCH   8   9
ENDBRANCH   7   8
ENDBRANCH   6   7
ENDBRANCH   5   6
ENDBRANCH   1   5
BRANCH   1  13
HETATM   13  N           1     -20.938  -8.211  -5.668  0.00  0.00    -0.345 N 
HETATM   14  H           1     -21.605  -8.578  -6.334  0.00  0.00     0.163 HD
HETATM   15  C           1     -20.141  -9.066  -4.955  0.00  0.00     0.243 C 
HETATM   16  O           1     -19.345  -8.628  -4.159  0.00  0.00    -0.272 OA
BRANCH  15  17
HETATM   17  C           1     -20.257 -10.556  -5.164  0.00  0.00     0.332 C 
BRANCH  17  18
HETATM   18  N           1     -21.101 -10.828  -6.374  0.00  0.00    -0.071 N 
HETATM   19  H           1     -21.239  -9.939  -6.907  0.00  0.00     0.274 HD
HETATM   20  H           1     -20.621 -11.528  -6.982  0.00  0.00     0.274 HD
HETATM   21  H           1     -22.029 -11.203  -6.076  0.00  0.00     0.274 HD
ENDBRANCH  17  18
ENDBRANCH  15  17
ENDBRANCH   1  13
TORSDOF 9
ENDMDL
MODEL 7
REMARK VINA RESULT:      -4.8     13.980     15.557
REMARK  9 active torsions:
REMARK  status: ('A' for Active; 'I' for Inactive)
REMARK    1  A    between atoms: C_3  and  C_21 
REMARK    2  A    between atoms: C_6  and  C_7 
REMARK    3  A    between atoms: C_6  and  C_21 
REMARK    4  A    between atoms: C_7  and  C_8 
REMARK    5  A    between atoms: C_8  and  C_9 
REMARK    6  A    between atoms: C_9  and  N_15 
REMARK    7  A    between atoms: N_17  and  C_21 
REMARK       I    between atoms: N_17  and  C_18 
REMARK    8  A    between atoms: C_18  and  C_19 
REMARK    9  A    between atoms: C_19  and  N_20 
ROOT
HETATM    1  C           1     -21.347  -5.094  -7.528  0.00  0.00     0.185 C 
ENDROOT
BRANCH   1   2
HETATM    2  C           1     -19.986  -4.441  -7.558  0.00  0.00     0.196 C 
HETATM    3  O           1     -19.181  -4.633  -6.622  0.00  0.00    -0.646 OA
HETATM    4  O           1     -19.665  -3.710  -8.519  0.00  0.00    -0.646 OA
ENDBRANCH   1   2
BRANCH   1   5
HETATM    5  C           1     -22.387  -4.125  -8.075  0.00  0.00     0.036 C 
BRANCH   5   6
HETATM    6  C           1     -22.928  -4.654  -9.396  0.00  0.00     0.004 C 
BRANCH   6   7
HETATM    7  C           1     -22.628  -3.654 -10.505  0.00  0.00     0.027 C 
BRANCH   7   8
HETATM    8  C           1     -21.587  -4.240 -11.450  0.00  0.00     0.229 C 
BRANCH   8   9
HETATM    9  N           1     -20.390  -3.336 -11.499  0.00  0.00    -0.079 N 
HETATM   10  H           1     -20.567  -2.493 -10.907  0.00  0.00     0.274 HD
HETATM   11  H           1     -19.553  -3.846 -11.137  0.00  0.00     0.274 HD
HETATM   12  H           1     -20.218  -3.040 -12.486  0.00  0.00     0.274 HD
ENDBRANCH   8   9
ENDBRANCH   7   8
ENDBRANCH   6   7
ENDBRANCH   5   6
ENDBRANCH   1   5
BRANCH   1  13
HETATM   13  N           1     -21.685  -5.443  -6.161  0.00  0.00    -0.345 N 
HETATM   14  H           1     -22.037  -4.735  -5.530  0.00  0.00     0.163 HD
HETATM   15  C           1     -21.526  -6.731  -5.726  0.00  0.00     0.243 C 
HETATM   16  O           1     -21.105  -7.577  -6.479  0.00  0.00    -0.272 OA
BRANCH  15  17
HETATM   17  C           1     -21.877  -7.095  -4.304  0.00  0.00     0.332 C 
BRANCH  17  18
HETATM   18  N           1     -21.586  -5.932  -3.403  0.00  0.00    -0.071 N 
HETATM   19  H           1     -21.306  -6.285  -2.460  0.00  0.00     0.274 HD
HETATM   20  H           1     -20.808  -5.364  -3.808  0.00  0.00     0.274 HD
HETATM   21  H           1     -22.440  -5.338  -3.312  0.00  0.00     0.274 HD
ENDBRANCH  17  18
ENDBRANCH  15  17
ENDBRANCH   1  13
TORSDOF 9
ENDMDL
MODEL 8
REMARK VINA RESULT:      -4.8     14.858     16.045
REMARK  9 active torsions:
REMARK  status: ('A' for Active; 'I' for Inactive)
REMARK    1  A    between atoms: C_3  and  C_21 
REMARK    2  A    between atoms: C_6  and  C_7 
REMARK    3  A    between atoms: C_6  and  C_21 
REMARK    4  A    between atoms: C_7  and  C_8 
REMARK    5  A    between atoms: C_8  and  C_9 
REMARK    6  A    between atoms: C_9  and  N_15 
REMARK    7  A    between atoms: N_17  and  C_21 
REMARK       I    between atoms: N_17  and  C_18 
REMARK    8  A    between atoms: C_18  and  C_19 
REMARK    9  A    between atoms: C_19  and  N_20 
ROOT
HETATM    1  C           1     -21.206  -6.190  -5.268  0.00  0.00     0.185 C 
ENDROOT
BRANCH   1   2
HETATM    2  C           1     -20.613  -7.484  -5.770  0.00  0.00     0.196 C 
HETATM    3  O           1     -19.436  -7.511  -6.188  0.00  0.00    -0.646 OA
HETATM    4  O           1     -21.299  -8.529  -5.768  0.00  0.00    -0.646 OA
ENDBRANCH   1   2
BRANCH   1   5
HETATM    5  C           1     -22.102  -6.474  -4.069  0.00  0.00     0.036 C 
BRANCH   5   6
HETATM    6  C           1     -21.344  -6.167  -2.784  0.00  0.00     0.004 C 
BRANCH   6   7
HETATM    7  C           1     -22.265  -6.374  -1.589  0.00  0.00     0.027 C 
BRANCH   7   8
HETATM    8  C           1     -22.056  -7.772  -1.022  0.00  0.00     0.229 C 
BRANCH   8   9
HETATM    9  N           1     -22.633  -7.843   0.361  0.00  0.00    -0.079 N 
HETATM   10  H           1     -23.543  -8.355   0.332  0.00  0.00     0.274 HD
HETATM   11  H           1     -21.969  -8.347   0.991  0.00  0.00     0.274 HD
HETATM   12  H           1     -22.788  -6.875   0.722  0.00  0.00     0.274 HD
ENDBRANCH   8   9
ENDBRANCH   7   8
ENDBRANCH   6   7
ENDBRANCH   5   6
ENDBRANCH   1   5
BRANCH   1  13
HETATM   13  N           1     -21.989  -5.576  -6.322  0.00  0.00    -0.345 N 
HETATM   14  H           1     -22.910  -5.932  -6.541  0.00  0.00     0.163 HD
HETATM   15  C           1     -21.482  -4.513  -7.020  0.00  0.00     0.243 C 
HETATM   16  O           1     -20.382  -4.088  -6.759  0.00  0.00    -0.272 OA
BRANCH  15  17
HETATM   17  C           1     -22.297  -3.874  -8.117  0.00  0.00     0.332 C 
BRANCH  17  18
HETATM   18  N           1     -23.757  -4.100  -7.854  0.00  0.00    -0.071 N 
HETATM   19  H           1     -24.157  -3.261  -7.376  0.00  0.00     0.274 HD
HETATM   20  H           1     -24.254  -4.258  -8.758  0.00  0.00     0.274 HD
HETATM   21  H           1     -23.875  -4.938  -7.241  0.00  0.00     0.274 HD
ENDBRANCH  17  18
ENDBRANCH  15  17
ENDBRANCH   1  13
TORSDOF 9
ENDMDL
MODEL 9
REMARK VINA RESULT:      -4.7     13.473     14.494
REMARK  9 active torsions:
REMARK  status: ('A' for Active; 'I' for Inactive)
REMARK    1  A    between atoms: C_3  and  C_21 
REMARK    2  A    between atoms: C_6  and  C_7 
REMARK    3  A    between atoms: C_6  and  C_21 
REMARK    4  A    between atoms: C_7  and  C_8 
REMARK    5  A    between atoms: C_8  and  C_9 
REMARK    6  A    between atoms: C_9  and  N_15 
REMARK    7  A    between atoms: N_17  and  C_21 
REMARK       I    between atoms: N_17  and  C_18 
REMARK    8  A    between atoms: C_18  and  C_19 
REMARK    9  A    between atoms: C_19  and  N_20 
ROOT
HETATM    1  C           1     -21.717  -4.407  -8.039  0.00  0.00     0.185 C 
ENDROOT
BRANCH   1   2
HETATM    2  C           1     -23.174  -4.421  -7.646  0.00  0.00     0.196 C 
HETATM    3  O           1     -24.045  -4.062  -8.467  0.00  0.00    -0.646 OA
HETATM    4  O           1     -23.510  -4.790  -6.500  0.00  0.00    -0.646 OA
ENDBRANCH   1   2
BRANCH   1   5
HETATM    5  C           1     -20.917  -3.635  -6.998  0.00  0.00     0.036 C 
BRANCH   5   6
HETATM    6  C           1     -20.330  -4.608  -5.984  0.00  0.00     0.004 C 
BRANCH   6   7
HETATM    7  C           1     -20.086  -5.954  -6.653  0.00  0.00     0.027 C 
BRANCH   7   8
HETATM    8  C           1     -20.476  -7.075  -5.699  0.00  0.00     0.229 C 
BRANCH   8   9
HETATM    9  N           1     -21.842  -6.804  -5.142  0.00  0.00    -0.079 N 
HETATM   10  H           1     -22.032  -7.461  -4.351  0.00  0.00     0.274 HD
HETATM   11  H           1     -21.890  -5.819  -4.796  0.00  0.00     0.274 HD
HETATM   12  H           1     -22.558  -6.945  -5.891  0.00  0.00     0.274 HD
ENDBRANCH   8   9
ENDBRANCH   7   8
ENDBRANCH   6   7
ENDBRANCH   5   6
ENDBRANCH   1   5
BRANCH   1  13
HETATM   13  N           1     -21.571  -3.768  -9.332  0.00  0.00    -0.345 N 
HETATM   14  H           1     -22.194  -3.017  -9.598  0.00  0.00     0.163 HD
HETATM   15  C           1     -20.589  -4.181 -10.192  0.00  0.00     0.243 C 
HETATM   16  O           1     -19.845  -5.078  -9.875  0.00  0.00    -0.272 OA
BRANCH  15  17
HETATM   17  C           1     -20.437  -3.515 -11.538  0.00  0.00     0.332 C 
BRANCH  17  18
HETATM   18  N           1     -21.536  -3.973 -12.450  0.00  0.00    -0.071 N 
HETATM   19  H           1     -21.123  -4.499 -13.254  0.00  0.00     0.274 HD
HETATM   20  H           1     -22.189  -4.596 -11.924  0.00  0.00     0.274 HD
HETATM   21  H           1     -22.060  -3.144 -12.810  0.00  0.00     0.274 HD
ENDBRANCH  17  18
ENDBRANCH  15  17
ENDBRANCH   1  13
TORSDOF 9
ENDMDL
