MODEL 1
REMARK VINA RESULT:      -4.9      0.000      0.000
REMARK  4 active torsions:
REMARK  status: ('A' for Active; 'I' for Inactive)
REMARK    1  A    between atoms: C_8  and  C_10 
REMARK    2  A    between atoms: C_10  and  C_11 
REMARK    3  A    between atoms: C_10  and  N_14 
REMARK       I    between atoms: N_14  and  C_15 
REMARK    4  A    between atoms: C_15  and  C_18 
ROOT
HETATM    1  H           1     -22.350  -8.451  -2.478  0.00  0.00     0.163 HD
HETATM    2  O           1     -19.679 -10.019  -1.984  0.00  0.00    -0.271 OA
HETATM    3  N           1     -21.694  -9.059  -2.003  0.00  0.00    -0.344 N 
HETATM    4  C           1     -20.461  -9.294  -2.551  0.00  0.00     0.249 C 
ENDROOT
BRANCH   4   5
HETATM    5  C           1     -20.080  -8.648  -3.860  0.00  0.00     0.274 C 
HETATM    6  N           1     -18.719  -9.123  -4.273  0.00  0.00    -0.067 N 
HETATM    7  H           1     -18.454  -8.676  -5.180  0.00  0.00     0.275 HD
HETATM    8  H           1     -18.022  -8.861  -3.539  0.00  0.00     0.275 HD
HETATM    9  H           1     -18.732 -10.162  -4.387  0.00  0.00     0.275 HD
HETATM   10 Se           1     -19.345 -11.160  -5.634  0.00  0.00     0.000 Se
HETATM   11  C           1     -21.114 -10.544  -5.097  0.00  0.00     0.003 C 
HETATM   12  C           1     -19.846 -13.041  -5.716  0.00  0.00     0.000 C 
HETATM   13  C           1     -21.096  -9.029  -4.929  0.00  0.00     0.042 C 
ENDBRANCH   4   5
BRANCH   3  14
HETATM   14  C           1     -22.061  -9.679  -0.746  0.00  0.00     0.189 C 
BRANCH  14  15
HETATM   15  C           1     -22.377  -8.599   0.280  0.00  0.00     0.010 C 
HETATM   16  C           1     -21.244  -8.516   1.295  0.00  0.00     0.012 C 
HETATM   17  C           1     -22.525  -7.258  -0.426  0.00  0.00     0.012 C 
ENDBRANCH  14  15
BRANCH  14  18
HETATM   18  C           1     -23.277 -10.550  -0.951  0.00  0.00     0.197 C 
HETATM   19  O           1     -24.122 -10.669  -0.038  0.00  0.00    -0.646 OA
HETATM   20  O           1     -23.437 -11.152  -2.034  0.00  0.00    -0.646 OA
ENDBRANCH  14  18
ENDBRANCH   3  14
TORSDOF 4
ENDMDL
MODEL 2
REMARK VINA RESULT:      -4.7     25.384     26.729
REMARK  4 active torsions:
REMARK  status: ('A' for Active; 'I' for Inactive)
REMARK    1  A    between atoms: C_8  and  C_10 
REMARK    2  A    between atoms: C_10  and  C_11 
REMARK    3  A    between atoms: C_10  and  N_14 
REMARK       I    between atoms: N_14  and  C_15 
REMARK    4  A    between atoms: C_15  and  C_18 
ROOT
HETATM    1  H           1     -12.440   6.512 -19.895  0.00  0.00     0.163 HD
HETATM    2  O           1      -9.500   6.163 -20.932  0.00  0.00    -0.271 OA
HETATM    3  N           1     -11.531   6.787 -20.246  0.00  0.00    -0.344 N 
HETATM    4  C           1     -10.584   5.834 -20.513  0.00  0.00     0.249 C 
ENDROOT
BRANCH   4   5
HETATM    5  C           1     -10.895   4.375 -20.285  0.00  0.00     0.274 C 
HETATM    6  N           1     -12.202   4.252 -19.558  0.00  0.00    -0.067 N 
HETATM    7  H           1     -12.418   3.242 -19.399  0.00  0.00     0.275 HD
HETATM    8  H           1     -12.134   4.742 -18.637  0.00  0.00     0.275 HD
HETATM    9  H           1     -12.962   4.685 -20.129  0.00  0.00     0.275 HD
HETATM   10 Se           1     -13.799   4.130 -21.514  0.00  0.00     0.000 Se
HETATM   11  C           1     -12.102   4.292 -22.460  0.00  0.00     0.003 C 
HETATM   12  C           1     -14.841   5.027 -22.895  0.00  0.00     0.000 C 
HETATM   13  C           1     -10.994   3.661 -21.626  0.00  0.00     0.042 C 
ENDBRANCH   4   5
BRANCH   3  14
HETATM   14  C           1     -11.232   8.188 -20.465  0.00  0.00     0.189 C 
BRANCH  14  15
HETATM   15  C           1     -12.357   8.827 -21.269  0.00  0.00     0.010 C 
HETATM   16  C           1     -11.941  10.227 -21.698  0.00  0.00     0.012 C 
HETATM   17  C           1     -12.641   7.980 -22.502  0.00  0.00     0.012 C 
ENDBRANCH  14  15
BRANCH  14  18
HETATM   18  C           1     -11.105   8.888 -19.133  0.00  0.00     0.197 C 
HETATM   19  O           1     -12.131   9.208 -18.494  0.00  0.00    -0.646 OA
HETATM   20  O           1      -9.974   9.147 -18.670  0.00  0.00    -0.646 OA
ENDBRANCH  14  18
ENDBRANCH   3  14
TORSDOF 4
ENDMDL
MODEL 3
REMARK VINA RESULT:      -4.7      7.270      9.372
REMARK  4 active torsions:
REMARK  status: ('A' for Active; 'I' for Inactive)
REMARK    1  A    between atoms: C_8  and  C_10 
REMARK    2  A    between atoms: C_10  and  C_11 
REMARK    3  A    between atoms: C_10  and  N_14 
REMARK       I    between atoms: N_14  and  C_15 
REMARK    4  A    between atoms: C_15  and  C_18 
ROOT
HETATM    1  H           1     -22.679  -3.327  -8.628  0.00  0.00     0.163 HD
HETATM    2  O           1     -20.482  -5.559  -8.447  0.00  0.00    -0.271 OA
HETATM    3  N           1     -22.062  -4.063  -8.948  0.00  0.00    -0.344 N 
HETATM    4  C           1     -21.218  -4.681  -8.064  0.00  0.00     0.249 C 
ENDROOT
BRANCH   4   5
HETATM    5  C           1     -21.208  -4.266  -6.613  0.00  0.00     0.274 C 
HETATM    6  N           1     -22.435  -4.797  -5.934  0.00  0.00    -0.067 N 
HETATM    7  H           1     -22.430  -4.510  -4.929  0.00  0.00     0.275 HD
HETATM    8  H           1     -23.287  -4.409  -6.402  0.00  0.00     0.275 HD
HETATM    9  H           1     -22.446  -5.840  -5.999  0.00  0.00     0.275 HD
HETATM   10 Se           1     -21.579  -7.040  -5.142  0.00  0.00     0.000 Se
HETATM   11  C           1     -19.983  -6.350  -6.024  0.00  0.00     0.003 C 
HETATM   12  C           1     -21.170  -8.910  -5.504  0.00  0.00     0.000 C 
HETATM   13  C           1     -19.969  -4.830  -5.932  0.00  0.00     0.042 C 
ENDBRANCH   4   5
BRANCH   3  14
HETATM   14  C           1     -22.071  -4.461 -10.342  0.00  0.00     0.189 C 
BRANCH  14  15
HETATM   15  C           1     -23.481  -4.320 -10.900  0.00  0.00     0.010 C 
HETATM   16  C           1     -23.669  -5.295 -12.055  0.00  0.00     0.012 C 
HETATM   17  C           1     -24.493  -4.629  -9.804  0.00  0.00     0.012 C 
ENDBRANCH  14  15
BRANCH  14  18
HETATM   18  C           1     -21.129  -3.577 -11.123  0.00  0.00     0.197 C 
HETATM   19  O           1     -19.941  -3.926 -11.294  0.00  0.00    -0.646 OA
HETATM   20  O           1     -21.538  -2.496 -11.599  0.00  0.00    -0.646 OA
ENDBRANCH  14  18
ENDBRANCH   3  14
TORSDOF 4
ENDMDL
MODEL 4
REMARK VINA RESULT:      -4.7      2.344      2.985
REMARK  4 active torsions:
REMARK  status: ('A' for Active; 'I' for Inactive)
REMARK    1  A    between atoms: C_8  and  C_10 
REMARK    2  A    between atoms: C_10  and  C_11 
REMARK    3  A    between atoms: C_10  and  N_14 
REMARK       I    between atoms: N_14  and  C_15 
REMARK    4  A    between atoms: C_15  and  C_18 
ROOT
HETATM    1  H           1     -19.732  -8.369  -0.950  0.00  0.00     0.163 HD
HETATM    2  O           1     -20.835 -10.790  -2.612  0.00  0.00    -0.271 OA
HETATM    3  N           1     -20.409  -8.931  -1.450  0.00  0.00    -0.344 N 
HETATM    4  C           1     -20.027 -10.119  -2.015  0.00  0.00     0.249 C 
ENDROOT
BRANCH   4   5
HETATM    5  C           1     -18.598 -10.588  -1.894  0.00  0.00     0.274 C 
HETATM    6  N           1     -18.508 -12.026  -2.309  0.00  0.00    -0.067 N 
HETATM    7  H           1     -17.519 -12.352  -2.225  0.00  0.00     0.275 HD
HETATM    8  H           1     -19.119 -12.606  -1.689  0.00  0.00     0.275 HD
HETATM    9  H           1     -18.824 -12.124  -3.300  0.00  0.00     0.275 HD
HETATM   10 Se           1     -18.049 -11.756  -4.780  0.00  0.00     0.000 Se
HETATM   11  C           1     -18.166  -9.886  -4.242  0.00  0.00     0.003 C 
HETATM   12  C           1     -18.702 -11.446  -6.590  0.00  0.00     0.000 C 
HETATM   13  C           1     -17.707  -9.744  -2.796  0.00  0.00     0.042 C 
ENDBRANCH   4   5
BRANCH   3  14
HETATM   14  C           1     -21.781  -8.480  -1.567  0.00  0.00     0.189 C 
BRANCH  14  15
HETATM   15  C           1     -22.457  -8.553  -0.204  0.00  0.00     0.010 C 
HETATM   16  C           1     -23.248  -9.850  -0.099  0.00  0.00     0.012 C 
HETATM   17  C           1     -21.398  -8.512   0.889  0.00  0.00     0.012 C 
ENDBRANCH  14  15
BRANCH  14  18
HETATM   18  C           1     -21.801  -7.055  -2.064  0.00  0.00     0.197 C 
HETATM   19  O           1     -22.543  -6.211  -1.515  0.00  0.00    -0.646 OA
HETATM   20  O           1     -21.075  -6.718  -3.024  0.00  0.00    -0.646 OA
ENDBRANCH  14  18
ENDBRANCH   3  14
TORSDOF 4
ENDMDL
MODEL 5
REMARK VINA RESULT:      -4.7      1.769      2.186
REMARK  4 active torsions:
REMARK  status: ('A' for Active; 'I' for Inactive)
REMARK    1  A    between atoms: C_8  and  C_10 
REMARK    2  A    between atoms: C_10  and  C_11 
REMARK    3  A    between atoms: C_10  and  N_14 
REMARK       I    between atoms: N_14  and  C_15 
REMARK    4  A    between atoms: C_15  and  C_18 
ROOT
HETATM    1  H           1     -22.663  -9.832  -1.772  0.00  0.00     0.163 HD
HETATM    2  O           1     -20.000  -8.762  -3.039  0.00  0.00    -0.271 OA
HETATM    3  N           1     -21.750  -9.394  -1.806  0.00  0.00    -0.344 N 
HETATM    4  C           1     -21.089  -9.284  -2.999  0.00  0.00     0.249 C 
ENDROOT
BRANCH   4   5
HETATM    5  C           1     -21.718  -9.815  -4.264  0.00  0.00     0.274 C 
HETATM    6  N           1     -20.818  -9.527  -5.429  0.00  0.00    -0.067 N 
HETATM    7  H           1     -21.253  -9.894  -6.305  0.00  0.00     0.275 HD
HETATM    8  H           1     -20.681  -8.493  -5.514  0.00  0.00     0.275 HD
HETATM    9  H           1     -19.893  -9.990  -5.278  0.00  0.00     0.275 HD
HETATM   10 Se           1     -19.402 -11.620  -5.435  0.00  0.00     0.000 Se
HETATM   11  C           1     -20.570 -11.996  -3.921  0.00  0.00     0.003 C 
HETATM   12  C           1     -17.894 -12.636  -4.733  0.00  0.00     0.000 C 
HETATM   13  C           1     -21.918 -11.320  -4.139  0.00  0.00     0.042 C 
ENDBRANCH   4   5
BRANCH   3  14
HETATM   14  C           1     -21.146  -8.884  -0.591  0.00  0.00     0.189 C 
BRANCH  14  15
HETATM   15  C           1     -22.036  -7.800   0.002  0.00  0.00     0.010 C 
HETATM   16  C           1     -22.264  -6.708  -1.034  0.00  0.00     0.012 C 
HETATM   17  C           1     -23.373  -8.407   0.405  0.00  0.00     0.012 C 
ENDBRANCH  14  15
BRANCH  14  18
HETATM   18  C           1     -20.992 -10.010   0.403  0.00  0.00     0.197 C 
HETATM   19  O           1     -20.548  -9.776   1.548  0.00  0.00    -0.646 OA
HETATM   20  O           1     -21.308 -11.175   0.081  0.00  0.00    -0.646 OA
ENDBRANCH  14  18
ENDBRANCH   3  14
TORSDOF 4
ENDMDL
MODEL 6
REMARK VINA RESULT:      -4.7      2.640      4.403
REMARK  4 active torsions:
REMARK  status: ('A' for Active; 'I' for Inactive)
REMARK    1  A    between atoms: C_8  and  C_10 
REMARK    2  A    between atoms: C_10  and  C_11 
REMARK    3  A    between atoms: C_10  and  N_14 
REMARK       I    between atoms: N_14  and  C_15 
REMARK    4  A    between atoms: C_15  and  C_18 
ROOT
HETATM    1  H           1     -22.736  -9.504  -2.265  0.00  0.00     0.163 HD
HETATM    2  O           1     -21.208  -9.394   0.473  0.00  0.00    -0.271 OA
HETATM    3  N           1     -22.066  -9.182  -1.578  0.00  0.00    -0.344 N 
HETATM    4  C           1     -22.009  -9.778  -0.347  0.00  0.00     0.249 C 
ENDROOT
BRANCH   4   5
HETATM    5  C           1     -22.944 -10.914  -0.013  0.00  0.00     0.274 C 
HETATM    6  N           1     -23.868 -11.156  -1.170  0.00  0.00    -0.067 N 
HETATM    7  H           1     -24.516 -11.942  -0.940  0.00  0.00     0.275 HD
HETATM    8  H           1     -24.424 -10.290  -1.357  0.00  0.00     0.275 HD
HETATM    9  H           1     -23.309 -11.401  -2.018  0.00  0.00     0.275 HD
HETATM   10 Se           1     -22.522 -12.848  -2.479  0.00  0.00     0.000 Se
HETATM   11  C           1     -21.320 -12.535  -0.977  0.00  0.00     0.003 C 
HETATM   12  C           1     -21.097 -13.249  -3.747  0.00  0.00     0.000 C 
HETATM   13  C           1     -22.135 -12.176   0.259  0.00  0.00     0.042 C 
ENDBRANCH   4   5
BRANCH   3  14
HETATM   14  C           1     -21.168  -8.090  -1.898  0.00  0.00     0.189 C 
BRANCH  14  15
HETATM   15  C           1     -20.553  -8.325  -3.272  0.00  0.00     0.010 C 
HETATM   16  C           1     -19.217  -9.039  -3.114  0.00  0.00     0.012 C 
HETATM   17  C           1     -21.494  -9.184  -4.107  0.00  0.00     0.012 C 
ENDBRANCH  14  15
BRANCH  14  18
HETATM   18  C           1     -21.939  -6.792  -1.906  0.00  0.00     0.197 C 
HETATM   19  O           1     -21.810  -5.995  -2.861  0.00  0.00    -0.646 OA
HETATM   20  O           1     -22.705  -6.515  -0.959  0.00  0.00    -0.646 OA
ENDBRANCH  14  18
ENDBRANCH   3  14
TORSDOF 4
ENDMDL
MODEL 7
REMARK VINA RESULT:      -4.6      2.726      4.815
REMARK  4 active torsions:
REMARK  status: ('A' for Active; 'I' for Inactive)
REMARK    1  A    between atoms: C_8  and  C_10 
REMARK    2  A    between atoms: C_10  and  C_11 
REMARK    3  A    between atoms: C_10  and  N_14 
REMARK       I    between atoms: N_14  and  C_15 
REMARK    4  A    between atoms: C_15  and  C_18 
ROOT
HETATM    1  H           1     -21.045  -8.003  -1.124  0.00  0.00     0.163 HD
HETATM    2  O           1     -22.497 -10.491  -2.367  0.00  0.00    -0.271 OA
HETATM    3  N           1     -21.382  -8.628  -1.846  0.00  0.00    -0.344 N 
HETATM    4  C           1     -22.095  -9.746  -1.505  0.00  0.00     0.249 C 
ENDROOT
BRANCH   4   5
HETATM    5  C           1     -22.380 -10.046  -0.054  0.00  0.00     0.274 C 
HETATM    6  N           1     -23.070 -11.374   0.054  0.00  0.00    -0.067 N 
HETATM    7  H           1     -23.267 -11.583   1.059  0.00  0.00     0.275 HD
HETATM    8  H           1     -23.970 -11.342  -0.478  0.00  0.00     0.275 HD
HETATM    9  H           1     -22.455 -12.120  -0.343  0.00  0.00     0.275 HD
HETATM   10 Se           1     -21.072 -12.905   0.286  0.00  0.00     0.000 Se
HETATM   11  C           1     -20.174 -11.180   0.145  0.00  0.00     0.003 C 
HETATM   12  C           1     -19.618 -13.912  -0.533  0.00  0.00     0.000 C 
HETATM   13  C           1     -21.070 -10.092   0.722  0.00  0.00     0.042 C 
ENDBRANCH   4   5
BRANCH   3  14
HETATM   14  C           1     -21.108  -8.338  -3.240  0.00  0.00     0.189 C 
BRANCH  14  15
HETATM   15  C           1     -21.324  -6.854  -3.501  0.00  0.00     0.010 C 
HETATM   16  C           1     -22.236  -6.679  -4.709  0.00  0.00     0.012 C 
HETATM   17  C           1     -21.968  -6.213  -2.280  0.00  0.00     0.012 C 
ENDBRANCH  14  15
BRANCH  14  18
HETATM   18  C           1     -19.678  -8.704  -3.557  0.00  0.00     0.197 C 
HETATM   19  O           1     -18.913  -9.085  -2.644  0.00  0.00    -0.646 OA
HETATM   20  O           1     -19.259  -8.625  -4.731  0.00  0.00    -0.646 OA
ENDBRANCH  14  18
ENDBRANCH   3  14
TORSDOF 4
ENDMDL
MODEL 8
REMARK VINA RESULT:      -4.6      1.989      2.525
REMARK  4 active torsions:
REMARK  status: ('A' for Active; 'I' for Inactive)
REMARK    1  A    between atoms: C_8  and  C_10 
REMARK    2  A    between atoms: C_10  and  C_11 
REMARK    3  A    between atoms: C_10  and  N_14 
REMARK       I    between atoms: N_14  and  C_15 
REMARK    4  A    between atoms: C_15  and  C_18 
ROOT
HETATM    1  H           1     -20.322 -10.807  -1.806  0.00  0.00     0.163 HD
HETATM    2  O           1     -20.784  -7.737  -2.253  0.00  0.00    -0.271 OA
HETATM    3  N           1     -20.738  -9.893  -1.676  0.00  0.00    -0.344 N 
HETATM    4  C           1     -20.287  -8.827  -2.408  0.00  0.00     0.249 C 
ENDROOT
BRANCH   4   5
HETATM    5  C           1     -19.171  -9.014  -3.407  0.00  0.00     0.274 C 
HETATM    6  N           1     -18.715 -10.443  -3.384  0.00  0.00    -0.067 N 
HETATM    7  H           1     -17.943 -10.573  -4.075  0.00  0.00     0.275 HD
HETATM    8  H           1     -18.370 -10.682  -2.426  0.00  0.00     0.275 HD
HETATM    9  H           1     -19.515 -11.068  -3.632  0.00  0.00     0.275 HD
HETATM   10 Se           1     -20.245 -11.434  -5.135  0.00  0.00     0.000 Se
HETATM   11  C           1     -20.839  -9.578  -5.166  0.00  0.00     0.003 C 
HETATM   12  C           1     -21.979 -12.169  -5.635  0.00  0.00     0.000 C 
HETATM   13  C           1     -19.674  -8.666  -4.802  0.00  0.00     0.042 C 
ENDBRANCH   4   5
BRANCH   3  14
HETATM   14  C           1     -21.809  -9.715  -0.717  0.00  0.00     0.189 C 
BRANCH  14  15
HETATM   15  C           1     -22.746 -10.914  -0.773  0.00  0.00     0.010 C 
HETATM   16  C           1     -24.021 -10.598  -0.003  0.00  0.00     0.012 C 
HETATM   17  C           1     -23.089 -11.222  -2.224  0.00  0.00     0.012 C 
ENDBRANCH  14  15
BRANCH  14  18
HETATM   18  C           1     -21.226  -9.594   0.670  0.00  0.00     0.197 C 
HETATM   19  O           1     -21.328  -8.519   1.300  0.00  0.00    -0.646 OA
HETATM   20  O           1     -20.642 -10.569   1.189  0.00  0.00    -0.646 OA
ENDBRANCH  14  18
ENDBRANCH   3  14
TORSDOF 4
ENDMDL
MODEL 9
REMARK VINA RESULT:      -4.5      2.179      2.786
REMARK  4 active torsions:
REMARK  status: ('A' for Active; 'I' for Inactive)
REMARK    1  A    between atoms: C_8  and  C_10 
REMARK    2  A    between atoms: C_10  and  C_11 
REMARK    3  A    between atoms: C_10  and  N_14 
REMARK       I    between atoms: N_14  and  C_15 
REMARK    4  A    between atoms: C_15  and  C_18 
ROOT
HETATM    1  H           1     -20.101  -9.460  -1.111  0.00  0.00     0.163 HD
HETATM    2  O           1     -21.673  -8.510  -3.654  0.00  0.00    -0.271 OA
HETATM    3  N           1     -20.894  -9.165  -1.666  0.00  0.00    -0.344 N 
HETATM    4  C           1     -20.726  -8.863  -2.991  0.00  0.00     0.249 C 
ENDROOT
BRANCH   4   5
HETATM    5  C           1     -19.360  -8.971  -3.623  0.00  0.00     0.274 C 
HETATM    6  N           1     -18.378  -9.470  -2.606  0.00  0.00    -0.067 N 
HETATM    7  H           1     -17.431  -9.545  -3.042  0.00  0.00     0.275 HD
HETATM    8  H           1     -18.338  -8.800  -1.803  0.00  0.00     0.275 HD
HETATM    9  H           1     -18.678 -10.410  -2.261  0.00  0.00     0.275 HD
HETATM   10 Se           1     -18.576 -11.963  -2.969  0.00  0.00     0.000 Se
HETATM   11  C           1     -19.854 -11.317  -4.291  0.00  0.00     0.003 C 
HETATM   12  C           1     -19.511 -13.643  -2.647  0.00  0.00     0.000 C 
HETATM   13  C           1     -19.417  -9.946  -4.792  0.00  0.00     0.042 C 
ENDBRANCH   4   5
BRANCH   3  14
HETATM   14  C           1     -22.206  -9.061  -1.059  0.00  0.00     0.189 C 
BRANCH  14  15
HETATM   15  C           1     -22.417 -10.229  -0.104  0.00  0.00     0.010 C 
HETATM   16  C           1     -23.768 -10.873  -0.383  0.00  0.00     0.012 C 
HETATM   17  C           1     -21.312 -11.256  -0.309  0.00  0.00     0.012 C 
ENDBRANCH  14  15
BRANCH  14  18
HETATM   18  C           1     -22.304  -7.762  -0.295  0.00  0.00     0.197 C 
HETATM   19  O           1     -22.691  -6.724  -0.875  0.00  0.00    -0.646 OA
HETATM   20  O           1     -21.999  -7.725   0.916  0.00  0.00    -0.646 OA
ENDBRANCH  14  18
ENDBRANCH   3  14
TORSDOF 4
ENDMDL
