MODEL 1
REMARK VINA RESULT:      -7.7      0.000      0.000
REMARK  10 active torsions:
REMARK  status: ('A' for Active; 'I' for Inactive)
REMARK    1  A    between atoms: C_1  and  O_11 
REMARK    2  A    between atoms: C_2  and  C_3 
REMARK    3  A    between atoms: C_3  and  C_4 
REMARK    4  A    between atoms: C_3  and  N_25 
REMARK    5  A    between atoms: C_4  and  C_23 
REMARK       I    between atoms: C_6  and  N_17 
REMARK    6  A    between atoms: C_6  and  C_23 
REMARK    7  A    between atoms: C_9  and  C_10 
REMARK    8  A    between atoms: C_9  and  C_18 
REMARK    9  A    between atoms: C_10  and  C_27 
REMARK   10  A    between atoms: C_10  and  N_14 
REMARK       I    between atoms: N_25  and  C_27 
ROOT
HETATM    1  O           1     -20.673  -5.194  -4.815  0.00  0.00    -0.271 OA
HETATM    2  H           1     -21.777  -7.889  -5.978  0.00  0.00     0.163 HD
HETATM    3  N           1     -21.257  -7.278  -5.362  0.00  0.00    -0.345 N 
HETATM    4  C           1     -21.294  -5.923  -5.550  0.00  0.00     0.249 C 
ENDROOT
BRANCH   4   5
HETATM    5  C           1     -22.112  -5.340  -6.677  0.00  0.00     0.278 C 
BRANCH   5   6
HETATM    6  C           1     -21.461  -4.051  -7.163  0.00  0.00     0.081 C 
BRANCH   6   7
HETATM    7  C           1     -21.523  -3.995  -8.658  0.00  0.00    -0.056 A 
HETATM    8  C           1     -20.381  -4.266  -9.413  0.00  0.00     0.010 A 
HETATM    9  C           1     -20.439  -4.214 -10.807  0.00  0.00     0.037 A 
HETATM   10  C           1     -21.636  -3.891 -11.443  0.00  0.00     0.065 A 
HETATM   11  C           1     -22.778  -3.620 -10.688  0.00  0.00     0.037 A 
HETATM   12  C           1     -22.720  -3.672  -9.295  0.00  0.00     0.010 A 
BRANCH  10  13
HETATM   13  O           1     -21.692  -3.840 -12.797  0.00  0.00    -0.361 OA
HETATM   14  H           1     -22.618  -3.975 -13.064  0.00  0.00     0.217 HD
ENDBRANCH  10  13
ENDBRANCH   6   7
ENDBRANCH   5   6
BRANCH   5  15
HETATM   15  N           1     -23.498  -5.043  -6.186  0.00  0.00    -0.066 N 
HETATM   16  H           1     -23.937  -5.922  -5.831  0.00  0.00     0.275 HD
HETATM   17  H           1     -23.450  -4.341  -5.413  0.00  0.00     0.275 HD
HETATM   18  H           1     -24.071  -4.660  -6.971  0.00  0.00     0.275 HD
ENDBRANCH   5  15
ENDBRANCH   4   5
BRANCH   3  19
HETATM   19  C           1     -20.471  -7.839  -4.280  0.00  0.00     0.186 C 
BRANCH  19  20
HETATM   20  C           1     -19.578  -8.929  -4.820  0.00  0.00     0.196 C 
HETATM   21  O           1     -19.456 -10.004  -4.195  0.00  0.00    -0.646 OA
HETATM   22  O           1     -18.961  -8.756  -5.894  0.00  0.00    -0.646 OA
ENDBRANCH  19  20
BRANCH  19  23
HETATM   23  C           1     -21.402  -8.420  -3.225  0.00  0.00     0.045 C 
BRANCH  23  24
HETATM   24  C           1     -21.062  -7.827  -1.864  0.00  0.00     0.105 C 
BRANCH  24  25
HETATM   25  C           1     -22.137  -6.849  -1.458  0.00  0.00     0.215 C 
HETATM   26  O           1     -22.819  -7.071  -0.487  0.00  0.00    -0.274 OA
HETATM   27  N           1     -22.338  -5.710  -2.190  0.00  0.00    -0.370 N 
HETATM   28  H           1     -23.058  -5.053  -1.917  0.00  0.00     0.159 HD
HETATM   29  H           1     -21.766  -5.524  -3.004  0.00  0.00     0.159 HD
ENDBRANCH  24  25
ENDBRANCH  23  24
ENDBRANCH  19  23
ENDBRANCH   3  19
TORSDOF 10
ENDMDL
MODEL 2
REMARK VINA RESULT:      -7.7      0.063      1.221
REMARK  10 active torsions:
REMARK  status: ('A' for Active; 'I' for Inactive)
REMARK    1  A    between atoms: C_1  and  O_11 
REMARK    2  A    between atoms: C_2  and  C_3 
REMARK    3  A    between atoms: C_3  and  C_4 
REMARK    4  A    between atoms: C_3  and  N_25 
REMARK    5  A    between atoms: C_4  and  C_23 
REMARK       I    between atoms: C_6  and  N_17 
REMARK    6  A    between atoms: C_6  and  C_23 
REMARK    7  A    between atoms: C_9  and  C_10 
REMARK    8  A    between atoms: C_9  and  C_18 
REMARK    9  A    between atoms: C_10  and  C_27 
REMARK   10  A    between atoms: C_10  and  N_14 
REMARK       I    between atoms: N_25  and  C_27 
ROOT
HETATM    1  O           1     -20.764  -5.230  -4.735  0.00  0.00    -0.271 OA
HETATM    2  H           1     -21.675  -7.923  -6.059  0.00  0.00     0.163 HD
HETATM    3  N           1     -21.215  -7.314  -5.395  0.00  0.00    -0.345 N 
HETATM    4  C           1     -21.314  -5.955  -5.528  0.00  0.00     0.249 C 
ENDROOT
BRANCH   4   5
HETATM    5  C           1     -22.110  -5.364  -6.666  0.00  0.00     0.278 C 
BRANCH   5   6
HETATM    6  C           1     -21.434  -4.088  -7.150  0.00  0.00     0.081 C 
BRANCH   6   7
HETATM    7  C           1     -21.502  -4.025  -8.645  0.00  0.00    -0.056 A 
HETATM    8  C           1     -22.700  -3.683  -9.273  0.00  0.00     0.010 A 
HETATM    9  C           1     -22.764  -3.623 -10.666  0.00  0.00     0.037 A 
HETATM   10  C           1     -21.631  -3.905 -11.428  0.00  0.00     0.065 A 
HETATM   11  C           1     -20.434  -4.247 -10.800  0.00  0.00     0.037 A 
HETATM   12  C           1     -20.370  -4.306  -9.408  0.00  0.00     0.010 A 
BRANCH  10  13
HETATM   13  O           1     -21.693  -3.847 -12.781  0.00  0.00    -0.361 OA
HETATM   14  H           1     -22.631  -3.825 -13.038  0.00  0.00     0.217 HD
ENDBRANCH  10  13
ENDBRANCH   6   7
ENDBRANCH   5   6
BRANCH   5  15
HETATM   15  N           1     -23.497  -5.044  -6.190  0.00  0.00    -0.066 N 
HETATM   16  H           1     -24.034  -5.931  -6.060  0.00  0.00     0.275 HD
HETATM   17  H           1     -23.443  -4.533  -5.280  0.00  0.00     0.275 HD
HETATM   18  H           1     -23.978  -4.446  -6.899  0.00  0.00     0.275 HD
ENDBRANCH   5  15
ENDBRANCH   4   5
BRANCH   3  19
HETATM   19  C           1     -20.449  -7.882  -4.303  0.00  0.00     0.186 C 
BRANCH  19  20
HETATM   20  C           1     -19.598  -9.015  -4.821  0.00  0.00     0.196 C 
HETATM   21  O           1     -18.929  -8.867  -5.866  0.00  0.00    -0.646 OA
HETATM   22  O           1     -19.563 -10.103  -4.205  0.00  0.00    -0.646 OA
ENDBRANCH  19  20
BRANCH  19  23
HETATM   23  C           1     -21.400  -8.409  -3.236  0.00  0.00     0.045 C 
BRANCH  23  24
HETATM   24  C           1     -21.038  -7.801  -1.888  0.00  0.00     0.105 C 
BRANCH  24  25
HETATM   25  C           1     -22.126  -6.848  -1.456  0.00  0.00     0.215 C 
HETATM   26  O           1     -22.829  -7.121  -0.513  0.00  0.00    -0.274 OA
HETATM   27  N           1     -22.314  -5.673  -2.132  0.00  0.00    -0.370 N 
HETATM   28  H           1     -23.042  -5.032  -1.843  0.00  0.00     0.159 HD
HETATM   29  H           1     -21.724  -5.444  -2.923  0.00  0.00     0.159 HD
ENDBRANCH  24  25
ENDBRANCH  23  24
ENDBRANCH  19  23
ENDBRANCH   3  19
TORSDOF 10
ENDMDL
MODEL 3
REMARK VINA RESULT:      -7.4     13.578     15.807
REMARK  10 active torsions:
REMARK  status: ('A' for Active; 'I' for Inactive)
REMARK    1  A    between atoms: C_1  and  O_11 
REMARK    2  A    between atoms: C_2  and  C_3 
REMARK    3  A    between atoms: C_3  and  C_4 
REMARK    4  A    between atoms: C_3  and  N_25 
REMARK    5  A    between atoms: C_4  and  C_23 
REMARK       I    between atoms: C_6  and  N_17 
REMARK    6  A    between atoms: C_6  and  C_23 
REMARK    7  A    between atoms: C_9  and  C_10 
REMARK    8  A    between atoms: C_9  and  C_18 
REMARK    9  A    between atoms: C_10  and  C_27 
REMARK   10  A    between atoms: C_10  and  N_14 
REMARK       I    between atoms: N_25  and  C_27 
ROOT
HETATM    1  O           1     -34.349  -1.610 -10.310  0.00  0.00    -0.271 OA
HETATM    2  H           1     -36.345  -3.612 -11.667  0.00  0.00     0.163 HD
HETATM    3  N           1     -35.482  -3.286 -11.253  0.00  0.00    -0.345 N 
HETATM    4  C           1     -35.380  -1.998 -10.804  0.00  0.00     0.249 C 
ENDROOT
BRANCH   4   5
HETATM    5  C           1     -36.558  -1.062 -10.925  0.00  0.00     0.278 C 
BRANCH   5   6
HETATM    6  C           1     -36.133   0.195 -11.673  0.00  0.00     0.081 C 
BRANCH   6   7
HETATM    7  C           1     -36.287  -0.025 -13.146  0.00  0.00    -0.056 A 
HETATM    8  C           1     -37.561  -0.113 -13.707  0.00  0.00     0.010 A 
HETATM    9  C           1     -37.705  -0.318 -15.081  0.00  0.00     0.037 A 
HETATM   10  C           1     -36.575  -0.434 -15.890  0.00  0.00     0.065 A 
HETATM   11  C           1     -35.301  -0.346 -15.328  0.00  0.00     0.037 A 
HETATM   12  C           1     -35.158  -0.141 -13.956  0.00  0.00     0.010 A 
BRANCH  10  13
HETATM   13  O           1     -36.715  -0.633 -17.223  0.00  0.00    -0.361 OA
HETATM   14  H           1     -35.850  -0.903 -17.578  0.00  0.00     0.217 HD
ENDBRANCH  10  13
ENDBRANCH   6   7
ENDBRANCH   5   6
BRANCH   5  15
HETATM   15  N           1     -37.041  -0.688  -9.555  0.00  0.00    -0.066 N 
HETATM   16  H           1     -37.891  -0.085  -9.637  0.00  0.00     0.275 HD
HETATM   17  H           1     -37.280  -1.555  -9.022  0.00  0.00     0.275 HD
HETATM   18  H           1     -36.290  -0.164  -9.052  0.00  0.00     0.275 HD
ENDBRANCH   5  15
ENDBRANCH   4   5
BRANCH   3  19
HETATM   19  C           1     -34.350  -4.186 -11.138  0.00  0.00     0.186 C 
BRANCH  19  20
HETATM   20  C           1     -33.439  -4.003 -12.327  0.00  0.00     0.196 C 
HETATM   21  O           1     -33.918  -3.703 -13.441  0.00  0.00    -0.646 OA
HETATM   22  O           1     -32.204  -4.153 -12.196  0.00  0.00    -0.646 OA
ENDBRANCH  19  20
BRANCH  19  23
HETATM   23  C           1     -34.848  -5.625 -11.096  0.00  0.00     0.045 C 
BRANCH  23  24
HETATM   24  C           1     -33.722  -6.539 -10.630  0.00  0.00     0.105 C 
BRANCH  24  25
HETATM   25  C           1     -34.301  -7.843 -10.139  0.00  0.00     0.215 C 
HETATM   26  O           1     -35.409  -7.869  -9.659  0.00  0.00    -0.274 OA
HETATM   27  N           1     -33.572  -8.997 -10.240  0.00  0.00    -0.370 N 
HETATM   28  H           1     -33.960  -9.872  -9.911  0.00  0.00     0.159 HD
HETATM   29  H           1     -32.643  -8.975 -10.642  0.00  0.00     0.159 HD
ENDBRANCH  24  25
ENDBRANCH  23  24
ENDBRANCH  19  23
ENDBRANCH   3  19
TORSDOF 10
ENDMDL
MODEL 4
REMARK VINA RESULT:      -7.2     13.606     14.889
REMARK  10 active torsions:
REMARK  status: ('A' for Active; 'I' for Inactive)
REMARK    1  A    between atoms: C_1  and  O_11 
REMARK    2  A    between atoms: C_2  and  C_3 
REMARK    3  A    between atoms: C_3  and  C_4 
REMARK    4  A    between atoms: C_3  and  N_25 
REMARK    5  A    between atoms: C_4  and  C_23 
REMARK       I    between atoms: C_6  and  N_17 
REMARK    6  A    between atoms: C_6  and  C_23 
REMARK    7  A    between atoms: C_9  and  C_10 
REMARK    8  A    between atoms: C_9  and  C_18 
REMARK    9  A    between atoms: C_10  and  C_27 
REMARK   10  A    between atoms: C_10  and  N_14 
REMARK       I    between atoms: N_25  and  C_27 
ROOT
HETATM    1  O           1     -35.003  -4.705 -15.588  0.00  0.00    -0.271 OA
HETATM    2  H           1     -32.379  -3.771 -14.145  0.00  0.00     0.163 HD
HETATM    3  N           1     -33.356  -4.013 -14.249  0.00  0.00    -0.345 N 
HETATM    4  C           1     -33.837  -4.417 -15.465  0.00  0.00     0.249 C 
ENDROOT
BRANCH   4   5
HETATM    5  C           1     -32.909  -4.503 -16.652  0.00  0.00     0.278 C 
BRANCH   5   6
HETATM    6  C           1     -31.464  -4.478 -16.170  0.00  0.00     0.081 C 
BRANCH   6   7
HETATM    7  C           1     -30.624  -5.336 -17.064  0.00  0.00    -0.056 A 
HETATM    8  C           1     -30.992  -6.660 -17.305  0.00  0.00     0.010 A 
HETATM    9  C           1     -30.210  -7.461 -18.139  0.00  0.00     0.037 A 
HETATM   10  C           1     -29.062  -6.936 -18.732  0.00  0.00     0.065 A 
HETATM   11  C           1     -28.694  -5.612 -18.491  0.00  0.00     0.037 A 
HETATM   12  C           1     -29.477  -4.813 -17.657  0.00  0.00     0.010 A 
BRANCH  10  13
HETATM   13  O           1     -28.303  -7.713 -19.541  0.00  0.00    -0.361 OA
HETATM   14  H           1     -28.561  -7.530 -20.461  0.00  0.00     0.217 HD
ENDBRANCH  10  13
ENDBRANCH   6   7
ENDBRANCH   5   6
BRANCH   5  15
HETATM   15  N           1     -33.152  -3.335 -17.561  0.00  0.00    -0.066 N 
HETATM   16  H           1     -32.244  -2.862 -17.772  0.00  0.00     0.275 HD
HETATM   17  H           1     -33.583  -3.672 -18.451  0.00  0.00     0.275 HD
HETATM   18  H           1     -33.797  -2.658 -17.094  0.00  0.00     0.275 HD
ENDBRANCH   5  15
ENDBRANCH   4   5
BRANCH   3  19
HETATM   19  C           1     -34.247  -3.930 -13.108  0.00  0.00     0.186 C 
BRANCH  19  20
HETATM   20  C           1     -34.564  -2.483 -12.822  0.00  0.00     0.196 C 
HETATM   21  O           1     -35.196  -1.804 -13.659  0.00  0.00    -0.646 OA
HETATM   22  O           1     -34.194  -1.963 -11.746  0.00  0.00    -0.646 OA
ENDBRANCH  19  20
BRANCH  19  23
HETATM   23  C           1     -33.574  -4.552 -11.892  0.00  0.00     0.045 C 
BRANCH  23  24
HETATM   24  C           1     -34.637  -5.055 -10.924  0.00  0.00     0.105 C 
BRANCH  24  25
HETATM   25  C           1     -34.307  -6.465 -10.501  0.00  0.00     0.215 C 
HETATM   26  O           1     -35.065  -7.073  -9.783  0.00  0.00    -0.274 OA
HETATM   27  N           1     -33.150  -7.056 -10.931  0.00  0.00    -0.370 N 
HETATM   28  H           1     -32.928  -8.003 -10.648  0.00  0.00     0.159 HD
HETATM   29  H           1     -32.515  -6.547 -11.533  0.00  0.00     0.159 HD
ENDBRANCH  24  25
ENDBRANCH  23  24
ENDBRANCH  19  23
ENDBRANCH   3  19
TORSDOF 10
ENDMDL
MODEL 5
REMARK VINA RESULT:      -7.0     13.561     16.976
REMARK  10 active torsions:
REMARK  status: ('A' for Active; 'I' for Inactive)
REMARK    1  A    between atoms: C_1  and  O_11 
REMARK    2  A    between atoms: C_2  and  C_3 
REMARK    3  A    between atoms: C_3  and  C_4 
REMARK    4  A    between atoms: C_3  and  N_25 
REMARK    5  A    between atoms: C_4  and  C_23 
REMARK       I    between atoms: C_6  and  N_17 
REMARK    6  A    between atoms: C_6  and  C_23 
REMARK    7  A    between atoms: C_9  and  C_10 
REMARK    8  A    between atoms: C_9  and  C_18 
REMARK    9  A    between atoms: C_10  and  C_27 
REMARK   10  A    between atoms: C_10  and  N_14 
REMARK       I    between atoms: N_25  and  C_27 
ROOT
HETATM    1  O           1     -33.935  -1.825 -11.115  0.00  0.00    -0.271 OA
HETATM    2  H           1     -35.454  -1.795 -13.859  0.00  0.00     0.163 HD
HETATM    3  N           1     -35.078  -1.433 -12.993  0.00  0.00    -0.345 N 
HETATM    4  C           1     -34.384  -2.258 -12.149  0.00  0.00     0.249 C 
ENDROOT
BRANCH   4   5
HETATM    5  C           1     -34.180  -3.709 -12.512  0.00  0.00     0.278 C 
BRANCH   5   6
HETATM    6  C           1     -33.024  -4.278 -11.699  0.00  0.00     0.081 C 
BRANCH   6   7
HETATM    7  C           1     -33.454  -5.554 -11.046  0.00  0.00    -0.056 A 
HETATM    8  C           1     -32.604  -6.660 -11.051  0.00  0.00     0.010 A 
HETATM    9  C           1     -33.004  -7.850 -10.441  0.00  0.00     0.037 A 
HETATM   10  C           1     -34.254  -7.933  -9.828  0.00  0.00     0.065 A 
HETATM   11  C           1     -35.104  -6.827  -9.823  0.00  0.00     0.037 A 
HETATM   12  C           1     -34.703  -5.637 -10.432  0.00  0.00     0.010 A 
BRANCH  10  13
HETATM   13  O           1     -34.643  -9.088  -9.236  0.00  0.00    -0.361 OA
HETATM   14  H           1     -33.880  -9.692  -9.226  0.00  0.00     0.217 HD
ENDBRANCH  10  13
ENDBRANCH   6   7
ENDBRANCH   5   6
BRANCH   5  15
HETATM   15  N           1     -33.863  -3.818 -13.974  0.00  0.00    -0.066 N 
HETATM   16  H           1     -34.511  -3.205 -14.518  0.00  0.00     0.275 HD
HETATM   17  H           1     -32.877  -3.515 -14.139  0.00  0.00     0.275 HD
HETATM   18  H           1     -33.981  -4.809 -14.283  0.00  0.00     0.275 HD
ENDBRANCH   5  15
ENDBRANCH   4   5
BRANCH   3  19
HETATM   19  C           1     -35.275  -0.039 -12.645  0.00  0.00     0.186 C 
BRANCH  19  20
HETATM   20  C           1     -36.546   0.104 -11.844  0.00  0.00     0.196 C 
HETATM   21  O           1     -37.641  -0.227 -12.346  0.00  0.00    -0.646 OA
HETATM   22  O           1     -36.502   0.555 -10.678  0.00  0.00    -0.646 OA
ENDBRANCH  19  20
BRANCH  19  23
HETATM   23  C           1     -35.379   0.792 -13.916  0.00  0.00     0.045 C 
BRANCH  23  24
HETATM   24  C           1     -35.130  -0.098 -15.127  0.00  0.00     0.105 C 
BRANCH  24  25
HETATM   25  C           1     -36.302  -0.001 -16.073  0.00  0.00     0.215 C 
HETATM   26  O           1     -37.204   0.768 -15.841  0.00  0.00    -0.274 OA
HETATM   27  N           1     -36.342  -0.783 -17.196  0.00  0.00    -0.370 N 
HETATM   28  H           1     -37.127  -0.719 -17.831  0.00  0.00     0.159 HD
HETATM   29  H           1     -35.586  -1.428 -17.391  0.00  0.00     0.159 HD
ENDBRANCH  24  25
ENDBRANCH  23  24
ENDBRANCH  19  23
ENDBRANCH   3  19
TORSDOF 10
ENDMDL
MODEL 6
REMARK VINA RESULT:      -6.8      1.586      3.488
REMARK  10 active torsions:
REMARK  status: ('A' for Active; 'I' for Inactive)
REMARK    1  A    between atoms: C_1  and  O_11 
REMARK    2  A    between atoms: C_2  and  C_3 
REMARK    3  A    between atoms: C_3  and  C_4 
REMARK    4  A    between atoms: C_3  and  N_25 
REMARK    5  A    between atoms: C_4  and  C_23 
REMARK       I    between atoms: C_6  and  N_17 
REMARK    6  A    between atoms: C_6  and  C_23 
REMARK    7  A    between atoms: C_9  and  C_10 
REMARK    8  A    between atoms: C_9  and  C_18 
REMARK    9  A    between atoms: C_10  and  C_27 
REMARK   10  A    between atoms: C_10  and  N_14 
REMARK       I    between atoms: N_25  and  C_27 
ROOT
HETATM    1  O           1     -21.952  -7.485  -5.429  0.00  0.00    -0.271 OA
HETATM    2  H           1     -20.645  -5.562  -3.324  0.00  0.00     0.163 HD
HETATM    3  N           1     -21.101  -6.393  -3.678  0.00  0.00    -0.345 N 
HETATM    4  C           1     -21.408  -6.494  -5.008  0.00  0.00     0.249 C 
ENDROOT
BRANCH   4   5
HETATM    5  C           1     -21.064  -5.364  -5.948  0.00  0.00     0.278 C 
BRANCH   5   6
HETATM    6  C           1     -20.482  -5.934  -7.235  0.00  0.00     0.081 C 
BRANCH   6   7
HETATM    7  C           1     -20.901  -5.082  -8.393  0.00  0.00    -0.056 A 
HETATM    8  C           1     -22.167  -4.498  -8.404  0.00  0.00     0.010 A 
HETATM    9  C           1     -22.559  -3.703  -9.483  0.00  0.00     0.037 A 
HETATM   10  C           1     -21.684  -3.494 -10.548  0.00  0.00     0.065 A 
HETATM   11  C           1     -20.418  -4.079 -10.537  0.00  0.00     0.037 A 
HETATM   12  C           1     -20.027  -4.873  -9.458  0.00  0.00     0.010 A 
BRANCH  10  13
HETATM   13  O           1     -22.064  -2.723 -11.596  0.00  0.00    -0.361 OA
HETATM   14  H           1     -21.917  -1.793 -11.353  0.00  0.00     0.217 HD
ENDBRANCH  10  13
ENDBRANCH   6   7
ENDBRANCH   5   6
BRANCH   5  15
HETATM   15  N           1     -20.054  -4.464  -5.300  0.00  0.00    -0.066 N 
HETATM   16  H           1     -19.540  -3.930  -6.036  0.00  0.00     0.275 HD
HETATM   17  H           1     -20.544  -3.796  -4.663  0.00  0.00     0.275 HD
HETATM   18  H           1     -19.377  -5.039  -4.750  0.00  0.00     0.275 HD
ENDBRANCH   5  15
ENDBRANCH   4   5
BRANCH   3  19
HETATM   19  C           1     -21.431  -7.478  -2.774  0.00  0.00     0.186 C 
BRANCH  19  20
HETATM   20  C           1     -22.110  -6.920  -1.547  0.00  0.00     0.196 C 
HETATM   21  O           1     -22.466  -5.723  -1.519  0.00  0.00    -0.646 OA
HETATM   22  O           1     -22.316  -7.657  -0.557  0.00  0.00    -0.646 OA
ENDBRANCH  19  20
BRANCH  19  23
HETATM   23  C           1     -20.156  -8.202  -2.363  0.00  0.00     0.045 C 
BRANCH  23  24
HETATM   24  C           1     -20.008  -9.476  -3.185  0.00  0.00     0.105 C 
BRANCH  24  25
HETATM   25  C           1     -18.908  -9.295  -4.201  0.00  0.00     0.215 C 
HETATM   26  O           1     -17.752  -9.314  -3.850  0.00  0.00    -0.274 OA
HETATM   27  N           1     -19.218  -9.112  -5.522  0.00  0.00    -0.370 N 
HETATM   28  H           1     -18.481  -8.991  -6.204  0.00  0.00     0.159 HD
HETATM   29  H           1     -20.187  -9.096  -5.817  0.00  0.00     0.159 HD
ENDBRANCH  24  25
ENDBRANCH  23  24
ENDBRANCH  19  23
ENDBRANCH   3  19
TORSDOF 10
ENDMDL
MODEL 7
REMARK VINA RESULT:      -6.7      2.164      8.072
REMARK  10 active torsions:
REMARK  status: ('A' for Active; 'I' for Inactive)
REMARK    1  A    between atoms: C_1  and  O_11 
REMARK    2  A    between atoms: C_2  and  C_3 
REMARK    3  A    between atoms: C_3  and  C_4 
REMARK    4  A    between atoms: C_3  and  N_25 
REMARK    5  A    between atoms: C_4  and  C_23 
REMARK       I    between atoms: C_6  and  N_17 
REMARK    6  A    between atoms: C_6  and  C_23 
REMARK    7  A    between atoms: C_9  and  C_10 
REMARK    8  A    between atoms: C_9  and  C_18 
REMARK    9  A    between atoms: C_10  and  C_27 
REMARK   10  A    between atoms: C_10  and  N_14 
REMARK       I    between atoms: N_25  and  C_27 
ROOT
HETATM    1  O           1     -21.156  -7.181  -6.845  0.00  0.00    -0.271 OA
HETATM    2  H           1     -21.228  -4.085  -6.346  0.00  0.00     0.163 HD
HETATM    3  N           1     -21.288  -4.952  -6.863  0.00  0.00    -0.345 N 
HETATM    4  C           1     -21.084  -6.146  -6.227  0.00  0.00     0.249 C 
ENDROOT
BRANCH   4   5
HETATM    5  C           1     -20.768  -6.169  -4.751  0.00  0.00     0.278 C 
BRANCH   5   6
HETATM    6  C           1     -22.058  -6.337  -3.958  0.00  0.00     0.081 C 
BRANCH   6   7
HETATM    7  C           1     -21.764  -7.037  -2.668  0.00  0.00    -0.056 A 
HETATM    8  C           1     -22.408  -6.638  -1.497  0.00  0.00     0.010 A 
HETATM    9  C           1     -22.134  -7.291  -0.293  0.00  0.00     0.037 A 
HETATM   10  C           1     -21.216  -8.340  -0.263  0.00  0.00     0.065 A 
HETATM   11  C           1     -20.572  -8.739  -1.435  0.00  0.00     0.037 A 
HETATM   12  C           1     -20.847  -8.086  -2.637  0.00  0.00     0.010 A 
BRANCH  10  13
HETATM   13  O           1     -20.950  -8.974   0.905  0.00  0.00    -0.361 OA
HETATM   14  H           1     -21.538  -9.746   0.968  0.00  0.00     0.217 HD
ENDBRANCH  10  13
ENDBRANCH   6   7
ENDBRANCH   5   6
BRANCH   5  15
HETATM   15  N           1     -20.107  -4.880  -4.362  0.00  0.00    -0.066 N 
HETATM   16  H           1     -20.026  -4.830  -3.321  0.00  0.00     0.275 HD
HETATM   17  H           1     -19.154  -4.836  -4.788  0.00  0.00     0.275 HD
HETATM   18  H           1     -20.681  -4.077  -4.705  0.00  0.00     0.275 HD
ENDBRANCH   5  15
ENDBRANCH   4   5
BRANCH   3  19
HETATM   19  C           1     -21.591  -4.929  -8.282  0.00  0.00     0.186 C 
BRANCH  19  20
HETATM   20  C           1     -20.387  -4.436  -9.045  0.00  0.00     0.196 C 
HETATM   21  O           1     -19.648  -3.559  -8.549  0.00  0.00    -0.646 OA
HETATM   22  O           1     -20.129  -4.905 -10.176  0.00  0.00    -0.646 OA
ENDBRANCH  19  20
BRANCH  19  23
HETATM   23  C           1     -22.769  -3.998  -8.534  0.00  0.00     0.045 C 
BRANCH  23  24
HETATM   24  C           1     -22.846  -3.666 -10.018  0.00  0.00     0.105 C 
BRANCH  24  25
HETATM   25  C           1     -24.269  -3.820 -10.497  0.00  0.00     0.215 C 
HETATM   26  O           1     -24.490  -4.164 -11.633  0.00  0.00    -0.274 OA
HETATM   27  N           1     -25.309  -3.572  -9.642  0.00  0.00    -0.370 N 
HETATM   28  H           1     -26.264  -3.676  -9.962  0.00  0.00     0.159 HD
HETATM   29  H           1     -25.124  -3.284  -8.689  0.00  0.00     0.159 HD
ENDBRANCH  24  25
ENDBRANCH  23  24
ENDBRANCH  19  23
ENDBRANCH   3  19
TORSDOF 10
ENDMDL
MODEL 8
REMARK VINA RESULT:      -6.6      2.073      8.119
REMARK  10 active torsions:
REMARK  status: ('A' for Active; 'I' for Inactive)
REMARK    1  A    between atoms: C_1  and  O_11 
REMARK    2  A    between atoms: C_2  and  C_3 
REMARK    3  A    between atoms: C_3  and  C_4 
REMARK    4  A    between atoms: C_3  and  N_25 
REMARK    5  A    between atoms: C_4  and  C_23 
REMARK       I    between atoms: C_6  and  N_17 
REMARK    6  A    between atoms: C_6  and  C_23 
REMARK    7  A    between atoms: C_9  and  C_10 
REMARK    8  A    between atoms: C_9  and  C_18 
REMARK    9  A    between atoms: C_10  and  C_27 
REMARK   10  A    between atoms: C_10  and  N_14 
REMARK       I    between atoms: N_25  and  C_27 
ROOT
HETATM    1  O           1     -20.122  -5.772  -5.212  0.00  0.00    -0.271 OA
HETATM    2  H           1     -21.842  -7.050  -7.502  0.00  0.00     0.163 HD
HETATM    3  N           1     -21.254  -6.367  -7.041  0.00  0.00    -0.345 N 
HETATM    4  C           1     -20.823  -6.587  -5.761  0.00  0.00     0.249 C 
ENDROOT
BRANCH   4   5
HETATM    5  C           1     -21.223  -7.849  -5.036  0.00  0.00     0.278 C 
BRANCH   5   6
HETATM    6  C           1     -20.334  -8.037  -3.814  0.00  0.00     0.081 C 
BRANCH   6   7
HETATM    7  C           1     -21.175  -8.007  -2.576  0.00  0.00    -0.056 A 
HETATM    8  C           1     -21.483  -9.196  -1.914  0.00  0.00     0.010 A 
HETATM    9  C           1     -22.267  -9.168  -0.760  0.00  0.00     0.037 A 
HETATM   10  C           1     -22.742  -7.953  -0.269  0.00  0.00     0.065 A 
HETATM   11  C           1     -22.434  -6.764  -0.931  0.00  0.00     0.037 A 
HETATM   12  C           1     -21.650  -6.792  -2.085  0.00  0.00     0.010 A 
BRANCH  10  13
HETATM   13  O           1     -23.504  -7.926   0.852  0.00  0.00    -0.361 OA
HETATM   14  H           1     -23.397  -8.778   1.308  0.00  0.00     0.217 HD
ENDBRANCH  10  13
ENDBRANCH   6   7
ENDBRANCH   5   6
BRANCH   5  15
HETATM   15  N           1     -21.063  -9.024  -5.955  0.00  0.00    -0.066 N 
HETATM   16  H           1     -21.385  -9.892  -5.471  0.00  0.00     0.275 HD
HETATM   17  H           1     -21.637  -8.873  -6.816  0.00  0.00     0.275 HD
HETATM   18  H           1     -20.057  -9.126  -6.219  0.00  0.00     0.275 HD
ENDBRANCH   5  15
ENDBRANCH   4   5
BRANCH   3  19
HETATM   19  C           1     -20.870  -5.155  -7.738  0.00  0.00     0.186 C 
BRANCH  19  20
HETATM   20  C           1     -21.844  -4.052  -7.402  0.00  0.00     0.196 C 
HETATM   21  O           1     -23.070  -4.230  -7.564  0.00  0.00    -0.646 OA
HETATM   22  O           1     -21.423  -2.959  -6.962  0.00  0.00    -0.646 OA
ENDBRANCH  19  20
BRANCH  19  23
HETATM   23  C           1     -20.885  -5.406  -9.239  0.00  0.00     0.045 C 
BRANCH  23  24
HETATM   24  C           1     -20.566  -4.111  -9.975  0.00  0.00     0.105 C 
BRANCH  24  25
HETATM   25  C           1     -21.634  -3.839 -11.005  0.00  0.00     0.215 C 
HETATM   26  O           1     -22.307  -2.839 -10.928  0.00  0.00    -0.274 OA
HETATM   27  N           1     -21.840  -4.725 -12.028  0.00  0.00    -0.370 N 
HETATM   28  H           1     -22.556  -4.543 -12.720  0.00  0.00     0.159 HD
HETATM   29  H           1     -21.275  -5.563 -12.093  0.00  0.00     0.159 HD
ENDBRANCH  24  25
ENDBRANCH  23  24
ENDBRANCH  19  23
ENDBRANCH   3  19
TORSDOF 10
ENDMDL
MODEL 9
REMARK VINA RESULT:      -6.4     12.177     15.084
REMARK  10 active torsions:
REMARK  status: ('A' for Active; 'I' for Inactive)
REMARK    1  A    between atoms: C_1  and  O_11 
REMARK    2  A    between atoms: C_2  and  C_3 
REMARK    3  A    between atoms: C_3  and  C_4 
REMARK    4  A    between atoms: C_3  and  N_25 
REMARK    5  A    between atoms: C_4  and  C_23 
REMARK       I    between atoms: C_6  and  N_17 
REMARK    6  A    between atoms: C_6  and  C_23 
REMARK    7  A    between atoms: C_9  and  C_10 
REMARK    8  A    between atoms: C_9  and  C_18 
REMARK    9  A    between atoms: C_10  and  C_27 
REMARK   10  A    between atoms: C_10  and  N_14 
REMARK       I    between atoms: N_25  and  C_27 
ROOT
HETATM    1  O           1     -32.815  -3.489 -17.244  0.00  0.00    -0.271 OA
HETATM    2  H           1     -31.564  -5.665 -15.363  0.00  0.00     0.163 HD
HETATM    3  N           1     -31.641  -5.051 -16.163  0.00  0.00    -0.345 N 
HETATM    4  C           1     -32.723  -4.222 -16.290  0.00  0.00     0.249 C 
ENDROOT
BRANCH   4   5
HETATM    5  C           1     -33.802  -4.224 -15.234  0.00  0.00     0.278 C 
BRANCH   5   6
HETATM    6  C           1     -33.185  -4.542 -13.878  0.00  0.00     0.081 C 
BRANCH   6   7
HETATM    7  C           1     -33.738  -3.608 -12.847  0.00  0.00    -0.056 A 
HETATM    8  C           1     -33.245  -3.639 -11.543  0.00  0.00     0.010 A 
HETATM    9  C           1     -33.760  -2.768 -10.581  0.00  0.00     0.037 A 
HETATM   10  C           1     -34.768  -1.867 -10.925  0.00  0.00     0.065 A 
HETATM   11  C           1     -35.261  -1.837 -12.230  0.00  0.00     0.037 A 
HETATM   12  C           1     -34.745  -2.707 -13.190  0.00  0.00     0.010 A 
BRANCH  10  13
HETATM   13  O           1     -35.268  -1.022  -9.992  0.00  0.00    -0.361 OA
HETATM   14  H           1     -35.936  -1.506  -9.476  0.00  0.00     0.217 HD
ENDBRANCH  10  13
ENDBRANCH   6   7
ENDBRANCH   5   6
BRANCH   5  15
HETATM   15  N           1     -34.828  -5.266 -15.571  0.00  0.00    -0.066 N 
HETATM   16  H           1     -35.345  -4.980 -16.433  0.00  0.00     0.275 HD
HETATM   17  H           1     -34.352  -6.181 -15.738  0.00  0.00     0.275 HD
HETATM   18  H           1     -35.501  -5.361 -14.777  0.00  0.00     0.275 HD
ENDBRANCH   5  15
ENDBRANCH   4   5
BRANCH   3  19
HETATM   19  C           1     -30.605  -5.049 -17.178  0.00  0.00     0.186 C 
BRANCH  19  20
HETATM   20  C           1     -30.574  -6.391 -17.867  0.00  0.00     0.196 C 
HETATM   21  O           1     -31.475  -7.229 -17.646  0.00  0.00    -0.646 OA
HETATM   22  O           1     -29.645  -6.666 -18.659  0.00  0.00    -0.646 OA
ENDBRANCH  19  20
BRANCH  19  23
HETATM   23  C           1     -29.255  -4.783 -16.524  0.00  0.00     0.045 C 
BRANCH  23  24
HETATM   24  C           1     -29.075  -5.714 -15.332  0.00  0.00     0.105 C 
BRANCH  24  25
HETATM   25  C           1     -27.995  -6.722 -15.639  0.00  0.00     0.215 C 
HETATM   26  O           1     -27.825  -7.667 -14.906  0.00  0.00    -0.274 OA
HETATM   27  N           1     -27.208  -6.567 -16.748  0.00  0.00    -0.370 N 
HETATM   28  H           1     -26.484  -7.243 -16.955  0.00  0.00     0.159 HD
HETATM   29  H           1     -27.351  -5.775 -17.363  0.00  0.00     0.159 HD
ENDBRANCH  24  25
ENDBRANCH  23  24
ENDBRANCH  19  23
ENDBRANCH   3  19
TORSDOF 10
ENDMDL
