MODEL 1
REMARK VINA RESULT:      -7.7      0.000      0.000
REMARK  6 active torsions:
REMARK  status: ('A' for Active; 'I' for Inactive)
REMARK    1  A    between atoms: C_3  and  C_9 
REMARK    2  A    between atoms: C_3  and  N_20 
REMARK    3  A    between atoms: C_5  and  C_17 
REMARK    4  A    between atoms: C_5  and  C_12 
REMARK    5  A    between atoms: N_11  and  C_17 
REMARK    6  A    between atoms: C_17  and  C_18 
REMARK       I    between atoms: C_18  and  N_20 
ROOT
HETATM    1  C           1     -21.015  -5.256  -6.883  0.00  0.00     0.278 C 
ENDROOT
BRANCH   1   2
HETATM    2  C           1     -20.807  -5.105  -5.382  0.00  0.00     0.083 C 
BRANCH   2   3
HETATM    3  C           1     -20.784  -6.457  -4.741  0.00  0.00    -0.028 A 
HETATM    4  C           1     -20.283  -7.611  -5.299  0.00  0.00     0.096 A 
HETATM    5  N           1     -20.452  -8.623  -4.392  0.00  0.00    -0.365 N 
HETATM    6  H           1     -20.163  -9.621  -4.545  0.00  0.00     0.165 HD
HETATM    7  C           1     -21.056  -8.143  -3.251  0.00  0.00     0.042 A 
HETATM    8  C           1     -21.421  -8.808  -2.074  0.00  0.00     0.030 A 
HETATM    9  C           1     -21.276  -6.780  -3.446  0.00  0.00    -0.002 A 
HETATM   10  C           1     -22.028  -8.050  -1.067  0.00  0.00     0.002 A 
HETATM   11  C           1     -22.260  -6.686  -1.234  0.00  0.00     0.001 A 
HETATM   12  C           1     -21.889  -6.038  -2.418  0.00  0.00     0.014 A 
ENDBRANCH   2   3
ENDBRANCH   1   2
BRANCH   1  13
HETATM   13  N           1     -19.959  -4.480  -7.614  0.00  0.00    -0.066 N 
HETATM   14  H           1     -19.975  -3.486  -7.297  0.00  0.00     0.275 HD
HETATM   15  H           1     -19.021  -4.895  -7.412  0.00  0.00     0.275 HD
HETATM   16  H           1     -20.145  -4.522  -8.641  0.00  0.00     0.275 HD
ENDBRANCH   1  13
BRANCH   1  17
HETATM   17  C           1     -22.377  -4.728  -7.259  0.00  0.00     0.249 C 
HETATM   18  O           1     -23.284  -4.774  -6.463  0.00  0.00    -0.271 OA
HETATM   19  N           1     -22.585  -4.198  -8.505  0.00  0.00    -0.349 N 
HETATM   20  H           1     -21.826  -4.159  -9.172  0.00  0.00     0.163 HD
BRANCH  19  21
HETATM   21  C           1     -23.895  -3.691  -8.866  0.00  0.00     0.235 C 
BRANCH  21  22
HETATM   22  C           1     -23.976  -3.530 -10.365  0.00  0.00     0.191 C 
HETATM   23  O           1     -25.057  -3.201 -10.900  0.00  0.00    -0.647 OA
HETATM   24  O           1     -22.962  -3.724 -11.070  0.00  0.00    -0.647 OA
ENDBRANCH  21  22
ENDBRANCH  19  21
ENDBRANCH   1  17
TORSDOF 6
ENDMDL
MODEL 2
REMARK VINA RESULT:      -7.2      3.456      7.631
REMARK  6 active torsions:
REMARK  status: ('A' for Active; 'I' for Inactive)
REMARK    1  A    between atoms: C_3  and  C_9 
REMARK    2  A    between atoms: C_3  and  N_20 
REMARK    3  A    between atoms: C_5  and  C_17 
REMARK    4  A    between atoms: C_5  and  C_12 
REMARK    5  A    between atoms: N_11  and  C_17 
REMARK    6  A    between atoms: C_17  and  C_18 
REMARK       I    between atoms: C_18  and  N_20 
ROOT
HETATM    1  C           1     -21.382  -6.327  -5.482  0.00  0.00     0.278 C 
ENDROOT
BRANCH   1   2
HETATM    2  C           1     -20.894  -5.047  -6.148  0.00  0.00     0.083 C 
BRANCH   2   3
HETATM    3  C           1     -21.836  -4.664  -7.246  0.00  0.00    -0.028 A 
HETATM    4  C           1     -23.185  -4.430  -7.113  0.00  0.00     0.096 A 
HETATM    5  N           1     -23.678  -4.107  -8.350  0.00  0.00    -0.365 N 
HETATM    6  H           1     -24.683  -3.877  -8.554  0.00  0.00     0.165 HD
HETATM    7  C           1     -22.669  -4.129  -9.285  0.00  0.00     0.042 A 
HETATM    8  C           1     -22.705  -3.869 -10.661  0.00  0.00     0.030 A 
HETATM    9  C           1     -21.496  -4.478  -8.615  0.00  0.00    -0.002 A 
HETATM   10  C           1     -21.503  -3.968 -11.369  0.00  0.00     0.002 A 
HETATM   11  C           1     -20.316  -4.314 -10.725  0.00  0.00     0.001 A 
HETATM   12  C           1     -20.299  -4.572  -9.349  0.00  0.00     0.014 A 
ENDBRANCH   2   3
ENDBRANCH   1   2
BRANCH   1  13
HETATM   13  N           1     -21.781  -6.032  -4.066  0.00  0.00    -0.066 N 
HETATM   14  H           1     -22.719  -5.573  -4.057  0.00  0.00     0.275 HD
HETATM   15  H           1     -21.825  -6.925  -3.526  0.00  0.00     0.275 HD
HETATM   16  H           1     -21.076  -5.395  -3.632  0.00  0.00     0.275 HD
ENDBRANCH   1  13
BRANCH   1  17
HETATM   17  C           1     -20.275  -7.352  -5.489  0.00  0.00     0.249 C 
HETATM   18  O           1     -19.457  -7.352  -6.378  0.00  0.00    -0.271 OA
HETATM   19  N           1     -20.199  -8.284  -4.489  0.00  0.00    -0.349 N 
HETATM   20  H           1     -20.884  -8.285  -3.744  0.00  0.00     0.163 HD
BRANCH  19  21
HETATM   21  C           1     -19.135  -9.270  -4.496  0.00  0.00     0.235 C 
BRANCH  21  22
HETATM   22  C           1     -18.542  -9.380  -3.112  0.00  0.00     0.191 C 
HETATM   23  O           1     -19.286  -9.577  -2.127  0.00  0.00    -0.647 OA
HETATM   24  O           1     -17.306  -9.276  -2.952  0.00  0.00    -0.647 OA
ENDBRANCH  21  22
ENDBRANCH  19  21
ENDBRANCH   1  17
TORSDOF 6
ENDMDL
MODEL 3
REMARK VINA RESULT:      -7.2     13.373     15.522
REMARK  6 active torsions:
REMARK  status: ('A' for Active; 'I' for Inactive)
REMARK    1  A    between atoms: C_3  and  C_9 
REMARK    2  A    between atoms: C_3  and  N_20 
REMARK    3  A    between atoms: C_5  and  C_17 
REMARK    4  A    between atoms: C_5  and  C_12 
REMARK    5  A    between atoms: N_11  and  C_17 
REMARK    6  A    between atoms: C_17  and  C_18 
REMARK       I    between atoms: C_18  and  N_20 
ROOT
HETATM    1  C           1     -36.075  -0.357 -11.177  0.00  0.00     0.278 C 
ENDROOT
BRANCH   1   2
HETATM    2  C           1     -36.187  -1.765 -10.608  0.00  0.00     0.083 C 
BRANCH   2   3
HETATM    3  C           1     -34.936  -2.528 -10.912  0.00  0.00    -0.028 A 
HETATM    4  C           1     -33.741  -1.992 -11.334  0.00  0.00     0.096 A 
HETATM    5  N           1     -32.854  -3.023 -11.499  0.00  0.00    -0.365 N 
HETATM    6  H           1     -31.858  -2.913 -11.815  0.00  0.00     0.165 HD
HETATM    7  C           1     -33.456  -4.222 -11.190  0.00  0.00     0.042 A 
HETATM    8  C           1     -32.941  -5.524 -11.213  0.00  0.00     0.030 A 
HETATM    9  C           1     -34.769  -3.938 -10.818  0.00  0.00    -0.002 A 
HETATM   10  C           1     -33.799  -6.564 -10.842  0.00  0.00     0.002 A 
HETATM   11  C           1     -35.116  -6.310 -10.465  0.00  0.00     0.001 A 
HETATM   12  C           1     -35.614  -5.001 -10.448  0.00  0.00     0.014 A 
ENDBRANCH   2   3
ENDBRANCH   1   2
BRANCH   1  13
HETATM   13  N           1     -36.609   0.628 -10.179  0.00  0.00    -0.066 N 
HETATM   14  H           1     -35.920   1.403 -10.053  0.00  0.00     0.275 HD
HETATM   15  H           1     -37.513   1.019 -10.527  0.00  0.00     0.275 HD
HETATM   16  H           1     -36.764   0.148  -9.265  0.00  0.00     0.275 HD
ENDBRANCH   1  13
BRANCH   1  17
HETATM   17  C           1     -36.877  -0.264 -12.452  0.00  0.00     0.249 C 
HETATM   18  O           1     -38.074  -0.422 -12.426  0.00  0.00    -0.271 OA
HETATM   19  N           1     -36.246  -0.003 -13.639  0.00  0.00    -0.349 N 
HETATM   20  H           1     -35.244   0.129 -13.662  0.00  0.00     0.163 HD
BRANCH  19  21
HETATM   21  C           1     -37.016   0.086 -14.865  0.00  0.00     0.235 C 
BRANCH  21  22
HETATM   22  C           1     -36.254  -0.574 -15.988  0.00  0.00     0.191 C 
HETATM   23  O           1     -35.088  -0.981 -15.796  0.00  0.00    -0.647 OA
HETATM   24  O           1     -36.789  -0.713 -17.109  0.00  0.00    -0.647 OA
ENDBRANCH  21  22
ENDBRANCH  19  21
ENDBRANCH   1  17
TORSDOF 6
ENDMDL
MODEL 4
REMARK VINA RESULT:      -7.2      3.507      7.231
REMARK  6 active torsions:
REMARK  status: ('A' for Active; 'I' for Inactive)
REMARK    1  A    between atoms: C_3  and  C_9 
REMARK    2  A    between atoms: C_3  and  N_20 
REMARK    3  A    between atoms: C_5  and  C_17 
REMARK    4  A    between atoms: C_5  and  C_12 
REMARK    5  A    between atoms: N_11  and  C_17 
REMARK    6  A    between atoms: C_17  and  C_18 
REMARK       I    between atoms: C_18  and  N_20 
ROOT
HETATM    1  C           1     -21.600  -6.433  -5.364  0.00  0.00     0.278 C 
ENDROOT
BRANCH   1   2
HETATM    2  C           1     -20.885  -5.369  -6.188  0.00  0.00     0.083 C 
BRANCH   2   3
HETATM    3  C           1     -21.818  -4.830  -7.226  0.00  0.00    -0.028 A 
HETATM    4  C           1     -23.150  -4.533  -7.044  0.00  0.00     0.096 A 
HETATM    5  N           1     -23.641  -4.066  -8.235  0.00  0.00    -0.365 N 
HETATM    6  H           1     -24.633  -3.761  -8.397  0.00  0.00     0.165 HD
HETATM    7  C           1     -22.648  -4.055  -9.188  0.00  0.00     0.042 A 
HETATM    8  C           1     -22.688  -3.663 -10.532  0.00  0.00     0.030 A 
HETATM    9  C           1     -21.488  -4.533  -8.577  0.00  0.00    -0.002 A 
HETATM   10  C           1     -21.504  -3.762 -11.269  0.00  0.00     0.002 A 
HETATM   11  C           1     -20.331  -4.235 -10.685  0.00  0.00     0.001 A 
HETATM   12  C           1     -20.309  -4.624  -9.340  0.00  0.00     0.014 A 
ENDBRANCH   2   3
ENDBRANCH   1   2
BRANCH   1  13
HETATM   13  N           1     -21.737  -5.959  -3.947  0.00  0.00    -0.066 N 
HETATM   14  H           1     -21.088  -6.500  -3.334  0.00  0.00     0.275 HD
HETATM   15  H           1     -21.497  -4.943  -3.897  0.00  0.00     0.275 HD
HETATM   16  H           1     -22.721  -6.102  -3.626  0.00  0.00     0.275 HD
ENDBRANCH   1  13
BRANCH   1  17
HETATM   17  C           1     -20.800  -7.711  -5.391  0.00  0.00     0.249 C 
HETATM   18  O           1     -19.762  -7.762  -6.007  0.00  0.00    -0.271 OA
HETATM   19  N           1     -21.251  -8.815  -4.717  0.00  0.00    -0.349 N 
HETATM   20  H           1     -22.119  -8.773  -4.201  0.00  0.00     0.163 HD
BRANCH  19  21
HETATM   21  C           1     -20.482 -10.044  -4.743  0.00  0.00     0.235 C 
BRANCH  21  22
HETATM   22  C           1     -21.249 -11.102  -5.498  0.00  0.00     0.191 C 
HETATM   23  O           1     -21.131 -11.194  -6.739  0.00  0.00    -0.647 OA
HETATM   24  O           1     -22.002 -11.888  -4.881  0.00  0.00    -0.647 OA
ENDBRANCH  21  22
ENDBRANCH  19  21
ENDBRANCH   1  17
TORSDOF 6
ENDMDL
MODEL 5
REMARK VINA RESULT:      -7.0      1.944      3.245
REMARK  6 active torsions:
REMARK  status: ('A' for Active; 'I' for Inactive)
REMARK    1  A    between atoms: C_3  and  C_9 
REMARK    2  A    between atoms: C_3  and  N_20 
REMARK    3  A    between atoms: C_5  and  C_17 
REMARK    4  A    between atoms: C_5  and  C_12 
REMARK    5  A    between atoms: N_11  and  C_17 
REMARK    6  A    between atoms: C_17  and  C_18 
REMARK       I    between atoms: C_18  and  N_20 
ROOT
HETATM    1  C           1     -21.293  -7.783  -5.206  0.00  0.00     0.278 C 
ENDROOT
BRANCH   1   2
HETATM    2  C           1     -20.410  -7.785  -3.965  0.00  0.00     0.083 C 
BRANCH   2   3
HETATM    3  C           1     -21.198  -7.302  -2.789  0.00  0.00    -0.028 A 
HETATM    4  C           1     -21.514  -5.993  -2.506  0.00  0.00     0.096 A 
HETATM    5  N           1     -22.243  -5.979  -1.347  0.00  0.00    -0.365 N 
HETATM    6  H           1     -22.623  -5.114  -0.887  0.00  0.00     0.165 HD
HETATM    7  C           1     -22.406  -7.261  -0.871  0.00  0.00     0.042 A 
HETATM    8  C           1     -23.073  -7.724   0.269  0.00  0.00     0.030 A 
HETATM    9  C           1     -21.756  -8.114  -1.763  0.00  0.00    -0.002 A 
HETATM   10  C           1     -23.074  -9.103   0.501  0.00  0.00     0.002 A 
HETATM   11  C           1     -22.434  -9.979  -0.373  0.00  0.00     0.001 A 
HETATM   12  C           1     -21.771  -9.498  -1.509  0.00  0.00     0.014 A 
ENDBRANCH   2   3
ENDBRANCH   1   2
BRANCH   1  13
HETATM   13  N           1     -21.124  -9.081  -5.940  0.00  0.00    -0.066 N 
HETATM   14  H           1     -22.038  -9.367  -6.357  0.00  0.00     0.275 HD
HETATM   15  H           1     -20.418  -8.960  -6.700  0.00  0.00     0.275 HD
HETATM   16  H           1     -20.798  -9.818  -5.275  0.00  0.00     0.275 HD
ENDBRANCH   1  13
BRANCH   1  17
HETATM   17  C           1     -20.894  -6.641  -6.107  0.00  0.00     0.249 C 
HETATM   18  O           1     -19.939  -6.753  -6.838  0.00  0.00    -0.271 OA
HETATM   19  N           1     -21.614  -5.476  -6.095  0.00  0.00    -0.349 N 
HETATM   20  H           1     -22.414  -5.382  -5.483  0.00  0.00     0.163 HD
BRANCH  19  21
HETATM   21  C           1     -21.231  -4.378  -6.961  0.00  0.00     0.235 C 
BRANCH  21  22
HETATM   22  C           1     -22.187  -4.297  -8.126  0.00  0.00     0.191 C 
HETATM   23  O           1     -23.419  -4.256  -7.920  0.00  0.00    -0.647 OA
HETATM   24  O           1     -21.746  -4.271  -9.295  0.00  0.00    -0.647 OA
ENDBRANCH  21  22
ENDBRANCH  19  21
ENDBRANCH   1  17
TORSDOF 6
ENDMDL
MODEL 6
REMARK VINA RESULT:      -6.8      3.087      7.440
REMARK  6 active torsions:
REMARK  status: ('A' for Active; 'I' for Inactive)
REMARK    1  A    between atoms: C_3  and  C_9 
REMARK    2  A    between atoms: C_3  and  N_20 
REMARK    3  A    between atoms: C_5  and  C_17 
REMARK    4  A    between atoms: C_5  and  C_12 
REMARK    5  A    between atoms: N_11  and  C_17 
REMARK    6  A    between atoms: C_17  and  C_18 
REMARK       I    between atoms: C_18  and  N_20 
ROOT
HETATM    1  C           1     -21.000  -6.679  -5.249  0.00  0.00     0.278 C 
ENDROOT
BRANCH   1   2
HETATM    2  C           1     -21.804  -5.622  -5.995  0.00  0.00     0.083 C 
BRANCH   2   3
HETATM    3  C           1     -20.975  -5.053  -7.102  0.00  0.00    -0.028 A 
HETATM    4  C           1     -19.630  -4.765  -7.044  0.00  0.00     0.096 A 
HETATM    5  N           1     -19.256  -4.262  -8.262  0.00  0.00    -0.365 N 
HETATM    6  H           1     -18.283  -3.954  -8.511  0.00  0.00     0.165 HD
HETATM    7  C           1     -20.338  -4.219  -9.112  0.00  0.00     0.042 A 
HETATM    8  C           1     -20.428  -3.785 -10.440  0.00  0.00     0.030 A 
HETATM    9  C           1     -21.435  -4.712  -8.405  0.00  0.00    -0.002 A 
HETATM   10  C           1     -21.679  -3.860 -11.061  0.00  0.00     0.002 A 
HETATM   11  C           1     -22.792  -4.348 -10.379  0.00  0.00     0.001 A 
HETATM   12  C           1     -22.684  -4.778  -9.051  0.00  0.00     0.014 A 
ENDBRANCH   2   3
ENDBRANCH   1   2
BRANCH   1  13
HETATM   13  N           1     -21.197  -8.013  -5.907  0.00  0.00    -0.066 N 
HETATM   14  H           1     -21.450  -7.872  -6.910  0.00  0.00     0.275 HD
HETATM   15  H           1     -20.312  -8.564  -5.845  0.00  0.00     0.275 HD
HETATM   16  H           1     -21.966  -8.530  -5.423  0.00  0.00     0.275 HD
ENDBRANCH   1  13
BRANCH   1  17
HETATM   17  C           1     -21.470  -6.751  -3.817  0.00  0.00     0.249 C 
HETATM   18  O           1     -22.371  -6.040  -3.440  0.00  0.00    -0.271 OA
HETATM   19  N           1     -20.874  -7.623  -2.944  0.00  0.00    -0.349 N 
HETATM   20  H           1     -20.120  -8.218  -3.259  0.00  0.00     0.163 HD
BRANCH  19  21
HETATM   21  C           1     -21.326  -7.692  -1.568  0.00  0.00     0.235 C 
BRANCH  21  22
HETATM   22  C           1     -21.978  -9.030  -1.319  0.00  0.00     0.191 C 
HETATM   23  O           1     -21.754  -9.988  -2.090  0.00  0.00    -0.647 OA
HETATM   24  O           1     -22.742  -9.180  -0.340  0.00  0.00    -0.647 OA
ENDBRANCH  21  22
ENDBRANCH  19  21
ENDBRANCH   1  17
TORSDOF 6
ENDMDL
MODEL 7
REMARK VINA RESULT:      -6.5      3.053      4.148
REMARK  6 active torsions:
REMARK  status: ('A' for Active; 'I' for Inactive)
REMARK    1  A    between atoms: C_3  and  C_9 
REMARK    2  A    between atoms: C_3  and  N_20 
REMARK    3  A    between atoms: C_5  and  C_17 
REMARK    4  A    between atoms: C_5  and  C_12 
REMARK    5  A    between atoms: N_11  and  C_17 
REMARK    6  A    between atoms: C_17  and  C_18 
REMARK       I    between atoms: C_18  and  N_20 
ROOT
HETATM    1  C           1     -20.985  -9.035  -4.817  0.00  0.00     0.278 C 
ENDROOT
BRANCH   1   2
HETATM    2  C           1     -19.775  -8.843  -3.912  0.00  0.00     0.083 C 
BRANCH   2   3
HETATM    3  C           1     -20.098  -9.332  -2.535  0.00  0.00    -0.028 A 
HETATM    4  C           1     -19.640 -10.495  -1.959  0.00  0.00     0.096 A 
HETATM    5  N           1     -20.165 -10.573  -0.697  0.00  0.00    -0.365 N 
HETATM    6  H           1     -19.988 -11.356  -0.020  0.00  0.00     0.165 HD
HETATM    7  C           1     -20.958  -9.477  -0.443  0.00  0.00     0.042 A 
HETATM    8  C           1     -21.689  -9.135   0.702  0.00  0.00     0.030 A 
HETATM    9  C           1     -20.933  -8.679  -1.587  0.00  0.00    -0.002 A 
HETATM   10  C           1     -22.414  -7.939   0.672  0.00  0.00     0.002 A 
HETATM   11  C           1     -22.406  -7.122  -0.457  0.00  0.00     0.001 A 
HETATM   12  C           1     -21.670  -7.480  -1.593  0.00  0.00     0.014 A 
ENDBRANCH   2   3
ENDBRANCH   1   2
BRANCH   1  13
HETATM   13  N           1     -20.646 -10.015  -5.902  0.00  0.00    -0.066 N 
HETATM   14  H           1     -19.615 -10.007  -6.069  0.00  0.00     0.275 HD
HETATM   15  H           1     -20.944 -10.972  -5.610  0.00  0.00     0.275 HD
HETATM   16  H           1     -21.143  -9.747  -6.781  0.00  0.00     0.275 HD
ENDBRANCH   1  13
BRANCH   1  17
HETATM   17  C           1     -21.367  -7.713  -5.435  0.00  0.00     0.249 C 
HETATM   18  O           1     -22.316  -7.099  -5.010  0.00  0.00    -0.271 OA
HETATM   19  N           1     -20.637  -7.210  -6.480  0.00  0.00    -0.349 N 
HETATM   20  H           1     -19.843  -7.724  -6.837  0.00  0.00     0.163 HD
BRANCH  19  21
HETATM   21  C           1     -21.005  -5.940  -7.075  0.00  0.00     0.235 C 
BRANCH  21  22
HETATM   22  C           1     -20.012  -4.882  -6.656  0.00  0.00     0.191 C 
HETATM   23  O           1     -19.204  -4.419  -7.489  0.00  0.00    -0.647 OA
HETATM   24  O           1     -20.001  -4.469  -5.476  0.00  0.00    -0.647 OA
ENDBRANCH  21  22
ENDBRANCH  19  21
ENDBRANCH   1  17
TORSDOF 6
ENDMDL
MODEL 8
REMARK VINA RESULT:      -6.4     13.177     14.816
REMARK  6 active torsions:
REMARK  status: ('A' for Active; 'I' for Inactive)
REMARK    1  A    between atoms: C_3  and  C_9 
REMARK    2  A    between atoms: C_3  and  N_20 
REMARK    3  A    between atoms: C_5  and  C_17 
REMARK    4  A    between atoms: C_5  and  C_12 
REMARK    5  A    between atoms: N_11  and  C_17 
REMARK    6  A    between atoms: C_17  and  C_18 
REMARK       I    between atoms: C_18  and  N_20 
ROOT
HETATM    1  C           1     -35.361  -2.037 -12.028  0.00  0.00     0.278 C 
ENDROOT
BRANCH   1   2
HETATM    2  C           1     -34.212  -2.231 -11.048  0.00  0.00     0.083 C 
BRANCH   2   3
HETATM    3  C           1     -33.601  -3.582 -11.253  0.00  0.00    -0.028 A 
HETATM    4  C           1     -32.456  -3.854 -11.967  0.00  0.00     0.096 A 
HETATM    5  N           1     -32.240  -5.206 -11.912  0.00  0.00    -0.365 N 
HETATM    6  H           1     -31.436  -5.704 -12.369  0.00  0.00     0.165 HD
HETATM    7  C           1     -33.228  -5.816 -11.173  0.00  0.00     0.042 A 
HETATM    8  C           1     -33.415  -7.167 -10.853  0.00  0.00     0.030 A 
HETATM    9  C           1     -34.100  -4.814 -10.746  0.00  0.00    -0.002 A 
HETATM   10  C           1     -34.527  -7.498 -10.072  0.00  0.00     0.002 A 
HETATM   11  C           1     -35.413  -6.517  -9.631  0.00  0.00     0.001 A 
HETATM   12  C           1     -35.212  -5.172  -9.961  0.00  0.00     0.014 A 
ENDBRANCH   2   3
ENDBRANCH   1   2
BRANCH   1  13
HETATM   13  N           1     -34.856  -1.341 -13.258  0.00  0.00    -0.066 N 
HETATM   14  H           1     -35.511  -0.570 -13.515  0.00  0.00     0.275 HD
HETATM   15  H           1     -33.909  -0.944 -13.066  0.00  0.00     0.275 HD
HETATM   16  H           1     -34.795  -2.025 -14.045  0.00  0.00     0.275 HD
ENDBRANCH   1  13
BRANCH   1  17
HETATM   17  C           1     -36.438  -1.201 -11.384  0.00  0.00     0.249 C 
HETATM   18  O           1     -37.296  -0.692 -12.065  0.00  0.00    -0.271 OA
HETATM   19  N           1     -36.442  -1.017 -10.026  0.00  0.00    -0.349 N 
HETATM   20  H           1     -35.723  -1.443  -9.456  0.00  0.00     0.163 HD
BRANCH  19  21
HETATM   21  C           1     -37.477  -0.213  -9.407  0.00  0.00     0.235 C 
BRANCH  21  22
HETATM   22  C           1     -36.857   0.699  -8.376  0.00  0.00     0.191 C 
HETATM   23  O           1     -37.485   1.700  -7.969  0.00  0.00    -0.647 OA
HETATM   24  O           1     -35.716   0.451  -7.929  0.00  0.00    -0.647 OA
ENDBRANCH  21  22
ENDBRANCH  19  21
ENDBRANCH   1  17
TORSDOF 6
ENDMDL
MODEL 9
REMARK VINA RESULT:      -6.4      4.240      7.115
REMARK  6 active torsions:
REMARK  status: ('A' for Active; 'I' for Inactive)
REMARK    1  A    between atoms: C_3  and  C_9 
REMARK    2  A    between atoms: C_3  and  N_20 
REMARK    3  A    between atoms: C_5  and  C_17 
REMARK    4  A    between atoms: C_5  and  C_12 
REMARK    5  A    between atoms: N_11  and  C_17 
REMARK    6  A    between atoms: C_17  and  C_18 
REMARK       I    between atoms: C_18  and  N_20 
ROOT
HETATM    1  C           1     -19.764  -8.417  -3.802  0.00  0.00     0.278 C 
ENDROOT
BRANCH   1   2
HETATM    2  C           1     -20.582  -8.584  -5.076  0.00  0.00     0.083 C 
BRANCH   2   3
HETATM    3  C           1     -21.270  -7.296  -5.401  0.00  0.00    -0.028 A 
HETATM    4  C           1     -22.518  -6.910  -4.967  0.00  0.00     0.096 A 
HETATM    5  N           1     -22.776  -5.669  -5.486  0.00  0.00    -0.365 N 
HETATM    6  H           1     -23.658  -5.122  -5.323  0.00  0.00     0.165 HD
HETATM    7  C           1     -21.715  -5.242  -6.251  0.00  0.00     0.042 A 
HETATM    8  C           1     -21.537  -4.051  -6.966  0.00  0.00     0.030 A 
HETATM    9  C           1     -20.751  -6.250  -6.214  0.00  0.00    -0.002 A 
HETATM   10  C           1     -20.334  -3.890  -7.662  0.00  0.00     0.002 A 
HETATM   11  C           1     -19.354  -4.880  -7.643  0.00  0.00     0.001 A 
HETATM   12  C           1     -19.549  -6.065  -6.923  0.00  0.00     0.014 A 
ENDBRANCH   2   3
ENDBRANCH   1   2
BRANCH   1  13
HETATM   13  N           1     -18.523  -9.256  -3.892  0.00  0.00    -0.066 N 
HETATM   14  H           1     -17.923  -9.082  -3.055  0.00  0.00     0.275 HD
HETATM   15  H           1     -18.789 -10.266  -3.927  0.00  0.00     0.275 HD
HETATM   16  H           1     -17.995  -9.003  -4.758  0.00  0.00     0.275 HD
ENDBRANCH   1  13
BRANCH   1  17
HETATM   17  C           1     -20.584  -8.860  -2.615  0.00  0.00     0.249 C 
HETATM   18  O           1     -21.277  -9.846  -2.694  0.00  0.00    -0.271 OA
HETATM   19  N           1     -20.543  -8.142  -1.449  0.00  0.00    -0.349 N 
HETATM   20  H           1     -19.962  -7.316  -1.383  0.00  0.00     0.163 HD
BRANCH  19  21
HETATM   21  C           1     -21.331  -8.567  -0.309  0.00  0.00     0.235 C 
BRANCH  21  22
HETATM   22  C           1     -22.550  -7.687  -0.183  0.00  0.00     0.191 C 
HETATM   23  O           1     -23.408  -7.929   0.693  0.00  0.00    -0.647 OA
HETATM   24  O           1     -22.700  -6.714  -0.954  0.00  0.00    -0.647 OA
ENDBRANCH  21  22
ENDBRANCH  19  21
ENDBRANCH   1  17
TORSDOF 6
ENDMDL
