MODEL 1
REMARK VINA RESULT:      -6.0      0.000      0.000
REMARK  5 active torsions:
REMARK  status: ('A' for Active; 'I' for Inactive)
REMARK    1  A    between atoms: C_2  and  C_4 
REMARK    2  A    between atoms: C_4  and  C_5 
REMARK    3  A    between atoms: C_4  and  N_8 
REMARK       I    between atoms: N_8  and  C_9 
REMARK    4  A    between atoms: C_9  and  C_10 
REMARK    5  A    between atoms: C_10  and  N_16 
ROOT
HETATM    1  N           1     -22.159  -4.792  -8.637  0.00  0.00    -0.344 N 
HETATM    2  C           1     -21.689  -4.366  -7.423  0.00  0.00     0.248 C 
HETATM    3  H           1     -22.317  -5.777  -8.801  0.00  0.00     0.163 HD
HETATM    4  O           1     -21.501  -3.189  -7.227  0.00  0.00    -0.271 OA
ENDROOT
BRANCH   1   5
HETATM    5  C           1     -22.431  -3.829  -9.687  0.00  0.00     0.189 C 
BRANCH   5   6
HETATM    6  C           1     -21.515  -4.101 -10.873  0.00  0.00     0.010 C 
HETATM    7  C           1     -21.181  -2.787 -11.567  0.00  0.00     0.012 C 
HETATM    8  C           1     -20.231  -4.758 -10.382  0.00  0.00     0.012 C 
ENDBRANCH   5   6
BRANCH   5   9
HETATM    9  C           1     -23.871  -3.955 -10.123  0.00  0.00     0.197 C 
HETATM   10  O           1     -24.495  -2.945 -10.514  0.00  0.00    -0.646 OA
HETATM   11  O           1     -24.438  -5.068 -10.092  0.00  0.00    -0.646 OA
ENDBRANCH   5   9
ENDBRANCH   1   5
BRANCH   2  12
HETATM   12  C           1     -21.406  -5.368  -6.331  0.00  0.00     0.270 C 
HETATM   13  C           1     -20.312  -4.829  -5.418  0.00  0.00     0.050 C 
BRANCH  12  14
HETATM   14  N           1     -20.954  -6.660  -6.943  0.00  0.00    -0.067 N 
HETATM   15  H           1     -21.615  -7.424  -6.669  0.00  0.00     0.275 HD
HETATM   16  H           1     -19.994  -6.890  -6.600  0.00  0.00     0.275 HD
HETATM   17  H           1     -20.940  -6.568  -7.983  0.00  0.00     0.275 HD
ENDBRANCH  12  14
ENDBRANCH   2  12
TORSDOF 5
ENDMDL
MODEL 2
REMARK VINA RESULT:      -5.8      9.681     11.312
REMARK  5 active torsions:
REMARK  status: ('A' for Active; 'I' for Inactive)
REMARK    1  A    between atoms: C_2  and  C_4 
REMARK    2  A    between atoms: C_4  and  C_5 
REMARK    3  A    between atoms: C_4  and  N_8 
REMARK       I    between atoms: N_8  and  C_9 
REMARK    4  A    between atoms: C_9  and  C_10 
REMARK    5  A    between atoms: C_10  and  N_16 
ROOT
HETATM    1  N           1     -26.877  -6.582 -18.375  0.00  0.00    -0.344 N 
HETATM    2  C           1     -25.622  -6.798 -18.876  0.00  0.00     0.248 C 
HETATM    3  H           1     -27.690  -6.859 -18.909  0.00  0.00     0.163 HD
HETATM    4  O           1     -24.651  -6.467 -18.237  0.00  0.00    -0.271 OA
ENDROOT
BRANCH   1   5
HETATM    5  C           1     -27.042  -5.956 -17.077  0.00  0.00     0.189 C 
BRANCH   5   6
HETATM    6  C           1     -28.363  -5.199 -17.043  0.00  0.00     0.010 C 
HETATM    7  C           1     -28.095  -3.725 -16.769  0.00  0.00     0.012 C 
HETATM    8  C           1     -29.066  -5.347 -18.387  0.00  0.00     0.012 C 
ENDBRANCH   5   6
BRANCH   5   9
HETATM    9  C           1     -27.042  -7.018 -16.004  0.00  0.00     0.197 C 
HETATM   10  O           1     -28.114  -7.566 -15.668  0.00  0.00    -0.646 OA
HETATM   11  O           1     -25.971  -7.348 -15.451  0.00  0.00    -0.646 OA
ENDBRANCH   5   9
ENDBRANCH   1   5
BRANCH   2  12
HETATM   12  C           1     -25.450  -7.448 -20.227  0.00  0.00     0.270 C 
HETATM   13  C           1     -25.024  -6.399 -21.246  0.00  0.00     0.050 C 
BRANCH  12  14
HETATM   14  N           1     -26.750  -8.062 -20.655  0.00  0.00    -0.067 N 
HETATM   15  H           1     -27.385  -7.313 -21.017  0.00  0.00     0.275 HD
HETATM   16  H           1     -27.198  -8.534 -19.837  0.00  0.00     0.275 HD
HETATM   17  H           1     -26.574  -8.763 -21.409  0.00  0.00     0.275 HD
ENDBRANCH  12  14
ENDBRANCH   2  12
TORSDOF 5
ENDMDL
MODEL 3
REMARK VINA RESULT:      -5.7     12.188     14.149
REMARK  5 active torsions:
REMARK  status: ('A' for Active; 'I' for Inactive)
REMARK    1  A    between atoms: C_2  and  C_4 
REMARK    2  A    between atoms: C_4  and  C_5 
REMARK    3  A    between atoms: C_4  and  N_8 
REMARK       I    between atoms: N_8  and  C_9 
REMARK    4  A    between atoms: C_9  and  C_10 
REMARK    5  A    between atoms: C_10  and  N_16 
ROOT
HETATM    1  N           1     -35.288  -1.773 -12.577  0.00  0.00    -0.344 N 
HETATM    2  C           1     -34.290  -2.512 -11.999  0.00  0.00     0.248 C 
HETATM    3  H           1     -35.884  -2.190 -13.280  0.00  0.00     0.163 HD
HETATM    4  O           1     -33.579  -2.013 -11.159  0.00  0.00    -0.271 OA
ENDROOT
BRANCH   1   5
HETATM    5  C           1     -35.490  -0.392 -12.182  0.00  0.00     0.189 C 
BRANCH   5   6
HETATM    6  C           1     -35.810   0.445 -13.413  0.00  0.00     0.010 C 
HETATM    7  C           1     -34.571   1.227 -13.830  0.00  0.00     0.012 C 
HETATM    8  C           1     -36.242  -0.470 -14.551  0.00  0.00     0.012 C 
ENDBRANCH   5   6
BRANCH   5   9
HETATM    9  C           1     -36.638  -0.312 -11.205  0.00  0.00     0.197 C 
HETATM   10  O           1     -36.592   0.494 -10.252  0.00  0.00    -0.646 OA
HETATM   11  O           1     -37.634  -1.053 -11.350  0.00  0.00    -0.646 OA
ENDBRANCH   5   9
ENDBRANCH   1   5
BRANCH   2  12
HETATM   12  C           1     -34.080  -3.947 -12.410  0.00  0.00     0.270 C 
HETATM   13  C           1     -32.830  -4.493 -11.731  0.00  0.00     0.050 C 
BRANCH  12  14
HETATM   14  N           1     -33.912  -4.022 -13.899  0.00  0.00    -0.067 N 
HETATM   15  H           1     -33.580  -4.978 -14.164  0.00  0.00     0.275 HD
HETATM   16  H           1     -33.210  -3.311 -14.205  0.00  0.00     0.275 HD
HETATM   17  H           1     -34.828  -3.830 -14.364  0.00  0.00     0.275 HD
ENDBRANCH  12  14
ENDBRANCH   2  12
TORSDOF 5
ENDMDL
MODEL 4
REMARK VINA RESULT:      -5.7     13.223     15.216
REMARK  5 active torsions:
REMARK  status: ('A' for Active; 'I' for Inactive)
REMARK    1  A    between atoms: C_2  and  C_4 
REMARK    2  A    between atoms: C_4  and  C_5 
REMARK    3  A    between atoms: C_4  and  N_8 
REMARK       I    between atoms: N_8  and  C_9 
REMARK    4  A    between atoms: C_9  and  C_10 
REMARK    5  A    between atoms: C_10  and  N_16 
ROOT
HETATM    1  N           1     -35.427  -0.822 -12.211  0.00  0.00    -0.344 N 
HETATM    2  C           1     -36.107  -0.518 -13.360  0.00  0.00     0.248 C 
HETATM    3  H           1     -34.481  -0.489 -12.080  0.00  0.00     0.163 HD
HETATM    4  O           1     -37.238  -0.915 -13.516  0.00  0.00    -0.271 OA
ENDROOT
BRANCH   1   5
HETATM    5  C           1     -36.065  -1.619 -11.181  0.00  0.00     0.189 C 
BRANCH   5   6
HETATM    6  C           1     -35.038  -2.553 -10.555  0.00  0.00     0.010 C 
HETATM    7  C           1     -35.347  -3.989 -10.959  0.00  0.00     0.012 C 
HETATM    8  C           1     -33.645  -2.176 -11.044  0.00  0.00     0.012 C 
ENDBRANCH   5   6
BRANCH   5   9
HETATM    9  C           1     -36.630  -0.707 -10.118  0.00  0.00     0.197 C 
HETATM   10  O           1     -35.931  -0.390  -9.131  0.00  0.00    -0.646 OA
HETATM   11  O           1     -37.795  -0.270 -10.226  0.00  0.00    -0.646 OA
ENDBRANCH   5   9
ENDBRANCH   1   5
BRANCH   2  12
HETATM   12  C           1     -35.444   0.310 -14.432  0.00  0.00     0.270 C 
HETATM   13  C           1     -34.497   1.313 -13.787  0.00  0.00     0.050 C 
BRANCH  12  14
HETATM   14  N           1     -36.491   1.045 -15.216  0.00  0.00    -0.067 N 
HETATM   15  H           1     -36.057   1.874 -15.683  0.00  0.00     0.275 HD
HETATM   16  H           1     -37.248   1.363 -14.571  0.00  0.00     0.275 HD
HETATM   17  H           1     -36.895   0.409 -15.941  0.00  0.00     0.275 HD
ENDBRANCH  12  14
ENDBRANCH   2  12
TORSDOF 5
ENDMDL
MODEL 5
REMARK VINA RESULT:      -5.6     12.809     14.588
REMARK  5 active torsions:
REMARK  status: ('A' for Active; 'I' for Inactive)
REMARK    1  A    between atoms: C_2  and  C_4 
REMARK    2  A    between atoms: C_4  and  C_5 
REMARK    3  A    between atoms: C_4  and  N_8 
REMARK       I    between atoms: N_8  and  C_9 
REMARK    4  A    between atoms: C_9  and  C_10 
REMARK    5  A    between atoms: C_10  and  N_16 
ROOT
HETATM    1  N           1     -34.798  -1.554 -13.082  0.00  0.00    -0.344 N 
HETATM    2  C           1     -35.892  -0.856 -13.518  0.00  0.00     0.248 C 
HETATM    3  H           1     -33.905  -1.435 -13.543  0.00  0.00     0.163 HD
HETATM    4  O           1     -36.958  -0.999 -12.966  0.00  0.00    -0.271 OA
ENDROOT
BRANCH   1   5
HETATM    5  C           1     -34.917  -2.463 -11.958  0.00  0.00     0.189 C 
BRANCH   5   6
HETATM    6  C           1     -33.985  -3.649 -12.164  0.00  0.00     0.010 C 
HETATM    7  C           1     -34.430  -4.803 -11.276  0.00  0.00     0.012 C 
HETATM    8  C           1     -34.031  -4.082 -13.624  0.00  0.00     0.012 C 
ENDBRANCH   5   6
BRANCH   5   9
HETATM    9  C           1     -34.542  -1.741 -10.686  0.00  0.00     0.197 C 
HETATM   10  O           1     -33.344  -1.675 -10.336  0.00  0.00    -0.646 OA
HETATM   11  O           1     -35.429  -1.211  -9.984  0.00  0.00    -0.646 OA
ENDBRANCH   5   9
ENDBRANCH   1   5
BRANCH   2  12
HETATM   12  C           1     -35.768   0.089 -14.687  0.00  0.00     0.270 C 
HETATM   13  C           1     -34.825   1.228 -14.322  0.00  0.00     0.050 C 
BRANCH  12  14
HETATM   14  N           1     -37.118   0.647 -15.025  0.00  0.00    -0.067 N 
HETATM   15  H           1     -37.024   1.332 -15.810  0.00  0.00     0.275 HD
HETATM   16  H           1     -37.515   1.128 -14.187  0.00  0.00     0.275 HD
HETATM   17  H           1     -37.754  -0.129 -15.315  0.00  0.00     0.275 HD
ENDBRANCH  12  14
ENDBRANCH   2  12
TORSDOF 5
ENDMDL
MODEL 6
REMARK VINA RESULT:      -5.6     12.415     14.374
REMARK  5 active torsions:
REMARK  status: ('A' for Active; 'I' for Inactive)
REMARK    1  A    between atoms: C_2  and  C_4 
REMARK    2  A    between atoms: C_4  and  C_5 
REMARK    3  A    between atoms: C_4  and  N_8 
REMARK       I    between atoms: N_8  and  C_9 
REMARK    4  A    between atoms: C_9  and  C_10 
REMARK    5  A    between atoms: C_10  and  N_16 
ROOT
HETATM    1  N           1     -34.880  -1.296 -12.564  0.00  0.00    -0.344 N 
HETATM    2  C           1     -34.395  -2.570 -12.429  0.00  0.00     0.248 C 
HETATM    3  H           1     -34.594  -0.576 -11.914  0.00  0.00     0.163 HD
HETATM    4  O           1     -34.736  -3.431 -13.206  0.00  0.00    -0.271 OA
ENDROOT
BRANCH   1   5
HETATM    5  C           1     -35.800  -0.981 -13.639  0.00  0.00     0.189 C 
BRANCH   5   6
HETATM    6  C           1     -36.826   0.032 -13.147  0.00  0.00     0.010 C 
HETATM    7  C           1     -38.075  -0.048 -14.014  0.00  0.00     0.012 C 
HETATM    8  C           1     -37.190  -0.278 -11.700  0.00  0.00     0.012 C 
ENDBRANCH   5   6
BRANCH   5   9
HETATM    9  C           1     -35.034  -0.398 -14.802  0.00  0.00     0.197 C 
HETATM   10  O           1     -34.375   0.653 -14.651  0.00  0.00    -0.646 OA
HETATM   11  O           1     -35.061  -0.966 -15.914  0.00  0.00    -0.646 OA
ENDBRANCH   5   9
ENDBRANCH   1   5
BRANCH   2  12
HETATM   12  C           1     -33.437  -2.898 -11.311  0.00  0.00     0.270 C 
HETATM   13  C           1     -33.901  -4.164 -10.600  0.00  0.00     0.050 C 
BRANCH  12  14
HETATM   14  N           1     -33.401  -1.761 -10.334  0.00  0.00    -0.067 N 
HETATM   15  H           1     -34.177  -1.094 -10.548  0.00  0.00     0.275 HD
HETATM   16  H           1     -32.484  -1.267 -10.410  0.00  0.00     0.275 HD
HETATM   17  H           1     -33.518  -2.131  -9.363  0.00  0.00     0.275 HD
ENDBRANCH  12  14
ENDBRANCH   2  12
TORSDOF 5
ENDMDL
MODEL 7
REMARK VINA RESULT:      -5.6     13.538     14.767
REMARK  5 active torsions:
REMARK  status: ('A' for Active; 'I' for Inactive)
REMARK    1  A    between atoms: C_2  and  C_4 
REMARK    2  A    between atoms: C_4  and  C_5 
REMARK    3  A    between atoms: C_4  and  N_8 
REMARK       I    between atoms: N_8  and  C_9 
REMARK    4  A    between atoms: C_9  and  C_10 
REMARK    5  A    between atoms: C_10  and  N_16 
ROOT
HETATM    1  N           1     -34.835  -1.338 -13.936  0.00  0.00    -0.344 N 
HETATM    2  C           1     -35.331  -1.762 -12.732  0.00  0.00     0.248 C 
HETATM    3  H           1     -33.906  -1.615 -14.226  0.00  0.00     0.163 HD
HETATM    4  O           1     -36.441  -1.431 -12.387  0.00  0.00    -0.271 OA
ENDROOT
BRANCH   1   5
HETATM    5  C           1     -35.641  -0.493 -14.796  0.00  0.00     0.189 C 
BRANCH   5   6
HETATM    6  C           1     -34.955   0.855 -14.969  0.00  0.00     0.010 C 
HETATM    7  C           1     -35.904   1.822 -15.665  0.00  0.00     0.012 C 
HETATM    8  C           1     -34.576   1.410 -13.601  0.00  0.00     0.012 C 
ENDBRANCH   5   6
BRANCH   5   9
HETATM    9  C           1     -35.800  -1.154 -16.144  0.00  0.00     0.197 C 
HETATM   10  O           1     -36.904  -1.122 -16.728  0.00  0.00    -0.646 OA
HETATM   11  O           1     -34.828  -1.733 -16.674  0.00  0.00    -0.646 OA
ENDBRANCH   5   9
ENDBRANCH   1   5
BRANCH   2  12
HETATM   12  C           1     -34.493  -2.640 -11.838  0.00  0.00     0.270 C 
HETATM   13  C           1     -35.396  -3.608 -11.084  0.00  0.00     0.050 C 
BRANCH  12  14
HETATM   14  N           1     -33.746  -1.787 -10.856  0.00  0.00    -0.067 N 
HETATM   15  H           1     -34.405  -1.449 -10.117  0.00  0.00     0.275 HD
HETATM   16  H           1     -33.330  -0.968 -11.354  0.00  0.00     0.275 HD
HETATM   17  H           1     -32.984  -2.349 -10.414  0.00  0.00     0.275 HD
ENDBRANCH  12  14
ENDBRANCH   2  12
TORSDOF 5
ENDMDL
MODEL 8
REMARK VINA RESULT:      -5.3      9.060     10.624
REMARK  5 active torsions:
REMARK  status: ('A' for Active; 'I' for Inactive)
REMARK    1  A    between atoms: C_2  and  C_4 
REMARK    2  A    between atoms: C_4  and  C_5 
REMARK    3  A    between atoms: C_4  and  N_8 
REMARK       I    between atoms: N_8  and  C_9 
REMARK    4  A    between atoms: C_9  and  C_10 
REMARK    5  A    between atoms: C_10  and  N_16 
ROOT
HETATM    1  N           1     -27.015  -6.455 -17.295  0.00  0.00    -0.344 N 
HETATM    2  C           1     -25.998  -6.956 -16.527  0.00  0.00     0.248 C 
HETATM    3  H           1     -26.815  -6.065 -18.207  0.00  0.00     0.163 HD
HETATM    4  O           1     -26.237  -7.423 -15.438  0.00  0.00    -0.271 OA
ENDROOT
BRANCH   1   5
HETATM    5  C           1     -28.378  -6.485 -16.802  0.00  0.00     0.189 C 
BRANCH   5   6
HETATM    6  C           1     -28.911  -5.062 -16.699  0.00  0.00     0.010 C 
HETATM    7  C           1     -28.925  -4.424 -18.082  0.00  0.00     0.012 C 
HETATM    8  C           1     -30.326  -5.090 -16.137  0.00  0.00     0.012 C 
ENDBRANCH   5   6
BRANCH   5   9
HETATM    9  C           1     -29.240  -7.278 -17.755  0.00  0.00     0.197 C 
HETATM   10  O           1     -28.974  -7.288 -18.976  0.00  0.00    -0.646 OA
HETATM   11  O           1     -30.218  -7.923 -17.322  0.00  0.00    -0.646 OA
ENDBRANCH   5   9
ENDBRANCH   1   5
BRANCH   2  12
HETATM   12  C           1     -24.579  -6.925 -17.040  0.00  0.00     0.270 C 
HETATM   13  C           1     -24.588  -6.971 -18.562  0.00  0.00     0.050 C 
BRANCH  12  14
HETATM   14  N           1     -23.829  -8.111 -16.509  0.00  0.00    -0.067 N 
HETATM   15  H           1     -24.510  -8.829 -16.169  0.00  0.00     0.275 HD
HETATM   16  H           1     -23.216  -7.809 -15.719  0.00  0.00     0.275 HD
HETATM   17  H           1     -23.241  -8.521 -17.269  0.00  0.00     0.275 HD
ENDBRANCH  12  14
ENDBRANCH   2  12
TORSDOF 5
ENDMDL
MODEL 9
REMARK VINA RESULT:      -5.2     13.496     14.988
REMARK  5 active torsions:
REMARK  status: ('A' for Active; 'I' for Inactive)
REMARK    1  A    between atoms: C_2  and  C_4 
REMARK    2  A    between atoms: C_4  and  C_5 
REMARK    3  A    between atoms: C_4  and  N_8 
REMARK       I    between atoms: N_8  and  C_9 
REMARK    4  A    between atoms: C_9  and  C_10 
REMARK    5  A    between atoms: C_10  and  N_16 
ROOT
HETATM    1  N           1     -35.861  -0.819 -11.185  0.00  0.00    -0.344 N 
HETATM    2  C           1     -37.086  -0.704 -10.582  0.00  0.00     0.248 C 
HETATM    3  H           1     -35.033  -0.475 -10.718  0.00  0.00     0.163 HD
HETATM    4  O           1     -38.075  -1.116 -11.141  0.00  0.00    -0.271 OA
ENDROOT
BRANCH   1   5
HETATM    5  C           1     -35.752  -1.436 -12.493  0.00  0.00     0.189 C 
BRANCH   5   6
HETATM    6  C           1     -35.506  -0.359 -13.542  0.00  0.00     0.010 C 
HETATM    7  C           1     -36.835   0.078 -14.142  0.00  0.00     0.012 C 
HETATM    8  C           1     -34.823   0.836 -12.889  0.00  0.00     0.012 C 
ENDBRANCH   5   6
BRANCH   5   9
HETATM    9  C           1     -34.602  -2.413 -12.494  0.00  0.00     0.197 C 
HETATM   10  O           1     -34.403  -3.143 -13.488  0.00  0.00    -0.646 OA
HETATM   11  O           1     -33.849  -2.492 -11.499  0.00  0.00    -0.646 OA
ENDBRANCH   5   9
ENDBRANCH   1   5
BRANCH   2  12
HETATM   12  C           1     -37.199  -0.063  -9.222  0.00  0.00     0.270 C 
HETATM   13  C           1     -37.686   1.373  -9.376  0.00  0.00     0.050 C 
BRANCH  12  14
HETATM   14  N           1     -35.857  -0.066  -8.554  0.00  0.00    -0.067 N 
HETATM   15  H           1     -35.113  -0.243  -9.268  0.00  0.00     0.275 HD
HETATM   16  H           1     -35.831  -0.818  -7.829  0.00  0.00     0.275 HD
HETATM   17  H           1     -35.690   0.861  -8.100  0.00  0.00     0.275 HD
ENDBRANCH  12  14
ENDBRANCH   2  12
TORSDOF 5
ENDMDL
