MODEL 1
REMARK VINA RESULT:      -5.4      0.000      0.000
REMARK  7 active torsions:
REMARK  status: ('A' for Active; 'I' for Inactive)
REMARK    1  A    between atoms: C_4  and  C_5 
REMARK    2  A    between atoms: C_4  and  N_15 
REMARK       I    between atoms: C_5  and  N_6 
REMARK    3  A    between atoms: N_6  and  C_10 
REMARK    4  A    between atoms: C_9  and  C_10 
REMARK    5  A    between atoms: C_10  and  C_11 
REMARK    6  A    between atoms: C_11  and  C_12 
REMARK    7  A    between atoms: C_12  and  S_13 
ROOT
HETATM    1  H           1     -35.120   0.342 -10.602  0.00  0.00     0.163 HD
HETATM    2  C           1     -37.067  -0.330 -10.400  0.00  0.00     0.248 C 
HETATM    3  N           1     -35.882  -0.141 -11.059  0.00  0.00    -0.345 N 
HETATM    4  O           1     -37.977  -0.907 -10.947  0.00  0.00    -0.271 OA
ENDROOT
BRANCH   3   5
HETATM    5  C           1     -35.720  -0.633 -12.414  0.00  0.00     0.186 C 
BRANCH   5   6
HETATM    6  C           1     -34.742  -1.783 -12.417  0.00  0.00     0.196 C 
HETATM    7  O           1     -34.701  -2.565 -13.391  0.00  0.00    -0.646 OA
HETATM    8  O           1     -33.975  -1.953 -11.445  0.00  0.00    -0.646 OA
ENDBRANCH   5   6
BRANCH   5   9
HETATM    9  C           1     -35.191   0.486 -13.300  0.00  0.00     0.046 C 
BRANCH   9  10
HETATM   10  C           1     -35.923   0.467 -14.636  0.00  0.00     0.076 C 
BRANCH  10  11
HETATM   11  S           1     -37.645  -0.042 -14.374  0.00  0.00    -0.173 SA
HETATM   12  C           1     -37.982  -0.500 -16.098  0.00  0.00     0.089 C 
ENDBRANCH  10  11
ENDBRANCH   9  10
ENDBRANCH   5   9
ENDBRANCH   3   5
BRANCH   2  13
HETATM   13  C           1     -37.236   0.182  -8.991  0.00  0.00     0.270 C 
HETATM   14  C           1     -37.859   1.571  -9.026  0.00  0.00     0.050 C 
BRANCH  13  15
HETATM   15  N           1     -35.895   0.252  -8.320  0.00  0.00    -0.067 N 
HETATM   16  H           1     -35.144   0.087  -9.028  0.00  0.00     0.275 HD
HETATM   17  H           1     -35.769   1.196  -7.892  0.00  0.00     0.275 HD
HETATM   18  H           1     -35.841  -0.480  -7.576  0.00  0.00     0.275 HD
ENDBRANCH  13  15
ENDBRANCH   2  13
TORSDOF 7
ENDMDL
MODEL 2
REMARK VINA RESULT:      -5.3      2.220      4.192
REMARK  7 active torsions:
REMARK  status: ('A' for Active; 'I' for Inactive)
REMARK    1  A    between atoms: C_4  and  C_5 
REMARK    2  A    between atoms: C_4  and  N_15 
REMARK       I    between atoms: C_5  and  N_6 
REMARK    3  A    between atoms: N_6  and  C_10 
REMARK    4  A    between atoms: C_9  and  C_10 
REMARK    5  A    between atoms: C_10  and  C_11 
REMARK    6  A    between atoms: C_11  and  C_12 
REMARK    7  A    between atoms: C_12  and  S_13 
ROOT
HETATM    1  H           1     -35.630  -2.042 -13.745  0.00  0.00     0.163 HD
HETATM    2  C           1     -34.342  -2.261 -12.139  0.00  0.00     0.248 C 
HETATM    3  N           1     -35.198  -1.575 -12.958  0.00  0.00    -0.345 N 
HETATM    4  O           1     -33.827  -1.704 -11.199  0.00  0.00    -0.271 OA
ENDROOT
BRANCH   3   5
HETATM    5  C           1     -35.487  -0.178 -12.696  0.00  0.00     0.186 C 
BRANCH   5   6
HETATM    6  C           1     -36.632  -0.077 -11.717  0.00  0.00     0.196 C 
HETATM    7  O           1     -36.453   0.452 -10.599  0.00  0.00    -0.646 OA
HETATM    8  O           1     -37.758  -0.522 -12.026  0.00  0.00    -0.646 OA
ENDBRANCH   5   6
BRANCH   5   9
HETATM    9  C           1     -35.868   0.514 -13.998  0.00  0.00     0.046 C 
BRANCH   9  10
HETATM   10  C           1     -35.290  -0.263 -15.174  0.00  0.00     0.076 C 
BRANCH  10  11
HETATM   11  S           1     -36.616  -0.657 -16.349  0.00  0.00    -0.173 SA
HETATM   12  C           1     -37.924   0.264 -15.491  0.00  0.00     0.089 C 
ENDBRANCH  10  11
ENDBRANCH   9  10
ENDBRANCH   5   9
ENDBRANCH   3   5
BRANCH   2  13
HETATM   13  C           1     -34.041  -3.714 -12.412  0.00  0.00     0.270 C 
HETATM   14  C           1     -32.722  -4.093 -11.751  0.00  0.00     0.050 C 
BRANCH  13  15
HETATM   15  N           1     -33.940  -3.935 -13.893  0.00  0.00    -0.067 N 
HETATM   16  H           1     -33.261  -4.706 -14.083  0.00  0.00     0.275 HD
HETATM   17  H           1     -34.878  -4.195 -14.272  0.00  0.00     0.275 HD
HETATM   18  H           1     -33.609  -3.056 -14.353  0.00  0.00     0.275 HD
ENDBRANCH  13  15
ENDBRANCH   2  13
TORSDOF 7
ENDMDL
MODEL 3
REMARK VINA RESULT:      -4.8     15.446     16.825
REMARK  7 active torsions:
REMARK  status: ('A' for Active; 'I' for Inactive)
REMARK    1  A    between atoms: C_4  and  C_5 
REMARK    2  A    between atoms: C_4  and  N_15 
REMARK       I    between atoms: C_5  and  N_6 
REMARK    3  A    between atoms: N_6  and  C_10 
REMARK    4  A    between atoms: C_9  and  C_10 
REMARK    5  A    between atoms: C_10  and  C_11 
REMARK    6  A    between atoms: C_11  and  C_12 
REMARK    7  A    between atoms: C_12  and  S_13 
ROOT
HETATM    1  H           1     -20.697  -4.579  -4.623  0.00  0.00     0.163 HD
HETATM    2  C           1     -21.439  -6.488  -4.325  0.00  0.00     0.248 C 
HETATM    3  N           1     -21.082  -5.399  -5.074  0.00  0.00    -0.345 N 
HETATM    4  O           1     -21.899  -7.467  -4.863  0.00  0.00    -0.271 OA
ENDROOT
BRANCH   3   5
HETATM    5  C           1     -21.256  -5.421  -6.513  0.00  0.00     0.186 C 
BRANCH   5   6
HETATM    6  C           1     -19.925  -5.680  -7.176  0.00  0.00     0.196 C 
HETATM    7  O           1     -19.335  -4.754  -7.774  0.00  0.00    -0.646 OA
HETATM    8  O           1     -19.414  -6.819  -7.127  0.00  0.00    -0.646 OA
ENDBRANCH   5   6
BRANCH   5   9
HETATM    9  C           1     -21.803  -4.078  -6.978  0.00  0.00     0.046 C 
BRANCH   9  10
HETATM   10  C           1     -23.107  -4.296  -7.737  0.00  0.00     0.076 C 
BRANCH  10  11
HETATM   11  S           1     -22.867  -3.872  -9.485  0.00  0.00    -0.173 SA
HETATM   12  C           1     -24.601  -3.466  -9.833  0.00  0.00     0.089 C 
ENDBRANCH  10  11
ENDBRANCH   9  10
ENDBRANCH   5   9
ENDBRANCH   3   5
BRANCH   2  13
HETATM   13  C           1     -21.258  -6.465  -2.827  0.00  0.00     0.270 C 
HETATM   14  C           1     -21.084  -7.888  -2.314  0.00  0.00     0.050 C 
BRANCH  13  15
HETATM   15  N           1     -22.466  -5.846  -2.187  0.00  0.00    -0.067 N 
HETATM   16  H           1     -22.645  -4.910  -2.615  0.00  0.00     0.275 HD
HETATM   17  H           1     -23.295  -6.463  -2.339  0.00  0.00     0.275 HD
HETATM   18  H           1     -22.297  -5.735  -1.161  0.00  0.00     0.275 HD
ENDBRANCH  13  15
ENDBRANCH   2  13
TORSDOF 7
ENDMDL
MODEL 4
REMARK VINA RESULT:      -4.5     16.568     18.285
REMARK  7 active torsions:
REMARK  status: ('A' for Active; 'I' for Inactive)
REMARK    1  A    between atoms: C_4  and  C_5 
REMARK    2  A    between atoms: C_4  and  N_15 
REMARK       I    between atoms: C_5  and  N_6 
REMARK    3  A    between atoms: N_6  and  C_10 
REMARK    4  A    between atoms: C_9  and  C_10 
REMARK    5  A    between atoms: C_10  and  C_11 
REMARK    6  A    between atoms: C_11  and  C_12 
REMARK    7  A    between atoms: C_12  and  S_13 
ROOT
HETATM    1  H           1     -21.745  -7.090  -6.874  0.00  0.00     0.163 HD
HETATM    2  C           1     -21.068  -5.141  -6.715  0.00  0.00     0.248 C 
HETATM    3  N           1     -21.272  -6.422  -6.279  0.00  0.00    -0.345 N 
HETATM    4  O           1     -20.502  -4.343  -6.005  0.00  0.00    -0.271 OA
ENDROOT
BRANCH   3   5
HETATM    5  C           1     -20.808  -6.822  -4.964  0.00  0.00     0.186 C 
BRANCH   5   6
HETATM    6  C           1     -20.295  -8.241  -5.023  0.00  0.00     0.196 C 
HETATM    7  O           1     -20.848  -9.074  -5.773  0.00  0.00    -0.646 OA
HETATM    8  O           1     -19.319  -8.581  -4.321  0.00  0.00    -0.646 OA
ENDBRANCH   5   6
BRANCH   5   9
HETATM    9  C           1     -21.962  -6.739  -3.974  0.00  0.00     0.046 C 
BRANCH   9  10
HETATM   10  C           1     -21.483  -6.071  -2.691  0.00  0.00     0.076 C 
BRANCH  10  11
HETATM   11  S           1     -22.190  -6.935  -1.259  0.00  0.00    -0.173 SA
HETATM   12  C           1     -20.860  -8.158  -1.087  0.00  0.00     0.089 C 
ENDBRANCH  10  11
ENDBRANCH   9  10
ENDBRANCH   5   9
ENDBRANCH   3   5
BRANCH   2  13
HETATM   13  C           1     -21.549  -4.724  -8.083  0.00  0.00     0.270 C 
HETATM   14  C           1     -20.367  -4.246  -8.915  0.00  0.00     0.050 C 
BRANCH  13  15
HETATM   15  N           1     -22.545  -3.610  -7.944  0.00  0.00    -0.067 N 
HETATM   16  H           1     -23.448  -3.894  -8.386  0.00  0.00     0.275 HD
HETATM   17  H           1     -22.702  -3.406  -6.931  0.00  0.00     0.275 HD
HETATM   18  H           1     -22.177  -2.754  -8.418  0.00  0.00     0.275 HD
ENDBRANCH  13  15
ENDBRANCH   2  13
TORSDOF 7
ENDMDL
MODEL 5
REMARK VINA RESULT:      -4.3     18.716     20.166
REMARK  7 active torsions:
REMARK  status: ('A' for Active; 'I' for Inactive)
REMARK    1  A    between atoms: C_4  and  C_5 
REMARK    2  A    between atoms: C_4  and  N_15 
REMARK       I    between atoms: C_5  and  N_6 
REMARK    3  A    between atoms: N_6  and  C_10 
REMARK    4  A    between atoms: C_9  and  C_10 
REMARK    5  A    between atoms: C_10  and  C_11 
REMARK    6  A    between atoms: C_11  and  C_12 
REMARK    7  A    between atoms: C_12  and  S_13 
ROOT
HETATM    1  H           1     -22.487  -9.764  -1.763  0.00  0.00     0.163 HD
HETATM    2  C           1     -21.647 -10.423   0.010  0.00  0.00     0.248 C 
HETATM    3  N           1     -21.897  -9.512  -0.980  0.00  0.00    -0.345 N 
HETATM    4  O           1     -20.943 -10.122   0.945  0.00  0.00    -0.271 OA
ENDROOT
BRANCH   3   5
HETATM    5  C           1     -21.318  -8.184  -0.906  0.00  0.00     0.186 C 
BRANCH   5   6
HETATM    6  C           1     -22.417  -7.166  -0.724  0.00  0.00     0.196 C 
HETATM    7  O           1     -22.401  -6.105  -1.384  0.00  0.00    -0.646 OA
HETATM    8  O           1     -23.343  -7.384   0.087  0.00  0.00    -0.646 OA
ENDBRANCH   5   6
BRANCH   5   9
HETATM    9  C           1     -20.560  -7.890  -2.193  0.00  0.00     0.046 C 
BRANCH   9  10
HETATM   10  C           1     -21.160  -8.703  -3.334  0.00  0.00     0.076 C 
BRANCH  10  11
HETATM   11  S           1     -20.789  -7.893  -4.915  0.00  0.00    -0.173 SA
HETATM   12  C           1     -22.184  -6.733  -4.877  0.00  0.00     0.089 C 
ENDBRANCH  10  11
ENDBRANCH   9  10
ENDBRANCH   5   9
ENDBRANCH   3   5
BRANCH   2  13
HETATM   13  C           1     -22.249 -11.805  -0.066  0.00  0.00     0.270 C 
HETATM   14  C           1     -23.767 -11.702   0.008  0.00  0.00     0.050 C 
BRANCH  13  15
HETATM   15  N           1     -21.747 -12.633   1.080  0.00  0.00    -0.067 N 
HETATM   16  H           1     -22.554 -12.930   1.673  0.00  0.00     0.275 HD
HETATM   17  H           1     -21.257 -13.479   0.710  0.00  0.00     0.275 HD
HETATM   18  H           1     -21.081 -12.066   1.652  0.00  0.00     0.275 HD
ENDBRANCH  13  15
ENDBRANCH   2  13
TORSDOF 7
ENDMDL
MODEL 6
REMARK VINA RESULT:      -4.3      2.532      3.552
REMARK  7 active torsions:
REMARK  status: ('A' for Active; 'I' for Inactive)
REMARK    1  A    between atoms: C_4  and  C_5 
REMARK    2  A    between atoms: C_4  and  N_15 
REMARK       I    between atoms: C_5  and  N_6 
REMARK    3  A    between atoms: N_6  and  C_10 
REMARK    4  A    between atoms: C_9  and  C_10 
REMARK    5  A    between atoms: C_10  and  C_11 
REMARK    6  A    between atoms: C_11  and  C_12 
REMARK    7  A    between atoms: C_12  and  S_13 
ROOT
HETATM    1  H           1     -37.540  -1.338 -10.662  0.00  0.00     0.163 HD
HETATM    2  C           1     -36.797   0.312  -9.658  0.00  0.00     0.248 C 
HETATM    3  N           1     -36.742  -0.726 -10.548  0.00  0.00    -0.345 N 
HETATM    4  O           1     -35.844   1.043  -9.523  0.00  0.00    -0.271 OA
ENDROOT
BRANCH   3   5
HETATM    5  C           1     -35.540  -0.949 -11.328  0.00  0.00     0.186 C 
BRANCH   5   6
HETATM    6  C           1     -35.913  -1.168 -12.775  0.00  0.00     0.196 C 
HETATM    7  O           1     -37.090  -0.980 -13.151  0.00  0.00    -0.646 OA
HETATM    8  O           1     -35.045  -1.536 -13.594  0.00  0.00    -0.646 OA
ENDBRANCH   5   6
BRANCH   5   9
HETATM    9  C           1     -34.814  -2.179 -10.799  0.00  0.00     0.046 C 
BRANCH   9  10
HETATM   10  C           1     -35.710  -3.402 -10.948  0.00  0.00     0.076 C 
BRANCH  10  11
HETATM   11  S           1     -34.710  -4.826 -11.463  0.00  0.00    -0.173 SA
HETATM   12  C           1     -33.112  -3.966 -11.441  0.00  0.00     0.089 C 
ENDBRANCH  10  11
ENDBRANCH   9  10
ENDBRANCH   5   9
ENDBRANCH   3   5
BRANCH   2  13
HETATM   13  C           1     -38.047   0.545  -8.847  0.00  0.00     0.270 C 
HETATM   14  C           1     -38.074   1.987  -8.356  0.00  0.00     0.050 C 
BRANCH  13  15
HETATM   15  N           1     -38.058  -0.384  -7.668  0.00  0.00    -0.067 N 
HETATM   16  H           1     -37.166  -0.280  -7.135  0.00  0.00     0.275 HD
HETATM   17  H           1     -38.865  -0.149  -7.047  0.00  0.00     0.275 HD
HETATM   18  H           1     -38.152  -1.370  -8.004  0.00  0.00     0.275 HD
ENDBRANCH  13  15
ENDBRANCH   2  13
TORSDOF 7
ENDMDL
MODEL 7
REMARK VINA RESULT:      -4.2     17.243     18.896
REMARK  7 active torsions:
REMARK  status: ('A' for Active; 'I' for Inactive)
REMARK    1  A    between atoms: C_4  and  C_5 
REMARK    2  A    between atoms: C_4  and  N_15 
REMARK       I    between atoms: C_5  and  N_6 
REMARK    3  A    between atoms: N_6  and  C_10 
REMARK    4  A    between atoms: C_9  and  C_10 
REMARK    5  A    between atoms: C_10  and  C_11 
REMARK    6  A    between atoms: C_11  and  C_12 
REMARK    7  A    between atoms: C_12  and  S_13 
ROOT
HETATM    1  H           1     -19.743  -6.442  -4.800  0.00  0.00     0.163 HD
HETATM    2  C           1     -21.379  -5.541  -5.692  0.00  0.00     0.248 C 
HETATM    3  N           1     -20.753  -6.432  -4.863  0.00  0.00    -0.345 N 
HETATM    4  O           1     -22.585  -5.528  -5.766  0.00  0.00    -0.271 OA
ENDROOT
BRANCH   3   5
HETATM    5  C           1     -21.538  -7.362  -4.074  0.00  0.00     0.186 C 
BRANCH   5   6
HETATM    6  C           1     -21.630  -6.861  -2.653  0.00  0.00     0.196 C 
HETATM    7  O           1     -20.907  -7.364  -1.765  0.00  0.00    -0.646 OA
HETATM    8  O           1     -22.429  -5.945  -2.364  0.00  0.00    -0.646 OA
ENDBRANCH   5   6
BRANCH   5   9
HETATM    9  C           1     -20.868  -8.729  -4.088  0.00  0.00     0.046 C 
BRANCH   9  10
HETATM   10  C           1     -19.521  -8.629  -4.793  0.00  0.00     0.076 C 
BRANCH  10  11
HETATM   11  S           1     -18.265  -9.513  -3.827  0.00  0.00    -0.173 SA
HETATM   12  C           1     -19.427 -10.384  -2.738  0.00  0.00     0.089 C 
ENDBRANCH  10  11
ENDBRANCH   9  10
ENDBRANCH   5   9
ENDBRANCH   3   5
BRANCH   2  13
HETATM   13  C           1     -20.563  -4.573  -6.513  0.00  0.00     0.270 C 
HETATM   14  C           1     -21.493  -3.706  -7.351  0.00  0.00     0.050 C 
BRANCH  13  15
HETATM   15  N           1     -19.643  -5.338  -7.418  0.00  0.00    -0.067 N 
HETATM   16  H           1     -19.293  -4.706  -8.173  0.00  0.00     0.275 HD
HETATM   17  H           1     -18.833  -5.702  -6.866  0.00  0.00     0.275 HD
HETATM   18  H           1     -20.162  -6.138  -7.845  0.00  0.00     0.275 HD
ENDBRANCH  13  15
ENDBRANCH   2  13
TORSDOF 7
ENDMDL
MODEL 8
REMARK VINA RESULT:      -4.2     16.850     18.534
REMARK  7 active torsions:
REMARK  status: ('A' for Active; 'I' for Inactive)
REMARK    1  A    between atoms: C_4  and  C_5 
REMARK    2  A    between atoms: C_4  and  N_15 
REMARK       I    between atoms: C_5  and  N_6 
REMARK    3  A    between atoms: N_6  and  C_10 
REMARK    4  A    between atoms: C_9  and  C_10 
REMARK    5  A    between atoms: C_10  and  C_11 
REMARK    6  A    between atoms: C_11  and  C_12 
REMARK    7  A    between atoms: C_12  and  S_13 
ROOT
HETATM    1  H           1     -20.193  -6.864  -5.116  0.00  0.00     0.163 HD
HETATM    2  C           1     -22.011  -6.026  -5.643  0.00  0.00     0.248 C 
HETATM    3  N           1     -21.183  -6.832  -4.909  0.00  0.00    -0.345 N 
HETATM    4  O           1     -23.193  -5.987  -5.396  0.00  0.00    -0.271 OA
ENDROOT
BRANCH   3   5
HETATM    5  C           1     -21.726  -7.639  -3.833  0.00  0.00     0.186 C 
BRANCH   5   6
HETATM    6  C           1     -21.521  -6.926  -2.518  0.00  0.00     0.196 C 
HETATM    7  O           1     -22.242  -5.950  -2.219  0.00  0.00    -0.646 OA
HETATM    8  O           1     -20.632  -7.313  -1.731  0.00  0.00    -0.646 OA
ENDBRANCH   5   6
BRANCH   5   9
HETATM    9  C           1     -21.012  -8.984  -3.799  0.00  0.00     0.046 C 
BRANCH   9  10
HETATM   10  C           1     -22.009 -10.080  -3.444  0.00  0.00     0.076 C 
BRANCH  10  11
HETATM   11  S           1     -21.512 -10.869  -1.887  0.00  0.00    -0.173 SA
HETATM   12  C           1     -22.786 -10.092  -0.854  0.00  0.00     0.089 C 
ENDBRANCH  10  11
ENDBRANCH   9  10
ENDBRANCH   5   9
ENDBRANCH   3   5
BRANCH   2  13
HETATM   13  C           1     -21.447  -5.186  -6.763  0.00  0.00     0.270 C 
HETATM   14  C           1     -20.148  -4.536  -6.306  0.00  0.00     0.050 C 
BRANCH  13  15
HETATM   15  N           1     -22.435  -4.120  -7.135  0.00  0.00    -0.067 N 
HETATM   16  H           1     -22.916  -3.776  -6.273  0.00  0.00     0.275 HD
HETATM   17  H           1     -21.936  -3.326  -7.595  0.00  0.00     0.275 HD
HETATM   18  H           1     -23.142  -4.517  -7.795  0.00  0.00     0.275 HD
ENDBRANCH  13  15
ENDBRANCH   2  13
TORSDOF 7
ENDMDL
MODEL 9
REMARK VINA RESULT:      -4.0      4.050      5.337
REMARK  7 active torsions:
REMARK  status: ('A' for Active; 'I' for Inactive)
REMARK    1  A    between atoms: C_4  and  C_5 
REMARK    2  A    between atoms: C_4  and  N_15 
REMARK       I    between atoms: C_5  and  N_6 
REMARK    3  A    between atoms: N_6  and  C_10 
REMARK    4  A    between atoms: C_9  and  C_10 
REMARK    5  A    between atoms: C_10  and  C_11 
REMARK    6  A    between atoms: C_11  and  C_12 
REMARK    7  A    between atoms: C_12  and  S_13 
ROOT
HETATM    1  H           1     -33.608  -1.632 -10.954  0.00  0.00     0.163 HD
HETATM    2  C           1     -35.539  -2.375 -10.913  0.00  0.00     0.248 C 
HETATM    3  N           1     -34.174  -2.470 -10.920  0.00  0.00    -0.345 N 
HETATM    4  O           1     -36.215  -3.376 -10.871  0.00  0.00    -0.271 OA
ENDROOT
BRANCH   3   5
HETATM    5  C           1     -33.538  -3.773 -10.875  0.00  0.00     0.186 C 
BRANCH   5   6
HETATM    6  C           1     -32.970  -4.101 -12.234  0.00  0.00     0.196 C 
HETATM    7  O           1     -33.624  -3.836 -13.266  0.00  0.00    -0.646 OA
HETATM    8  O           1     -31.846  -4.639 -12.328  0.00  0.00    -0.646 OA
ENDBRANCH   5   6
BRANCH   5   9
HETATM    9  C           1     -34.567  -4.825 -10.486  0.00  0.00     0.046 C 
BRANCH   9  10
HETATM   10  C           1     -33.980  -6.215 -10.701  0.00  0.00     0.076 C 
BRANCH  10  11
HETATM   11  S           1     -34.994  -7.442  -9.829  0.00  0.00    -0.173 SA
HETATM   12  C           1     -33.784  -8.793  -9.906  0.00  0.00     0.089 C 
ENDBRANCH  10  11
ENDBRANCH   9  10
ENDBRANCH   5   9
ENDBRANCH   3   5
BRANCH   2  13
HETATM   13  C           1     -36.201  -1.020 -10.960  0.00  0.00     0.270 C 
HETATM   14  C           1     -35.551  -0.173 -12.046  0.00  0.00     0.050 C 
BRANCH  13  15
HETATM   15  N           1     -36.040  -0.339  -9.632  0.00  0.00    -0.067 N 
HETATM   16  H           1     -36.184  -1.035  -8.866  0.00  0.00     0.275 HD
HETATM   17  H           1     -35.078   0.063  -9.561  0.00  0.00     0.275 HD
HETATM   18  H           1     -36.746   0.427  -9.546  0.00  0.00     0.275 HD
ENDBRANCH  13  15
ENDBRANCH   2  13
TORSDOF 7
ENDMDL
