MODEL 1
REMARK VINA RESULT:      -7.5      0.000      0.000
REMARK  12 active torsions:
REMARK  status: ('A' for Active; 'I' for Inactive)
REMARK    1  A    between atoms: C_1  and  C_5 
REMARK    2  A    between atoms: C_4  and  O_21 
REMARK    3  A    between atoms: C_5  and  C_15 
REMARK    4  A    between atoms: C_6  and  C_12 
REMARK    5  A    between atoms: C_6  and  C_7 
REMARK    6  A    between atoms: N_10  and  C_13 
REMARK    7  A    between atoms: C_12  and  C_13 
REMARK    8  A    between atoms: C_13  and  C_14 
REMARK       I    between atoms: C_14  and  N_16 
REMARK    9  A    between atoms: C_15  and  C_18 
REMARK   10  A    between atoms: C_15  and  N_16 
REMARK   11  A    between atoms: P_20  and  O_21 
REMARK   12  A    between atoms: P_20  and  O_30 
ROOT
HETATM    1  C           1     -21.359  -7.468  -5.282  0.00  0.00     0.189 C 
ENDROOT
BRANCH   1   2
HETATM    2  C           1     -20.470  -6.263  -5.564  0.00  0.00     0.074 C 
BRANCH   2   3
HETATM    3  C           1     -20.994  -5.524  -6.755  0.00  0.00    -0.056 A 
HETATM    4  C           1     -20.239  -5.463  -7.926  0.00  0.00     0.010 A 
HETATM    5  C           1     -20.727  -4.775  -9.036  0.00  0.00     0.038 A 
HETATM    6  C           1     -21.972  -4.148  -8.976  0.00  0.00     0.081 A 
HETATM    7  C           1     -22.728  -4.210  -7.806  0.00  0.00     0.038 A 
HETATM    8  C           1     -22.239  -4.899  -6.695  0.00  0.00     0.010 A 
BRANCH   6   9
HETATM    9  O           1     -22.446  -3.479 -10.055  0.00  0.00    -0.247 OA
BRANCH   9  10
HETATM   10  P           1     -23.622  -4.172 -10.919  0.00  0.00     0.411 P 
HETATM   11  O           1     -24.789  -3.265 -10.983  0.00  0.00    -0.624 OA
HETATM   12  O           1     -24.021  -5.445 -10.277  0.00  0.00    -0.624 OA
BRANCH  10  13
HETATM   13  O           1     -23.088  -4.467 -12.415  0.00  0.00    -0.300 OA
HETATM   14  H           1     -22.346  -3.896 -12.525  0.00  0.00     0.223 HD
ENDBRANCH  10  13
ENDBRANCH   9  10
ENDBRANCH   6   9
ENDBRANCH   2   3
ENDBRANCH   1   2
BRANCH   1  15
HETATM   15  C           1     -20.502  -8.643  -4.881  0.00  0.00     0.197 C 
HETATM   16  O           1     -19.287  -8.477  -4.639  0.00  0.00    -0.646 OA
HETATM   17  O           1     -21.007  -9.783  -4.791  0.00  0.00    -0.646 OA
ENDBRANCH   1  15
BRANCH   1  18
HETATM   18  N           1     -22.277  -7.150  -4.206  0.00  0.00    -0.344 N 
HETATM   19  H           1     -23.275  -7.200  -4.362  0.00  0.00     0.163 HD
HETATM   20  C           1     -21.793  -6.781  -2.980  0.00  0.00     0.249 C 
HETATM   21  O           1     -21.582  -5.616  -2.738  0.00  0.00    -0.271 OA
BRANCH  20  22
HETATM   22  C           1     -21.522  -7.830  -1.930  0.00  0.00     0.275 C 
BRANCH  22  23
HETATM   23  N           1     -20.048  -7.900  -1.661  0.00  0.00    -0.066 N 
HETATM   24  H           1     -19.822  -8.800  -1.180  0.00  0.00     0.275 HD
HETATM   25  H           1     -19.526  -7.849  -2.566  0.00  0.00     0.275 HD
HETATM   26  H           1     -19.767  -7.099  -1.051  0.00  0.00     0.275 HD
ENDBRANCH  22  23
BRANCH  22  27
HETATM   27  C           1     -22.254  -7.464  -0.644  0.00  0.00     0.053 C 
BRANCH  27  28
HETATM   28  C           1     -21.898  -8.465   0.446  0.00  0.00     0.115 C 
BRANCH  28  29
HETATM   29  C           1     -22.459  -9.819   0.089  0.00  0.00     0.172 C 
HETATM   30  O           1     -23.687  -9.958  -0.098  0.00  0.00    -0.648 OA
HETATM   31  O           1     -21.695 -10.803  -0.021  0.00  0.00    -0.648 OA
ENDBRANCH  28  29
ENDBRANCH  27  28
ENDBRANCH  22  27
ENDBRANCH  20  22
ENDBRANCH   1  18
TORSDOF 12
ENDMDL
MODEL 2
REMARK VINA RESULT:      -6.9      1.398      2.071
REMARK  12 active torsions:
REMARK  status: ('A' for Active; 'I' for Inactive)
REMARK    1  A    between atoms: C_1  and  C_5 
REMARK    2  A    between atoms: C_4  and  O_21 
REMARK    3  A    between atoms: C_5  and  C_15 
REMARK    4  A    between atoms: C_6  and  C_12 
REMARK    5  A    between atoms: C_6  and  C_7 
REMARK    6  A    between atoms: N_10  and  C_13 
REMARK    7  A    between atoms: C_12  and  C_13 
REMARK    8  A    between atoms: C_13  and  C_14 
REMARK       I    between atoms: C_14  and  N_16 
REMARK    9  A    between atoms: C_15  and  C_18 
REMARK   10  A    between atoms: C_15  and  N_16 
REMARK   11  A    between atoms: P_20  and  O_21 
REMARK   12  A    between atoms: P_20  and  O_30 
ROOT
HETATM    1  C           1     -21.064  -6.655  -5.004  0.00  0.00     0.189 C 
ENDROOT
BRANCH   1   2
HETATM    2  C           1     -20.235  -5.483  -5.512  0.00  0.00     0.074 C 
BRANCH   2   3
HETATM    3  C           1     -20.805  -4.990  -6.805  0.00  0.00    -0.056 A 
HETATM    4  C           1     -22.081  -4.429  -6.837  0.00  0.00     0.010 A 
HETATM    5  C           1     -22.611  -3.970  -8.042  0.00  0.00     0.038 A 
HETATM    6  C           1     -21.865  -4.071  -9.216  0.00  0.00     0.081 A 
HETATM    7  C           1     -20.588  -4.631  -9.185  0.00  0.00     0.038 A 
HETATM    8  C           1     -20.058  -5.091  -7.979  0.00  0.00     0.010 A 
BRANCH   6   9
HETATM    9  O           1     -22.381  -3.625 -10.387  0.00  0.00    -0.247 OA
BRANCH   9  10
HETATM   10  P           1     -23.749  -4.299 -10.919  0.00  0.00     0.411 P 
HETATM   11  O           1     -24.000  -5.557 -10.180  0.00  0.00    -0.624 OA
HETATM   12  O           1     -23.624  -4.594 -12.364  0.00  0.00    -0.624 OA
BRANCH  10  13
HETATM   13  O           1     -24.979  -3.281 -10.679  0.00  0.00    -0.300 OA
HETATM   14  H           1     -24.694  -2.713  -9.983  0.00  0.00     0.223 HD
ENDBRANCH  10  13
ENDBRANCH   9  10
ENDBRANCH   6   9
ENDBRANCH   2   3
ENDBRANCH   1   2
BRANCH   1  15
HETATM   15  C           1     -20.550  -7.937  -5.612  0.00  0.00     0.197 C 
HETATM   16  O           1     -21.340  -8.876  -5.849  0.00  0.00    -0.646 OA
HETATM   17  O           1     -19.335  -8.059  -5.877  0.00  0.00    -0.646 OA
ENDBRANCH   1  15
BRANCH   1  18
HETATM   18  N           1     -20.961  -6.729  -3.560  0.00  0.00    -0.344 N 
HETATM   19  H           1     -20.985  -5.882  -3.007  0.00  0.00     0.163 HD
HETATM   20  C           1     -20.831  -7.944  -2.944  0.00  0.00     0.249 C 
HETATM   21  O           1     -19.733  -8.406  -2.743  0.00  0.00    -0.271 OA
BRANCH  20  22
HETATM   22  C           1     -22.060  -8.709  -2.517  0.00  0.00     0.275 C 
BRANCH  22  23
HETATM   23  N           1     -21.991 -10.108  -3.053  0.00  0.00    -0.066 N 
HETATM   24  H           1     -21.629 -10.749  -2.311  0.00  0.00     0.275 HD
HETATM   25  H           1     -22.945 -10.417  -3.345  0.00  0.00     0.275 HD
HETATM   26  H           1     -21.348 -10.133  -3.878  0.00  0.00     0.275 HD
ENDBRANCH  22  23
BRANCH  22  27
HETATM   27  C           1     -22.129  -8.752  -0.995  0.00  0.00     0.053 C 
BRANCH  27  28
HETATM   28  C           1     -22.062 -10.197  -0.524  0.00  0.00     0.115 C 
BRANCH  28  29
HETATM   29  C           1     -20.769 -10.425   0.219  0.00  0.00     0.172 C 
HETATM   30  O           1     -20.641 -10.012   1.392  0.00  0.00    -0.648 OA
HETATM   31  O           1     -19.826 -11.028  -0.337  0.00  0.00    -0.648 OA
ENDBRANCH  28  29
ENDBRANCH  27  28
ENDBRANCH  22  27
ENDBRANCH  20  22
ENDBRANCH   1  18
TORSDOF 12
ENDMDL
MODEL 3
REMARK VINA RESULT:      -6.9      3.382      8.854
REMARK  12 active torsions:
REMARK  status: ('A' for Active; 'I' for Inactive)
REMARK    1  A    between atoms: C_1  and  C_5 
REMARK    2  A    between atoms: C_4  and  O_21 
REMARK    3  A    between atoms: C_5  and  C_15 
REMARK    4  A    between atoms: C_6  and  C_12 
REMARK    5  A    between atoms: C_6  and  C_7 
REMARK    6  A    between atoms: N_10  and  C_13 
REMARK    7  A    between atoms: C_12  and  C_13 
REMARK    8  A    between atoms: C_13  and  C_14 
REMARK       I    between atoms: C_14  and  N_16 
REMARK    9  A    between atoms: C_15  and  C_18 
REMARK   10  A    between atoms: C_15  and  N_16 
REMARK   11  A    between atoms: P_20  and  O_21 
REMARK   12  A    between atoms: P_20  and  O_30 
ROOT
HETATM    1  C           1     -21.104  -7.051  -5.954  0.00  0.00     0.189 C 
ENDROOT
BRANCH   1   2
HETATM    2  C           1     -19.893  -7.778  -5.383  0.00  0.00     0.074 C 
BRANCH   2   3
HETATM    3  C           1     -20.345  -8.775  -4.362  0.00  0.00    -0.056 A 
HETATM    4  C           1     -19.714  -8.837  -3.120  0.00  0.00     0.010 A 
HETATM    5  C           1     -20.136  -9.765  -2.169  0.00  0.00     0.038 A 
HETATM    6  C           1     -21.190 -10.632  -2.459  0.00  0.00     0.081 A 
HETATM    7  C           1     -21.823 -10.569  -3.700  0.00  0.00     0.038 A 
HETATM    8  C           1     -21.400  -9.640  -4.652  0.00  0.00     0.010 A 
BRANCH   6   9
HETATM    9  O           1     -21.599 -11.533  -1.534  0.00  0.00    -0.247 OA
BRANCH   9  10
HETATM   10  P           1     -22.283 -10.974  -0.182  0.00  0.00     0.411 P 
HETATM   11  O           1     -21.235 -10.711   0.830  0.00  0.00    -0.624 OA
HETATM   12  O           1     -23.232 -11.981   0.344  0.00  0.00    -0.624 OA
BRANCH  10  13
HETATM   13  O           1     -23.073  -9.603  -0.505  0.00  0.00    -0.300 OA
HETATM   14  H           1     -22.830  -9.013   0.188  0.00  0.00     0.223 HD
ENDBRANCH  10  13
ENDBRANCH   9  10
ENDBRANCH   6   9
ENDBRANCH   2   3
ENDBRANCH   1   2
BRANCH   1  15
HETATM   15  C           1     -21.745  -6.215  -4.873  0.00  0.00     0.197 C 
HETATM   16  O           1     -21.031  -5.619  -4.038  0.00  0.00    -0.646 OA
HETATM   17  O           1     -22.990  -6.119  -4.814  0.00  0.00    -0.646 OA
ENDBRANCH   1  15
BRANCH   1  18
HETATM   18  N           1     -20.681  -6.192  -7.043  0.00  0.00    -0.344 N 
HETATM   19  H           1     -19.952  -6.498  -7.675  0.00  0.00     0.163 HD
HETATM   20  C           1     -21.266  -4.967  -7.215  0.00  0.00     0.249 C 
HETATM   21  O           1     -20.804  -3.993  -6.669  0.00  0.00    -0.271 OA
BRANCH  20  22
HETATM   22  C           1     -22.491  -4.833  -8.087  0.00  0.00     0.275 C 
BRANCH  22  23
HETATM   23  N           1     -23.650  -4.372  -7.254  0.00  0.00    -0.066 N 
HETATM   24  H           1     -23.298  -3.980  -6.352  0.00  0.00     0.275 HD
HETATM   25  H           1     -24.180  -3.635  -7.772  0.00  0.00     0.275 HD
HETATM   26  H           1     -24.282  -5.183  -7.058  0.00  0.00     0.275 HD
ENDBRANCH  22  23
BRANCH  22  27
HETATM   27  C           1     -22.222  -3.813  -9.188  0.00  0.00     0.053 C 
BRANCH  27  28
HETATM   28  C           1     -22.258  -4.506 -10.542  0.00  0.00     0.115 C 
BRANCH  28  29
HETATM   29  C           1     -23.660  -4.453 -11.098  0.00  0.00     0.172 C 
HETATM   30  O           1     -23.870  -4.747 -12.295  0.00  0.00    -0.648 OA
HETATM   31  O           1     -24.612  -4.116 -10.361  0.00  0.00    -0.648 OA
ENDBRANCH  28  29
ENDBRANCH  27  28
ENDBRANCH  22  27
ENDBRANCH  20  22
ENDBRANCH   1  18
TORSDOF 12
ENDMDL
MODEL 4
REMARK VINA RESULT:      -6.8      3.361      8.706
REMARK  12 active torsions:
REMARK  status: ('A' for Active; 'I' for Inactive)
REMARK    1  A    between atoms: C_1  and  C_5 
REMARK    2  A    between atoms: C_4  and  O_21 
REMARK    3  A    between atoms: C_5  and  C_15 
REMARK    4  A    between atoms: C_6  and  C_12 
REMARK    5  A    between atoms: C_6  and  C_7 
REMARK    6  A    between atoms: N_10  and  C_13 
REMARK    7  A    between atoms: C_12  and  C_13 
REMARK    8  A    between atoms: C_13  and  C_14 
REMARK       I    between atoms: C_14  and  N_16 
REMARK    9  A    between atoms: C_15  and  C_18 
REMARK   10  A    between atoms: C_15  and  N_16 
REMARK   11  A    between atoms: P_20  and  O_21 
REMARK   12  A    between atoms: P_20  and  O_30 
ROOT
HETATM    1  C           1     -20.857  -4.802  -6.088  0.00  0.00     0.189 C 
ENDROOT
BRANCH   1   2
HETATM    2  C           1     -21.886  -5.920  -5.978  0.00  0.00     0.074 C 
BRANCH   2   3
HETATM    3  C           1     -21.616  -6.728  -4.747  0.00  0.00    -0.056 A 
HETATM    4  C           1     -21.510  -8.115  -4.833  0.00  0.00     0.010 A 
HETATM    5  C           1     -21.257  -8.868  -3.686  0.00  0.00     0.038 A 
HETATM    6  C           1     -21.111  -8.233  -2.453  0.00  0.00     0.081 A 
HETATM    7  C           1     -21.215  -6.844  -2.367  0.00  0.00     0.038 A 
HETATM    8  C           1     -21.468  -6.092  -3.514  0.00  0.00     0.010 A 
BRANCH   6   9
HETATM    9  O           1     -20.865  -8.965  -1.339  0.00  0.00    -0.247 OA
BRANCH   9  10
HETATM   10  P           1     -22.130  -9.479  -0.476  0.00  0.00     0.411 P 
HETATM   11  O           1     -21.652 -10.291   0.665  0.00  0.00    -0.624 OA
HETATM   12  O           1     -23.009 -10.305  -1.335  0.00  0.00    -0.624 OA
BRANCH  10  13
HETATM   13  O           1     -22.956  -8.207   0.078  0.00  0.00    -0.300 OA
HETATM   14  H           1     -22.562  -7.460  -0.340  0.00  0.00     0.223 HD
ENDBRANCH  10  13
ENDBRANCH   9  10
ENDBRANCH   6   9
ENDBRANCH   2   3
ENDBRANCH   1   2
BRANCH   1  15
HETATM   15  C           1     -19.642  -5.307  -6.827  0.00  0.00     0.197 C 
HETATM   16  O           1     -19.602  -6.490  -7.228  0.00  0.00    -0.646 OA
HETATM   17  O           1     -18.677  -4.542  -7.038  0.00  0.00    -0.646 OA
ENDBRANCH   1  15
BRANCH   1  18
HETATM   18  N           1     -21.433  -3.685  -6.810  0.00  0.00    -0.344 N 
HETATM   19  H           1     -21.418  -2.758  -6.404  0.00  0.00     0.163 HD
HETATM   20  C           1     -21.998  -3.884  -8.041  0.00  0.00     0.249 C 
HETATM   21  O           1     -23.171  -4.156  -8.131  0.00  0.00    -0.271 OA
BRANCH  20  22
HETATM   22  C           1     -21.153  -3.764  -9.286  0.00  0.00     0.275 C 
BRANCH  22  23
HETATM   23  N           1     -20.529  -5.092  -9.598  0.00  0.00    -0.066 N 
HETATM   24  H           1     -19.892  -4.994 -10.419  0.00  0.00     0.275 HD
HETATM   25  H           1     -19.983  -5.423  -8.770  0.00  0.00     0.275 HD
HETATM   26  H           1     -21.280  -5.785  -9.820  0.00  0.00     0.275 HD
ENDBRANCH  22  23
BRANCH  22  27
HETATM   27  C           1     -22.029  -3.329 -10.455  0.00  0.00     0.053 C 
BRANCH  27  28
HETATM   28  C           1     -22.032  -4.416 -11.519  0.00  0.00     0.115 C 
BRANCH  28  29
HETATM   29  C           1     -23.426  -4.976 -11.663  0.00  0.00     0.172 C 
HETATM   30  O           1     -24.022  -4.896 -12.759  0.00  0.00    -0.648 OA
HETATM   31  O           1     -23.985  -5.520 -10.686  0.00  0.00    -0.648 OA
ENDBRANCH  28  29
ENDBRANCH  27  28
ENDBRANCH  22  27
ENDBRANCH  20  22
ENDBRANCH   1  18
TORSDOF 12
ENDMDL
MODEL 5
REMARK VINA RESULT:      -6.6      3.311      7.261
REMARK  12 active torsions:
REMARK  status: ('A' for Active; 'I' for Inactive)
REMARK    1  A    between atoms: C_1  and  C_5 
REMARK    2  A    between atoms: C_4  and  O_21 
REMARK    3  A    between atoms: C_5  and  C_15 
REMARK    4  A    between atoms: C_6  and  C_12 
REMARK    5  A    between atoms: C_6  and  C_7 
REMARK    6  A    between atoms: N_10  and  C_13 
REMARK    7  A    between atoms: C_12  and  C_13 
REMARK    8  A    between atoms: C_13  and  C_14 
REMARK       I    between atoms: C_14  and  N_16 
REMARK    9  A    between atoms: C_15  and  C_18 
REMARK   10  A    between atoms: C_15  and  N_16 
REMARK   11  A    between atoms: P_20  and  O_21 
REMARK   12  A    between atoms: P_20  and  O_30 
ROOT
HETATM    1  C           1     -21.453  -8.551  -1.460  0.00  0.00     0.189 C 
ENDROOT
BRANCH   1   2
HETATM    2  C           1     -20.323  -9.572  -1.453  0.00  0.00     0.074 C 
BRANCH   2   3
HETATM    3  C           1     -19.943  -9.907  -2.861  0.00  0.00    -0.056 A 
HETATM    4  C           1     -18.651  -9.647  -3.316  0.00  0.00     0.010 A 
HETATM    5  C           1     -18.297  -9.960  -4.628  0.00  0.00     0.038 A 
HETATM    6  C           1     -19.236 -10.533  -5.486  0.00  0.00     0.081 A 
HETATM    7  C           1     -20.528 -10.794  -5.031  0.00  0.00     0.038 A 
HETATM    8  C           1     -20.882 -10.481  -3.718  0.00  0.00     0.010 A 
BRANCH   6   9
HETATM    9  O           1     -18.891 -10.837  -6.761  0.00  0.00    -0.247 OA
BRANCH   9  10
HETATM   10  P           1     -18.156 -12.249  -7.031  0.00  0.00     0.411 P 
HETATM   11  O           1     -16.692 -12.078  -6.892  0.00  0.00    -0.624 OA
HETATM   12  O           1     -18.469 -12.714  -8.401  0.00  0.00    -0.624 OA
BRANCH  10  13
HETATM   13  O           1     -18.674 -13.340  -5.959  0.00  0.00    -0.300 OA
HETATM   14  H           1     -18.055 -13.296  -5.249  0.00  0.00     0.223 HD
ENDBRANCH  10  13
ENDBRANCH   9  10
ENDBRANCH   6   9
ENDBRANCH   2   3
ENDBRANCH   1   2
BRANCH   1  15
HETATM   15  C           1     -21.865  -8.245  -0.041  0.00  0.00     0.197 C 
HETATM   16  O           1     -21.072  -8.463   0.900  0.00  0.00    -0.646 OA
HETATM   17  O           1     -22.999  -7.774   0.192  0.00  0.00    -0.646 OA
ENDBRANCH   1  15
BRANCH   1  18
HETATM   18  N           1     -21.000  -7.335  -2.105  0.00  0.00    -0.344 N 
HETATM   19  H           1     -20.067  -6.985  -1.928  0.00  0.00     0.163 HD
HETATM   20  C           1     -21.834  -6.658  -2.954  0.00  0.00     0.249 C 
HETATM   21  O           1     -22.566  -5.798  -2.525  0.00  0.00    -0.271 OA
BRANCH  20  22
HETATM   22  C           1     -21.839  -6.987  -4.427  0.00  0.00     0.275 C 
BRANCH  22  23
HETATM   23  N           1     -22.867  -6.146  -5.124  0.00  0.00    -0.066 N 
HETATM   24  H           1     -22.972  -5.236  -4.622  0.00  0.00     0.275 HD
HETATM   25  H           1     -22.562  -5.968  -6.107  0.00  0.00     0.275 HD
HETATM   26  H           1     -23.784  -6.649  -5.128  0.00  0.00     0.275 HD
ENDBRANCH  22  23
BRANCH  22  27
HETATM   27  C           1     -20.464  -6.699  -5.017  0.00  0.00     0.053 C 
BRANCH  27  28
HETATM   28  C           1     -20.388  -5.239  -5.440  0.00  0.00     0.115 C 
BRANCH  28  29
HETATM   29  C           1     -20.117  -5.159  -6.922  0.00  0.00     0.172 C 
HETATM   30  O           1     -19.050  -4.653  -7.336  0.00  0.00    -0.648 OA
HETATM   31  O           1     -20.957  -5.597  -7.737  0.00  0.00    -0.648 OA
ENDBRANCH  28  29
ENDBRANCH  27  28
ENDBRANCH  22  27
ENDBRANCH  20  22
ENDBRANCH   1  18
TORSDOF 12
ENDMDL
MODEL 6
REMARK VINA RESULT:      -6.5      3.348      7.686
REMARK  12 active torsions:
REMARK  status: ('A' for Active; 'I' for Inactive)
REMARK    1  A    between atoms: C_1  and  C_5 
REMARK    2  A    between atoms: C_4  and  O_21 
REMARK    3  A    between atoms: C_5  and  C_15 
REMARK    4  A    between atoms: C_6  and  C_12 
REMARK    5  A    between atoms: C_6  and  C_7 
REMARK    6  A    between atoms: N_10  and  C_13 
REMARK    7  A    between atoms: C_12  and  C_13 
REMARK    8  A    between atoms: C_13  and  C_14 
REMARK       I    between atoms: C_14  and  N_16 
REMARK    9  A    between atoms: C_15  and  C_18 
REMARK   10  A    between atoms: C_15  and  N_16 
REMARK   11  A    between atoms: P_20  and  O_21 
REMARK   12  A    between atoms: P_20  and  O_30 
ROOT
HETATM    1  C           1     -21.458  -7.754  -2.300  0.00  0.00     0.189 C 
ENDROOT
BRANCH   1   2
HETATM    2  C           1     -20.020  -8.127  -1.966  0.00  0.00     0.074 C 
BRANCH   2   3
HETATM    3  C           1     -19.596  -9.289  -2.810  0.00  0.00    -0.056 A 
HETATM    4  C           1     -20.554 -10.152  -3.341  0.00  0.00     0.010 A 
HETATM    5  C           1     -20.159 -11.233  -4.128  0.00  0.00     0.038 A 
HETATM    6  C           1     -18.805 -11.452  -4.385  0.00  0.00     0.081 A 
HETATM    7  C           1     -17.847 -10.587  -3.855  0.00  0.00     0.038 A 
HETATM    8  C           1     -18.243  -9.506  -3.068  0.00  0.00     0.010 A 
BRANCH   6   9
HETATM    9  O           1     -18.422 -12.503  -5.149  0.00  0.00    -0.247 OA
BRANCH   9  10
HETATM   10  P           1     -17.900 -12.199  -6.647  0.00  0.00     0.411 P 
HETATM   11  O           1     -16.469 -11.825  -6.606  0.00  0.00    -0.624 OA
HETATM   12  O           1     -18.684 -11.085  -7.226  0.00  0.00    -0.624 OA
BRANCH  10  13
HETATM   13  O           1     -18.084 -13.520  -7.559  0.00  0.00    -0.300 OA
HETATM   14  H           1     -17.591 -13.345  -8.343  0.00  0.00     0.223 HD
ENDBRANCH  10  13
ENDBRANCH   9  10
ENDBRANCH   6   9
ENDBRANCH   2   3
ENDBRANCH   1   2
BRANCH   1  15
HETATM   15  C           1     -22.284  -7.749  -1.037  0.00  0.00     0.197 C 
HETATM   16  O           1     -22.675  -6.666  -0.551  0.00  0.00    -0.646 OA
HETATM   17  O           1     -22.576  -8.828  -0.478  0.00  0.00    -0.646 OA
ENDBRANCH   1  15
BRANCH   1  18
HETATM   18  N           1     -21.487  -6.435  -2.902  0.00  0.00    -0.344 N 
HETATM   19  H           1     -21.393  -5.612  -2.321  0.00  0.00     0.163 HD
HETATM   20  C           1     -21.642  -6.303  -4.255  0.00  0.00     0.249 C 
HETATM   21  O           1     -22.749  -6.213  -4.731  0.00  0.00    -0.271 OA
BRANCH  20  22
HETATM   22  C           1     -20.430  -6.271  -5.153  0.00  0.00     0.275 C 
BRANCH  22  23
HETATM   23  N           1     -20.545  -7.351  -6.188  0.00  0.00    -0.066 N 
HETATM   24  H           1     -21.298  -8.021  -5.912  0.00  0.00     0.275 HD
HETATM   25  H           1     -20.780  -6.924  -7.112  0.00  0.00     0.275 HD
HETATM   26  H           1     -19.635  -7.862  -6.261  0.00  0.00     0.275 HD
ENDBRANCH  22  23
BRANCH  22  27
HETATM   27  C           1     -20.344  -4.916  -5.843  0.00  0.00     0.053 C 
BRANCH  27  28
HETATM   28  C           1     -19.618  -5.067  -7.173  0.00  0.00     0.115 C 
BRANCH  28  29
HETATM   29  C           1     -20.569  -4.759  -8.303  0.00  0.00     0.172 C 
HETATM   30  O           1     -21.759  -5.137  -8.240  0.00  0.00    -0.648 OA
HETATM   31  O           1     -20.166  -4.126  -9.303  0.00  0.00    -0.648 OA
ENDBRANCH  28  29
ENDBRANCH  27  28
ENDBRANCH  22  27
ENDBRANCH  20  22
ENDBRANCH   1  18
TORSDOF 12
ENDMDL
MODEL 7
REMARK VINA RESULT:      -6.5      3.165      5.703
REMARK  12 active torsions:
REMARK  status: ('A' for Active; 'I' for Inactive)
REMARK    1  A    between atoms: C_1  and  C_5 
REMARK    2  A    between atoms: C_4  and  O_21 
REMARK    3  A    between atoms: C_5  and  C_15 
REMARK    4  A    between atoms: C_6  and  C_12 
REMARK    5  A    between atoms: C_6  and  C_7 
REMARK    6  A    between atoms: N_10  and  C_13 
REMARK    7  A    between atoms: C_12  and  C_13 
REMARK    8  A    between atoms: C_13  and  C_14 
REMARK       I    between atoms: C_14  and  N_16 
REMARK    9  A    between atoms: C_15  and  C_18 
REMARK   10  A    between atoms: C_15  and  N_16 
REMARK   11  A    between atoms: P_20  and  O_21 
REMARK   12  A    between atoms: P_20  and  O_30 
ROOT
HETATM    1  C           1     -20.736  -9.700  -1.116  0.00  0.00     0.189 C 
ENDROOT
BRANCH   1   2
HETATM    2  C           1     -21.905  -9.435  -2.057  0.00  0.00     0.074 C 
BRANCH   2   3
HETATM    3  C           1     -21.565  -8.296  -2.967  0.00  0.00    -0.056 A 
HETATM    4  C           1     -21.232  -8.543  -4.298  0.00  0.00     0.010 A 
HETATM    5  C           1     -20.917  -7.482  -5.147  0.00  0.00     0.038 A 
HETATM    6  C           1     -20.934  -6.174  -4.663  0.00  0.00     0.081 A 
HETATM    7  C           1     -21.268  -5.926  -3.332  0.00  0.00     0.038 A 
HETATM    8  C           1     -21.583  -6.988  -2.484  0.00  0.00     0.010 A 
BRANCH   6   9
HETATM    9  O           1     -20.627  -5.143  -5.488  0.00  0.00    -0.247 OA
BRANCH   9  10
HETATM   10  P           1     -21.648  -4.807  -6.694  0.00  0.00     0.411 P 
HETATM   11  O           1     -23.032  -5.111  -6.268  0.00  0.00    -0.624 OA
HETATM   12  O           1     -21.304  -5.631  -7.875  0.00  0.00    -0.624 OA
BRANCH  10  13
HETATM   13  O           1     -21.535  -3.242  -7.075  0.00  0.00    -0.300 OA
HETATM   14  H           1     -22.392  -2.888  -6.906  0.00  0.00     0.223 HD
ENDBRANCH  10  13
ENDBRANCH   9  10
ENDBRANCH   6   9
ENDBRANCH   2   3
ENDBRANCH   1   2
BRANCH   1  15
HETATM   15  C           1     -21.199  -9.561   0.314  0.00  0.00     0.197 C 
HETATM   16  O           1     -22.175  -8.831   0.586  0.00  0.00    -0.646 OA
HETATM   17  O           1     -20.604 -10.177   1.225  0.00  0.00    -0.646 OA
ENDBRANCH   1  15
BRANCH   1  18
HETATM   18  N           1     -20.236 -11.043  -1.334  0.00  0.00    -0.344 N 
HETATM   19  H           1     -20.873 -11.829  -1.318  0.00  0.00     0.163 HD
HETATM   20  C           1     -18.902 -11.248  -1.561  0.00  0.00     0.249 C 
HETATM   21  O           1     -18.154 -11.446  -0.634  0.00  0.00    -0.271 OA
BRANCH  20  22
HETATM   22  C           1     -18.366 -11.226  -2.972  0.00  0.00     0.275 C 
BRANCH  22  23
HETATM   23  N           1     -19.432 -11.691  -3.920  0.00  0.00    -0.066 N 
HETATM   24  H           1     -20.093 -10.905  -4.114  0.00  0.00     0.275 HD
HETATM   25  H           1     -18.990 -12.004  -4.813  0.00  0.00     0.275 HD
HETATM   26  H           1     -19.956 -12.488  -3.491  0.00  0.00     0.275 HD
ENDBRANCH  22  23
BRANCH  22  27
HETATM   27  C           1     -17.949  -9.806  -3.335  0.00  0.00     0.053 C 
BRANCH  27  28
HETATM   28  C           1     -16.652  -9.845  -4.132  0.00  0.00     0.115 C 
BRANCH  28  29
HETATM   29  C           1     -16.962  -9.732  -5.604  0.00  0.00     0.172 C 
HETATM   30  O           1     -18.150  -9.672  -5.990  0.00  0.00    -0.648 OA
HETATM   31  O           1     -16.032  -9.700  -6.438  0.00  0.00    -0.648 OA
ENDBRANCH  28  29
ENDBRANCH  27  28
ENDBRANCH  22  27
ENDBRANCH  20  22
ENDBRANCH   1  18
TORSDOF 12
ENDMDL
MODEL 8
REMARK VINA RESULT:      -6.4      3.256      4.740
REMARK  12 active torsions:
REMARK  status: ('A' for Active; 'I' for Inactive)
REMARK    1  A    between atoms: C_1  and  C_5 
REMARK    2  A    between atoms: C_4  and  O_21 
REMARK    3  A    between atoms: C_5  and  C_15 
REMARK    4  A    between atoms: C_6  and  C_12 
REMARK    5  A    between atoms: C_6  and  C_7 
REMARK    6  A    between atoms: N_10  and  C_13 
REMARK    7  A    between atoms: C_12  and  C_13 
REMARK    8  A    between atoms: C_13  and  C_14 
REMARK       I    between atoms: C_14  and  N_16 
REMARK    9  A    between atoms: C_15  and  C_18 
REMARK   10  A    between atoms: C_15  and  N_16 
REMARK   11  A    between atoms: P_20  and  O_21 
REMARK   12  A    between atoms: P_20  and  O_30 
ROOT
HETATM    1  C           1     -19.220 -10.279  -2.370  0.00  0.00     0.189 C 
ENDROOT
BRANCH   1   2
HETATM    2  C           1     -19.630  -8.930  -1.794  0.00  0.00     0.074 C 
BRANCH   2   3
HETATM    3  C           1     -20.342  -8.135  -2.844  0.00  0.00    -0.056 A 
HETATM    4  C           1     -21.143  -7.054  -2.477  0.00  0.00     0.010 A 
HETATM    5  C           1     -21.805  -6.313  -3.455  0.00  0.00     0.038 A 
HETATM    6  C           1     -21.668  -6.653  -4.801  0.00  0.00     0.081 A 
HETATM    7  C           1     -20.866  -7.734  -5.168  0.00  0.00     0.038 A 
HETATM    8  C           1     -20.203  -8.475  -4.190  0.00  0.00     0.010 A 
BRANCH   6   9
HETATM    9  O           1     -22.312  -5.933  -5.751  0.00  0.00    -0.247 OA
BRANCH   9  10
HETATM   10  P           1     -21.421  -5.028  -6.749  0.00  0.00     0.411 P 
HETATM   11  O           1     -20.331  -4.379  -5.988  0.00  0.00    -0.624 OA
HETATM   12  O           1     -22.276  -3.989  -7.368  0.00  0.00    -0.624 OA
BRANCH  10  13
HETATM   13  O           1     -20.788  -5.964  -7.903  0.00  0.00    -0.300 OA
HETATM   14  H           1     -20.316  -5.372  -8.465  0.00  0.00     0.223 HD
ENDBRANCH  10  13
ENDBRANCH   9  10
ENDBRANCH   6   9
ENDBRANCH   2   3
ENDBRANCH   1   2
BRANCH   1  15
HETATM   15  C           1     -17.719 -10.421  -2.302  0.00  0.00     0.197 C 
HETATM   16  O           1     -17.206 -11.267  -1.538  0.00  0.00    -0.646 OA
HETATM   17  O           1     -16.990  -9.692  -3.008  0.00  0.00    -0.646 OA
ENDBRANCH   1  15
BRANCH   1  18
HETATM   18  N           1     -19.841 -11.340  -1.602  0.00  0.00    -0.344 N 
HETATM   19  H           1     -19.421 -11.649  -0.735  0.00  0.00     0.163 HD
HETATM   20  C           1     -20.994 -11.925  -2.051  0.00  0.00     0.249 C 
HETATM   21  O           1     -20.941 -12.891  -2.773  0.00  0.00    -0.271 OA
BRANCH  20  22
HETATM   22  C           1     -22.333 -11.361  -1.642  0.00  0.00     0.275 C 
BRANCH  22  23
HETATM   23  N           1     -23.359 -12.455  -1.645  0.00  0.00    -0.066 N 
HETATM   24  H           1     -23.813 -12.507  -2.584  0.00  0.00     0.275 HD
HETATM   25  H           1     -22.895 -13.367  -1.431  0.00  0.00     0.275 HD
HETATM   26  H           1     -24.084 -12.254  -0.918  0.00  0.00     0.275 HD
ENDBRANCH  22  23
BRANCH  22  27
HETATM   27  C           1     -22.229 -10.768  -0.242  0.00  0.00     0.053 C 
BRANCH  27  28
HETATM   28  C           1     -23.374  -9.791  -0.017  0.00  0.00     0.115 C 
BRANCH  28  29
HETATM   29  C           1     -22.819  -8.452   0.401  0.00  0.00     0.172 C 
HETATM   30  O           1     -23.430  -7.402   0.103  0.00  0.00    -0.648 OA
HETATM   31  O           1     -21.749  -8.392   1.044  0.00  0.00    -0.648 OA
ENDBRANCH  28  29
ENDBRANCH  27  28
ENDBRANCH  22  27
ENDBRANCH  20  22
ENDBRANCH   1  18
TORSDOF 12
ENDMDL
MODEL 9
REMARK VINA RESULT:      -6.3      4.974      7.186
REMARK  12 active torsions:
REMARK  status: ('A' for Active; 'I' for Inactive)
REMARK    1  A    between atoms: C_1  and  C_5 
REMARK    2  A    between atoms: C_4  and  O_21 
REMARK    3  A    between atoms: C_5  and  C_15 
REMARK    4  A    between atoms: C_6  and  C_12 
REMARK    5  A    between atoms: C_6  and  C_7 
REMARK    6  A    between atoms: N_10  and  C_13 
REMARK    7  A    between atoms: C_12  and  C_13 
REMARK    8  A    between atoms: C_13  and  C_14 
REMARK       I    between atoms: C_14  and  N_16 
REMARK    9  A    between atoms: C_15  and  C_18 
REMARK   10  A    between atoms: C_15  and  N_16 
REMARK   11  A    between atoms: P_20  and  O_21 
REMARK   12  A    between atoms: P_20  and  O_30 
ROOT
HETATM    1  C           1     -21.032  -7.803  -2.558  0.00  0.00     0.189 C 
ENDROOT
BRANCH   1   2
HETATM    2  C           1     -20.908  -8.611  -3.843  0.00  0.00     0.074 C 
BRANCH   2   3
HETATM    3  C           1     -19.483  -9.030  -4.034  0.00  0.00    -0.056 A 
HETATM    4  C           1     -18.654  -9.208  -2.927  0.00  0.00     0.010 A 
HETATM    5  C           1     -17.328  -9.599  -3.105  0.00  0.00     0.038 A 
HETATM    6  C           1     -16.830  -9.812  -4.390  0.00  0.00     0.081 A 
HETATM    7  C           1     -17.659  -9.635  -5.498  0.00  0.00     0.038 A 
HETATM    8  C           1     -18.986  -9.244  -5.319  0.00  0.00     0.010 A 
BRANCH   6   9
HETATM    9  O           1     -15.540 -10.193  -4.563  0.00  0.00    -0.247 OA
BRANCH   9  10
HETATM   10  P           1     -15.175 -11.751  -4.351  0.00  0.00     0.411 P 
HETATM   11  O           1     -16.341 -12.586  -4.716  0.00  0.00    -0.624 OA
HETATM   12  O           1     -14.826 -11.987  -2.932  0.00  0.00    -0.624 OA
BRANCH  10  13
HETATM   13  O           1     -13.919 -12.142  -5.288  0.00  0.00    -0.300 OA
HETATM   14  H           1     -14.066 -11.680  -6.097  0.00  0.00     0.223 HD
ENDBRANCH  10  13
ENDBRANCH   9  10
ENDBRANCH   6   9
ENDBRANCH   2   3
ENDBRANCH   1   2
BRANCH   1  15
HETATM   15  C           1     -21.672  -6.470  -2.860  0.00  0.00     0.197 C 
HETATM   16  O           1     -21.463  -5.912  -3.959  0.00  0.00    -0.646 OA
HETATM   17  O           1     -22.411  -5.925  -2.012  0.00  0.00    -0.646 OA
ENDBRANCH   1  15
BRANCH   1  18
HETATM   18  N           1     -21.854  -8.529  -1.609  0.00  0.00    -0.344 N 
HETATM   19  H           1     -22.776  -8.847  -1.878  0.00  0.00     0.163 HD
HETATM   20  C           1     -21.382  -8.783  -0.349  0.00  0.00     0.249 C 
HETATM   21  O           1     -21.583  -7.993   0.542  0.00  0.00    -0.271 OA
BRANCH  20  22
HETATM   22  C           1     -20.611 -10.051  -0.075  0.00  0.00     0.275 C 
BRANCH  22  23
HETATM   23  N           1     -20.524 -10.273   1.406  0.00  0.00    -0.066 N 
HETATM   24  H           1     -21.466 -10.138   1.835  0.00  0.00     0.275 HD
HETATM   25  H           1     -20.191 -11.246   1.593  0.00  0.00     0.275 HD
HETATM   26  H           1     -19.851  -9.588   1.821  0.00  0.00     0.275 HD
ENDBRANCH  22  23
BRANCH  22  27
HETATM   27  C           1     -21.325 -11.231  -0.723  0.00  0.00     0.053 C 
BRANCH  27  28
HETATM   28  C           1     -22.308 -11.837   0.269  0.00  0.00     0.115 C 
BRANCH  28  29
HETATM   29  C           1     -23.715 -11.660  -0.244  0.00  0.00     0.172 C 
HETATM   30  O           1     -24.218 -12.519  -1.001  0.00  0.00    -0.648 OA
HETATM   31  O           1     -24.379 -10.654   0.087  0.00  0.00    -0.648 OA
ENDBRANCH  28  29
ENDBRANCH  27  28
ENDBRANCH  22  27
ENDBRANCH  20  22
ENDBRANCH   1  18
TORSDOF 12
ENDMDL
