MODEL 1
REMARK VINA RESULT:      -6.5      0.000      0.000
REMARK  7 active torsions:
REMARK  status: ('A' for Active; 'I' for Inactive)
REMARK    1  A    between atoms: N_3  and  C_12 
REMARK       I    between atoms: N_3  and  C_20 
REMARK    2  A    between atoms: C_8  and  C_12 
REMARK    3  A    between atoms: C_10  and  O_11 
REMARK    4  A    between atoms: C_10  and  C_12 
REMARK    5  A    between atoms: C_13  and  C_14 
REMARK    6  A    between atoms: C_14  and  C_20 
REMARK    7  A    between atoms: C_14  and  N_17 
ROOT
HETATM    1  O           1     -22.119  -3.577  -7.409  0.00  0.00    -0.271 OA
HETATM    2  N           1     -22.171  -4.822  -9.261  0.00  0.00    -0.343 N 
HETATM    3  H           1     -21.994  -5.719  -9.697  0.00  0.00     0.163 HD
HETATM    4  C           1     -21.908  -4.646  -7.929  0.00  0.00     0.249 C 
ENDROOT
BRANCH   2   5
HETATM    5  C           1     -22.703  -3.726 -10.047  0.00  0.00     0.214 C 
BRANCH   5   6
HETATM    6  C           1     -24.165  -3.972 -10.328  0.00  0.00     0.199 C 
HETATM    7  O           1     -24.856  -3.082 -10.869  0.00  0.00    -0.646 OA
HETATM    8  O           1     -24.685  -5.066 -10.019  0.00  0.00    -0.646 OA
ENDBRANCH   5   6
BRANCH   5   9
HETATM    9  C           1     -21.941  -3.629 -11.362  0.00  0.00     0.147 C 
HETATM   10  C           1     -20.500  -4.075 -11.147  0.00  0.00     0.042 C 
BRANCH   9  11
HETATM   11  O           1     -22.549  -4.456 -12.316  0.00  0.00    -0.393 OA
HETATM   12  H           1     -23.190  -3.932 -12.766  0.00  0.00     0.210 HD
ENDBRANCH   9  11
ENDBRANCH   5   9
ENDBRANCH   2   5
BRANCH   4  13
HETATM   13  C           1     -21.355  -5.787  -7.112  0.00  0.00     0.278 C 
BRANCH  13  14
HETATM   14  C           1     -21.415  -5.429  -5.632  0.00  0.00     0.017 C 
HETATM   15  C           1     -21.718  -6.680  -4.819  0.00  0.00     0.012 C 
HETATM   16  C           1     -20.074  -4.854  -5.195  0.00  0.00     0.012 C 
ENDBRANCH  13  14
BRANCH  13  17
HETATM   17  N           1     -19.930  -6.039  -7.506  0.00  0.00    -0.066 N 
HETATM   18  H           1     -19.428  -5.128  -7.598  0.00  0.00     0.275 HD
HETATM   19  H           1     -19.464  -6.623  -6.775  0.00  0.00     0.275 HD
HETATM   20  H           1     -19.906  -6.544  -8.421  0.00  0.00     0.275 HD
ENDBRANCH  13  17
ENDBRANCH   4  13
TORSDOF 7
ENDMDL
MODEL 2
REMARK VINA RESULT:      -6.4     12.608     14.496
REMARK  7 active torsions:
REMARK  status: ('A' for Active; 'I' for Inactive)
REMARK    1  A    between atoms: N_3  and  C_12 
REMARK       I    between atoms: N_3  and  C_20 
REMARK    2  A    between atoms: C_8  and  C_12 
REMARK    3  A    between atoms: C_10  and  O_11 
REMARK    4  A    between atoms: C_10  and  C_12 
REMARK    5  A    between atoms: C_13  and  C_14 
REMARK    6  A    between atoms: C_14  and  C_20 
REMARK    7  A    between atoms: C_14  and  N_17 
ROOT
HETATM    1  O           1     -36.392  -1.513 -12.280  0.00  0.00    -0.271 OA
HETATM    2  N           1     -34.981  -1.149 -13.972  0.00  0.00    -0.343 N 
HETATM    3  H           1     -34.037  -1.218 -14.331  0.00  0.00     0.163 HD
HETATM    4  C           1     -35.266  -1.596 -12.709  0.00  0.00     0.249 C 
ENDROOT
BRANCH   2   5
HETATM    5  C           1     -36.030  -0.578 -14.794  0.00  0.00     0.214 C 
BRANCH   5   6
HETATM    6  C           1     -35.824  -0.994 -16.230  0.00  0.00     0.199 C 
HETATM    7  O           1     -34.717  -1.440 -16.600  0.00  0.00    -0.646 OA
HETATM    8  O           1     -36.762  -0.892 -17.050  0.00  0.00    -0.646 OA
ENDBRANCH   5   6
BRANCH   5   9
HETATM    9  C           1     -35.982   0.941 -14.692  0.00  0.00     0.147 C 
HETATM   10  C           1     -34.660   1.366 -14.068  0.00  0.00     0.042 C 
BRANCH   9  11
HETATM   11  O           1     -36.096   1.498 -15.973  0.00  0.00    -0.393 OA
HETATM   12  H           1     -36.106   2.434 -15.866  0.00  0.00     0.210 HD
ENDBRANCH   9  11
ENDBRANCH   5   9
ENDBRANCH   2   5
BRANCH   4  13
HETATM   13  C           1     -34.174  -2.189 -11.854  0.00  0.00     0.278 C 
BRANCH  13  14
HETATM   14  C           1     -34.165  -3.703 -12.019  0.00  0.00     0.017 C 
HETATM   15  C           1     -32.728  -4.208 -11.995  0.00  0.00     0.012 C 
HETATM   16  C           1     -34.946  -4.343 -10.878  0.00  0.00     0.012 C 
ENDBRANCH  13  14
BRANCH  13  17
HETATM   17  N           1     -34.424  -1.846 -10.416  0.00  0.00    -0.066 N 
HETATM   18  H           1     -35.254  -1.214 -10.348  0.00  0.00     0.275 HD
HETATM   19  H           1     -34.606  -2.722  -9.875  0.00  0.00     0.275 HD
HETATM   20  H           1     -33.586  -1.362 -10.022  0.00  0.00     0.275 HD
ENDBRANCH  13  17
ENDBRANCH   4  13
TORSDOF 7
ENDMDL
MODEL 3
REMARK VINA RESULT:      -5.7     12.293     14.109
REMARK  7 active torsions:
REMARK  status: ('A' for Active; 'I' for Inactive)
REMARK    1  A    between atoms: N_3  and  C_12 
REMARK       I    between atoms: N_3  and  C_20 
REMARK    2  A    between atoms: C_8  and  C_12 
REMARK    3  A    between atoms: C_10  and  O_11 
REMARK    4  A    between atoms: C_10  and  C_12 
REMARK    5  A    between atoms: C_13  and  C_14 
REMARK    6  A    between atoms: C_14  and  C_20 
REMARK    7  A    between atoms: C_14  and  N_17 
ROOT
HETATM    1  O           1     -34.316  -3.167 -13.402  0.00  0.00    -0.271 OA
HETATM    2  N           1     -35.005  -1.310 -12.371  0.00  0.00    -0.343 N 
HETATM    3  H           1     -34.981  -0.730 -11.541  0.00  0.00     0.163 HD
HETATM    4  C           1     -34.288  -2.475 -12.411  0.00  0.00     0.249 C 
ENDROOT
BRANCH   2   5
HETATM    5  C           1     -35.798  -0.905 -13.515  0.00  0.00     0.214 C 
BRANCH   5   6
HETATM    6  C           1     -35.098   0.220 -14.238  0.00  0.00     0.199 C 
HETATM    7  O           1     -34.653   1.195 -13.595  0.00  0.00    -0.646 OA
HETATM    8  O           1     -34.965   0.177 -15.480  0.00  0.00    -0.646 OA
ENDBRANCH   5   6
BRANCH   5   9
HETATM    9  C           1     -37.166  -0.433 -13.042  0.00  0.00     0.147 C 
HETATM   10  C           1     -37.090  -0.053 -11.569  0.00  0.00     0.042 C 
BRANCH   9  11
HETATM   11  O           1     -37.561   0.682 -13.793  0.00  0.00    -0.393 OA
HETATM   12  H           1     -36.910   0.808 -14.462  0.00  0.00     0.210 HD
ENDBRANCH   9  11
ENDBRANCH   5   9
ENDBRANCH   2   5
BRANCH   4  13
HETATM   13  C           1     -33.463  -2.896 -11.220  0.00  0.00     0.278 C 
BRANCH  13  14
HETATM   14  C           1     -34.077  -4.141 -10.591  0.00  0.00     0.017 C 
HETATM   15  C           1     -35.583  -4.136 -10.821  0.00  0.00     0.012 C 
HETATM   16  C           1     -33.471  -5.383 -11.231  0.00  0.00     0.012 C 
ENDBRANCH  13  14
BRANCH  13  17
HETATM   17  N           1     -33.440  -1.788 -10.212  0.00  0.00    -0.066 N 
HETATM   18  H           1     -32.950  -0.958 -10.618  0.00  0.00     0.275 HD
HETATM   19  H           1     -34.420  -1.525  -9.959  0.00  0.00     0.275 HD
HETATM   20  H           1     -32.933  -2.106  -9.355  0.00  0.00     0.275 HD
ENDBRANCH  13  17
ENDBRANCH   4  13
TORSDOF 7
ENDMDL
MODEL 4
REMARK VINA RESULT:      -5.6     12.532     15.098
REMARK  7 active torsions:
REMARK  status: ('A' for Active; 'I' for Inactive)
REMARK    1  A    between atoms: N_3  and  C_12 
REMARK       I    between atoms: N_3  and  C_20 
REMARK    2  A    between atoms: C_8  and  C_12 
REMARK    3  A    between atoms: C_10  and  O_11 
REMARK    4  A    between atoms: C_10  and  C_12 
REMARK    5  A    between atoms: C_13  and  C_14 
REMARK    6  A    between atoms: C_14  and  C_20 
REMARK    7  A    between atoms: C_14  and  N_17 
ROOT
HETATM    1  O           1     -36.859  -1.142 -12.528  0.00  0.00    -0.271 OA
HETATM    2  N           1     -34.831  -1.759 -13.230  0.00  0.00    -0.343 N 
HETATM    3  H           1     -34.070  -1.618 -13.882  0.00  0.00     0.163 HD
HETATM    4  C           1     -35.950  -0.974 -13.306  0.00  0.00     0.249 C 
ENDROOT
BRANCH   2   5
HETATM    5  C           1     -34.737  -2.791 -12.216  0.00  0.00     0.214 C 
BRANCH   5   6
HETATM    6  C           1     -33.892  -2.292 -11.069  0.00  0.00     0.199 C 
HETATM    7  O           1     -32.692  -2.631 -10.982  0.00  0.00    -0.646 OA
HETATM    8  O           1     -34.393  -1.540 -10.205  0.00  0.00    -0.646 OA
ENDBRANCH   5   6
BRANCH   5   9
HETATM    9  C           1     -34.095  -4.035 -12.817  0.00  0.00     0.147 C 
HETATM   10  C           1     -34.800  -5.276 -12.287  0.00  0.00     0.042 C 
BRANCH   9  11
HETATM   11  O           1     -34.210  -3.991 -14.213  0.00  0.00    -0.393 OA
HETATM   12  H           1     -33.490  -3.474 -14.532  0.00  0.00     0.210 HD
ENDBRANCH   9  11
ENDBRANCH   5   9
ENDBRANCH   2   5
BRANCH   4  13
HETATM   13  C           1     -36.049   0.099 -14.362  0.00  0.00     0.278 C 
BRANCH  13  14
HETATM   14  C           1     -36.997  -0.357 -15.464  0.00  0.00     0.017 C 
HETATM   15  C           1     -37.936   0.785 -15.831  0.00  0.00     0.012 C 
HETATM   16  C           1     -36.189  -0.763 -16.690  0.00  0.00     0.012 C 
ENDBRANCH  13  14
BRANCH  13  17
HETATM   17  N           1     -34.691   0.353 -14.944  0.00  0.00    -0.066 N 
HETATM   18  H           1     -34.216  -0.559 -15.131  0.00  0.00     0.275 HD
HETATM   19  H           1     -34.790   0.885 -15.839  0.00  0.00     0.275 HD
HETATM   20  H           1     -34.121   0.910 -14.270  0.00  0.00     0.275 HD
ENDBRANCH  13  17
ENDBRANCH   4  13
TORSDOF 7
ENDMDL
MODEL 5
REMARK VINA RESULT:      -5.5     11.719     13.539
REMARK  7 active torsions:
REMARK  status: ('A' for Active; 'I' for Inactive)
REMARK    1  A    between atoms: N_3  and  C_12 
REMARK       I    between atoms: N_3  and  C_20 
REMARK    2  A    between atoms: C_8  and  C_12 
REMARK    3  A    between atoms: C_10  and  O_11 
REMARK    4  A    between atoms: C_10  and  C_12 
REMARK    5  A    between atoms: C_13  and  C_14 
REMARK    6  A    between atoms: C_14  and  C_20 
REMARK    7  A    between atoms: C_14  and  N_17 
ROOT
HETATM    1  O           1     -35.056  -5.090 -15.437  0.00  0.00    -0.271 OA
HETATM    2  N           1     -33.437  -4.002 -14.349  0.00  0.00    -0.343 N 
HETATM    3  H           1     -32.542  -3.530 -14.392  0.00  0.00     0.163 HD
HETATM    4  C           1     -33.988  -4.527 -15.488  0.00  0.00     0.249 C 
ENDROOT
BRANCH   2   5
HETATM    5  C           1     -34.135  -4.121 -13.084  0.00  0.00     0.214 C 
BRANCH   5   6
HETATM    6  C           1     -34.859  -2.830 -12.786  0.00  0.00     0.199 C 
HETATM    7  O           1     -35.520  -2.713 -11.733  0.00  0.00    -0.646 OA
HETATM    8  O           1     -34.797  -1.879 -13.595  0.00  0.00    -0.646 OA
ENDBRANCH   5   6
BRANCH   5   9
HETATM    9  C           1     -33.129  -4.407 -11.976  0.00  0.00     0.147 C 
HETATM   10  C           1     -33.658  -5.525 -11.088  0.00  0.00     0.042 C 
BRANCH   9  11
HETATM   11  O           1     -31.909  -4.799 -12.544  0.00  0.00    -0.393 OA
HETATM   12  H           1     -31.825  -5.726 -12.402  0.00  0.00     0.210 HD
ENDBRANCH   9  11
ENDBRANCH   5   9
ENDBRANCH   2   5
BRANCH   4  13
HETATM   13  C           1     -33.262  -4.404 -16.804  0.00  0.00     0.278 C 
BRANCH  13  14
HETATM   14  C           1     -31.776  -4.669 -16.592  0.00  0.00     0.017 C 
HETATM   15  C           1     -31.442  -6.082 -17.051  0.00  0.00     0.012 C 
HETATM   16  C           1     -30.963  -3.667 -17.403  0.00  0.00     0.012 C 
ENDBRANCH  13  14
BRANCH  13  17
HETATM   17  N           1     -33.449  -3.020 -17.350  0.00  0.00    -0.066 N 
HETATM   18  H           1     -34.257  -2.563 -16.871  0.00  0.00     0.275 HD
HETATM   19  H           1     -32.582  -2.460 -17.184  0.00  0.00     0.275 HD
HETATM   20  H           1     -33.638  -3.073 -18.376  0.00  0.00     0.275 HD
ENDBRANCH  13  17
ENDBRANCH   4  13
TORSDOF 7
ENDMDL
MODEL 6
REMARK VINA RESULT:      -5.2      2.770      4.569
REMARK  7 active torsions:
REMARK  status: ('A' for Active; 'I' for Inactive)
REMARK    1  A    between atoms: N_3  and  C_12 
REMARK       I    between atoms: N_3  and  C_20 
REMARK    2  A    between atoms: C_8  and  C_12 
REMARK    3  A    between atoms: C_10  and  O_11 
REMARK    4  A    between atoms: C_10  and  C_12 
REMARK    5  A    between atoms: C_13  and  C_14 
REMARK    6  A    between atoms: C_14  and  C_20 
REMARK    7  A    between atoms: C_14  and  N_17 
ROOT
HETATM    1  O           1     -20.850  -7.841  -6.070  0.00  0.00    -0.271 OA
HETATM    2  N           1     -21.865  -5.888  -5.693  0.00  0.00    -0.343 N 
HETATM    3  H           1     -22.422  -5.317  -5.069  0.00  0.00     0.163 HD
HETATM    4  C           1     -21.515  -7.160  -5.325  0.00  0.00     0.249 C 
ENDROOT
BRANCH   2   5
HETATM    5  C           1     -21.439  -5.359  -6.974  0.00  0.00     0.214 C 
BRANCH   5   6
HETATM    6  C           1     -20.079  -4.720  -6.826  0.00  0.00     0.199 C 
HETATM    7  O           1     -19.404  -4.446  -7.841  0.00  0.00    -0.646 OA
HETATM    8  O           1     -19.629  -4.466  -5.688  0.00  0.00    -0.646 OA
ENDBRANCH   5   6
BRANCH   5   9
HETATM    9  C           1     -22.442  -4.316  -7.450  0.00  0.00     0.147 C 
HETATM   10  C           1     -22.648  -4.460  -8.952  0.00  0.00     0.042 C 
BRANCH   9  11
HETATM   11  O           1     -23.663  -4.507  -6.789  0.00  0.00    -0.393 OA
HETATM   12  H           1     -24.298  -4.734  -7.446  0.00  0.00     0.210 HD
ENDBRANCH   9  11
ENDBRANCH   5   9
ENDBRANCH   2   5
BRANCH   4  13
HETATM   13  C           1     -21.958  -7.710  -3.993  0.00  0.00     0.278 C 
BRANCH  13  14
HETATM   14  C           1     -21.194  -7.013  -2.875  0.00  0.00     0.017 C 
HETATM   15  C           1     -22.173  -6.261  -1.983  0.00  0.00     0.012 C 
HETATM   16  C           1     -20.449  -8.052  -2.046  0.00  0.00     0.012 C 
ENDBRANCH  13  14
BRANCH  13  17
HETATM   17  N           1     -21.682  -9.182  -3.944  0.00  0.00    -0.066 N 
HETATM   18  H           1     -20.660  -9.350  -4.088  0.00  0.00     0.275 HD
HETATM   19  H           1     -21.969  -9.560  -3.012  0.00  0.00     0.275 HD
HETATM   20  H           1     -22.223  -9.665  -4.696  0.00  0.00     0.275 HD
ENDBRANCH  13  17
ENDBRANCH   4  13
TORSDOF 7
ENDMDL
MODEL 7
REMARK VINA RESULT:      -5.0      5.259      7.525
REMARK  7 active torsions:
REMARK  status: ('A' for Active; 'I' for Inactive)
REMARK    1  A    between atoms: N_3  and  C_12 
REMARK       I    between atoms: N_3  and  C_20 
REMARK    2  A    between atoms: C_8  and  C_12 
REMARK    3  A    between atoms: C_10  and  O_11 
REMARK    4  A    between atoms: C_10  and  C_12 
REMARK    5  A    between atoms: C_13  and  C_14 
REMARK    6  A    between atoms: C_14  and  C_20 
REMARK    7  A    between atoms: C_14  and  N_17 
ROOT
HETATM    1  O           1     -21.964  -9.630  -2.352  0.00  0.00    -0.271 OA
HETATM    2  N           1     -20.932  -7.930  -3.369  0.00  0.00    -0.343 N 
HETATM    3  H           1     -20.515  -7.011  -3.292  0.00  0.00     0.163 HD
HETATM    4  C           1     -21.466  -8.532  -2.261  0.00  0.00     0.249 C 
ENDROOT
BRANCH   2   5
HETATM    5  C           1     -20.965  -8.607  -4.650  0.00  0.00     0.214 C 
BRANCH   5   6
HETATM    6  C           1     -19.615  -9.225  -4.926  0.00  0.00     0.199 C 
HETATM    7  O           1     -18.634  -8.927  -4.212  0.00  0.00    -0.646 OA
HETATM    8  O           1     -19.480 -10.034  -5.869  0.00  0.00    -0.646 OA
ENDBRANCH   5   6
BRANCH   5   9
HETATM    9  C           1     -21.298  -7.603  -5.746  0.00  0.00     0.147 C 
HETATM   10  C           1     -22.066  -6.433  -5.144  0.00  0.00     0.042 C 
BRANCH   9  11
HETATM   11  O           1     -20.112  -7.135  -6.327  0.00  0.00    -0.393 OA
HETATM   12  H           1     -20.321  -6.878  -7.209  0.00  0.00     0.210 HD
ENDBRANCH   9  11
ENDBRANCH   5   9
ENDBRANCH   2   5
BRANCH   4  13
HETATM   13  C           1     -21.432  -7.827  -0.928  0.00  0.00     0.278 C 
BRANCH  13  14
HETATM   14  C           1     -22.011  -8.741   0.145  0.00  0.00     0.017 C 
HETATM   15  C           1     -21.044  -8.821   1.319  0.00  0.00     0.012 C 
HETATM   16  C           1     -23.343  -8.178   0.624  0.00  0.00     0.012 C 
ENDBRANCH  13  14
BRANCH  13  17
HETATM   17  N           1     -22.247  -6.571  -1.007  0.00  0.00    -0.066 N 
HETATM   18  H           1     -23.264  -6.816  -1.012  0.00  0.00     0.275 HD
HETATM   19  H           1     -22.037  -5.967  -0.180  0.00  0.00     0.275 HD
HETATM   20  H           1     -22.009  -6.055  -1.884  0.00  0.00     0.275 HD
ENDBRANCH  13  17
ENDBRANCH   4  13
TORSDOF 7
ENDMDL
MODEL 8
REMARK VINA RESULT:      -5.0      2.494      3.784
REMARK  7 active torsions:
REMARK  status: ('A' for Active; 'I' for Inactive)
REMARK    1  A    between atoms: N_3  and  C_12 
REMARK       I    between atoms: N_3  and  C_20 
REMARK    2  A    between atoms: C_8  and  C_12 
REMARK    3  A    between atoms: C_10  and  O_11 
REMARK    4  A    between atoms: C_10  and  C_12 
REMARK    5  A    between atoms: C_13  and  C_14 
REMARK    6  A    between atoms: C_14  and  C_20 
REMARK    7  A    between atoms: C_14  and  N_17 
ROOT
HETATM    1  O           1     -20.450  -5.032  -4.511  0.00  0.00    -0.271 OA
HETATM    2  N           1     -21.815  -5.643  -6.170  0.00  0.00    -0.343 N 
HETATM    3  H           1     -22.549  -6.261  -6.493  0.00  0.00     0.163 HD
HETATM    4  C           1     -21.326  -5.770  -4.897  0.00  0.00     0.249 C 
ENDROOT
BRANCH   2   5
HETATM    5  C           1     -21.282  -4.625  -7.054  0.00  0.00     0.214 C 
BRANCH   5   6
HETATM    6  C           1     -22.364  -4.166  -8.000  0.00  0.00     0.199 C 
HETATM    7  O           1     -23.567  -4.313  -7.694  0.00  0.00    -0.646 OA
HETATM    8  O           1     -22.057  -3.639  -9.091  0.00  0.00    -0.646 OA
ENDBRANCH   5   6
BRANCH   5   9
HETATM    9  C           1     -20.121  -5.205  -7.851  0.00  0.00     0.147 C 
HETATM   10  C           1     -18.893  -4.321  -7.674  0.00  0.00     0.042 C 
BRANCH   9  11
HETATM   11  O           1     -19.837  -6.497  -7.390  0.00  0.00    -0.393 OA
HETATM   12  H           1     -20.413  -7.085  -7.849  0.00  0.00     0.210 HD
ENDBRANCH   9  11
ENDBRANCH   5   9
ENDBRANCH   2   5
BRANCH   4  13
HETATM   13  C           1     -21.880  -6.829  -3.977  0.00  0.00     0.278 C 
BRANCH  13  14
HETATM   14  C           1     -21.195  -6.734  -2.620  0.00  0.00     0.017 C 
HETATM   15  C           1     -22.228  -6.404  -1.551  0.00  0.00     0.012 C 
HETATM   16  C           1     -20.534  -8.066  -2.292  0.00  0.00     0.012 C 
ENDBRANCH  13  14
BRANCH  13  17
HETATM   17  N           1     -21.631  -8.184  -4.568  0.00  0.00    -0.066 N 
HETATM   18  H           1     -21.099  -8.081  -5.462  0.00  0.00     0.275 HD
HETATM   19  H           1     -21.075  -8.761  -3.896  0.00  0.00     0.275 HD
HETATM   20  H           1     -22.544  -8.655  -4.758  0.00  0.00     0.275 HD
ENDBRANCH  13  17
ENDBRANCH   4  13
TORSDOF 7
ENDMDL
MODEL 9
REMARK VINA RESULT:      -4.9      3.222      6.393
REMARK  7 active torsions:
REMARK  status: ('A' for Active; 'I' for Inactive)
REMARK    1  A    between atoms: N_3  and  C_12 
REMARK       I    between atoms: N_3  and  C_20 
REMARK    2  A    between atoms: C_8  and  C_12 
REMARK    3  A    between atoms: C_10  and  O_11 
REMARK    4  A    between atoms: C_10  and  C_12 
REMARK    5  A    between atoms: C_13  and  C_14 
REMARK    6  A    between atoms: C_14  and  C_20 
REMARK    7  A    between atoms: C_14  and  N_17 
ROOT
HETATM    1  O           1     -22.891  -5.593  -5.828  0.00  0.00    -0.271 OA
HETATM    2  N           1     -20.942  -6.382  -5.077  0.00  0.00    -0.343 N 
HETATM    3  H           1     -19.931  -6.336  -5.102  0.00  0.00     0.163 HD
HETATM    4  C           1     -21.684  -5.538  -5.858  0.00  0.00     0.249 C 
ENDROOT
BRANCH   2   5
HETATM    5  C           1     -21.603  -7.342  -4.214  0.00  0.00     0.214 C 
BRANCH   5   6
HETATM    6  C           1     -21.589  -6.833  -2.794  0.00  0.00     0.199 C 
HETATM    7  O           1     -20.747  -7.272  -1.981  0.00  0.00    -0.646 OA
HETATM    8  O           1     -22.420  -5.973  -2.430  0.00  0.00    -0.646 OA
ENDBRANCH   5   6
BRANCH   5   9
HETATM    9  C           1     -20.870  -8.675  -4.284  0.00  0.00     0.147 C 
HETATM   10  C           1     -21.854  -9.809  -4.028  0.00  0.00     0.042 C 
BRANCH   9  11
HETATM   11  O           1     -20.300  -8.828  -5.556  0.00  0.00    -0.393 OA
HETATM   12  H           1     -19.460  -8.404  -5.533  0.00  0.00     0.210 HD
ENDBRANCH   9  11
ENDBRANCH   5   9
ENDBRANCH   2   5
BRANCH   4  13
HETATM   13  C           1     -20.996  -4.540  -6.756  0.00  0.00     0.278 C 
BRANCH  13  14
HETATM   14  C           1     -21.380  -4.811  -8.205  0.00  0.00     0.017 C 
HETATM   15  C           1     -22.402  -3.778  -8.662  0.00  0.00     0.012 C 
HETATM   16  C           1     -20.139  -4.717  -9.084  0.00  0.00     0.012 C 
ENDBRANCH  13  14
BRANCH  13  17
HETATM   17  N           1     -19.511  -4.669  -6.601  0.00  0.00    -0.066 N 
HETATM   18  H           1     -19.033  -4.108  -7.342  0.00  0.00     0.275 HD
HETATM   19  H           1     -19.227  -4.317  -5.659  0.00  0.00     0.275 HD
HETATM   20  H           1     -19.236  -5.673  -6.694  0.00  0.00     0.275 HD
ENDBRANCH  13  17
ENDBRANCH   4  13
TORSDOF 7
ENDMDL
