MODEL 1
REMARK VINA RESULT:      -5.4      0.000      0.000
REMARK  8 active torsions:
REMARK  status: ('A' for Active; 'I' for Inactive)
REMARK    1  A    between atoms: N_2  and  C_7 
REMARK       I    between atoms: N_2  and  C_3 
REMARK    2  A    between atoms: C_3  and  C_14 
REMARK    3  A    between atoms: Se_4  and  C_5 
REMARK    4  A    between atoms: C_5  and  C_7 
REMARK    5  A    between atoms: C_7  and  C_20 
REMARK    6  A    between atoms: N_11  and  C_14 
REMARK    7  A    between atoms: C_14  and  C_19 
REMARK    8  A    between atoms: C_17  and  C_19 
ROOT
HETATM    1  N           1     -26.666  -6.304 -18.183  0.00  0.00    -0.345 N 
HETATM    2  C           1     -26.143  -6.631 -19.405  0.00  0.00     0.249 C 
HETATM    3  O           1     -26.853  -6.640 -20.382  0.00  0.00    -0.271 OA
HETATM    4  H           1     -26.071  -6.296 -17.364  0.00  0.00     0.163 HD
ENDROOT
BRANCH   2   5
HETATM    5  C           1     -24.681  -6.980 -19.531  0.00  0.00     0.275 C 
BRANCH   5   6
HETATM    6  N           1     -24.159  -7.432 -18.200  0.00  0.00    -0.066 N 
HETATM    7  H           1     -24.396  -6.720 -17.473  0.00  0.00     0.275 HD
HETATM    8  H           1     -24.594  -8.347 -17.947  0.00  0.00     0.275 HD
HETATM    9  H           1     -23.121  -7.544 -18.254  0.00  0.00     0.275 HD
ENDBRANCH   5   6
BRANCH   5  10
HETATM   10  C           1     -24.511  -8.101 -20.549  0.00  0.00     0.046 C 
BRANCH  10  11
HETATM   11  C           1     -23.336  -7.784 -21.463  0.00  0.00    -0.020 C 
HETATM   12  C           1     -23.829  -7.663 -22.899  0.00  0.00     0.009 C 
HETATM   13  C           1     -22.306  -8.902 -21.373  0.00  0.00     0.009 C 
ENDBRANCH  10  11
ENDBRANCH   5  10
ENDBRANCH   2   5
BRANCH   1  14
HETATM   14  C           1     -28.071  -5.969 -18.061  0.00  0.00     0.185 C 
BRANCH  14  15
HETATM   15  C           1     -28.797  -7.088 -17.325  0.00  0.00     0.039 C 
BRANCH  15  16
HETATM   16 Se           1     -30.502  -7.443 -18.201  0.00  0.00     0.000 Se
HETATM   17  H           1     -30.178  -8.842 -18.523  0.00  0.00     0.000 HD
ENDBRANCH  15  16
ENDBRANCH  14  15
BRANCH  14  18
HETATM   18  C           1     -28.215  -4.681 -17.287  0.00  0.00     0.196 C 
HETATM   19  O           1     -28.984  -3.787 -17.699  0.00  0.00    -0.646 OA
HETATM   20  O           1     -27.563  -4.508 -16.234  0.00  0.00    -0.646 OA
ENDBRANCH  14  18
ENDBRANCH   1  14
TORSDOF 8
ENDMDL
MODEL 2
REMARK VINA RESULT:      -5.2      2.085      2.661
REMARK  8 active torsions:
REMARK  status: ('A' for Active; 'I' for Inactive)
REMARK    1  A    between atoms: N_2  and  C_7 
REMARK       I    between atoms: N_2  and  C_3 
REMARK    2  A    between atoms: C_3  and  C_14 
REMARK    3  A    between atoms: Se_4  and  C_5 
REMARK    4  A    between atoms: C_5  and  C_7 
REMARK    5  A    between atoms: C_7  and  C_20 
REMARK    6  A    between atoms: N_11  and  C_14 
REMARK    7  A    between atoms: C_14  and  C_19 
REMARK    8  A    between atoms: C_17  and  C_19 
ROOT
HETATM    1  N           1     -27.518  -6.392 -18.636  0.00  0.00    -0.345 N 
HETATM    2  C           1     -26.267  -6.330 -18.084  0.00  0.00     0.249 C 
HETATM    3  O           1     -26.139  -6.169 -16.894  0.00  0.00    -0.271 OA
HETATM    4  H           1     -27.626  -6.528 -19.633  0.00  0.00     0.163 HD
ENDROOT
BRANCH   2   5
HETATM    5  C           1     -25.047  -6.464 -18.963  0.00  0.00     0.275 C 
BRANCH   5   6
HETATM    6  N           1     -24.315  -7.725 -18.612  0.00  0.00    -0.066 N 
HETATM    7  H           1     -23.329  -7.495 -18.354  0.00  0.00     0.275 HD
HETATM    8  H           1     -24.788  -8.189 -17.804  0.00  0.00     0.275 HD
HETATM    9  H           1     -24.320  -8.370 -19.434  0.00  0.00     0.275 HD
ENDBRANCH   5   6
BRANCH   5  10
HETATM   10  C           1     -25.477  -6.518 -20.423  0.00  0.00     0.046 C 
BRANCH  10  11
HETATM   11  C           1     -25.256  -7.922 -20.967  0.00  0.00    -0.020 C 
HETATM   12  C           1     -24.326  -7.858 -22.171  0.00  0.00     0.009 C 
HETATM   13  C           1     -26.591  -8.521 -21.389  0.00  0.00     0.009 C 
ENDBRANCH  10  11
ENDBRANCH   5  10
ENDBRANCH   2   5
BRANCH   1  14
HETATM   14  C           1     -28.690  -6.263 -17.792  0.00  0.00     0.185 C 
BRANCH  14  15
HETATM   15  C           1     -29.532  -5.086 -18.268  0.00  0.00     0.039 C 
BRANCH  15  16
HETATM   16 Se           1     -30.920  -4.705 -16.955  0.00  0.00     0.000 Se
HETATM   17  H           1     -31.609  -5.992 -17.138  0.00  0.00     0.000 HD
ENDBRANCH  15  16
ENDBRANCH  14  15
BRANCH  14  18
HETATM   18  C           1     -29.506  -7.530 -17.870  0.00  0.00     0.196 C 
HETATM   19  O           1     -30.274  -7.720 -18.837  0.00  0.00    -0.646 OA
HETATM   20  O           1     -29.415  -8.390 -16.967  0.00  0.00    -0.646 OA
ENDBRANCH  14  18
ENDBRANCH   1  14
TORSDOF 8
ENDMDL
MODEL 3
REMARK VINA RESULT:      -5.1     18.794     19.760
REMARK  8 active torsions:
REMARK  status: ('A' for Active; 'I' for Inactive)
REMARK    1  A    between atoms: N_2  and  C_7 
REMARK       I    between atoms: N_2  and  C_3 
REMARK    2  A    between atoms: C_3  and  C_14 
REMARK    3  A    between atoms: Se_4  and  C_5 
REMARK    4  A    between atoms: C_5  and  C_7 
REMARK    5  A    between atoms: C_7  and  C_20 
REMARK    6  A    between atoms: N_11  and  C_14 
REMARK    7  A    between atoms: C_14  and  C_19 
REMARK    8  A    between atoms: C_17  and  C_19 
ROOT
HETATM    1  N           1     -11.544   4.930 -20.817  0.00  0.00    -0.345 N 
HETATM    2  C           1     -11.530   5.991 -19.952  0.00  0.00     0.249 C 
HETATM    3  O           1     -12.566   6.409 -19.494  0.00  0.00    -0.271 OA
HETATM    4  H           1     -10.676   4.578 -21.200  0.00  0.00     0.163 HD
ENDROOT
BRANCH   2   5
HETATM    5  C           1     -10.220   6.636 -19.571  0.00  0.00     0.275 C 
BRANCH   5   6
HETATM    6  N           1      -9.393   5.661 -18.788  0.00  0.00    -0.066 N 
HETATM    7  H           1      -9.165   4.836 -19.388  0.00  0.00     0.275 HD
HETATM    8  H           1      -8.508   6.123 -18.480  0.00  0.00     0.275 HD
HETATM    9  H           1      -9.930   5.345 -17.949  0.00  0.00     0.275 HD
ENDBRANCH   5   6
BRANCH   5  10
HETATM   10  C           1      -9.468   7.042 -20.832  0.00  0.00     0.046 C 
BRANCH  10  11
HETATM   11  C           1      -9.479   8.559 -20.964  0.00  0.00    -0.020 C 
HETATM   12  C           1     -10.091   9.172 -19.711  0.00  0.00     0.009 C 
HETATM   13  C           1     -10.307   8.957 -22.178  0.00  0.00     0.009 C 
ENDBRANCH  10  11
ENDBRANCH   5  10
ENDBRANCH   2   5
BRANCH   1  14
HETATM   14  C           1     -12.802   4.309 -21.184  0.00  0.00     0.185 C 
BRANCH  14  15
HETATM   15  C           1     -13.189   4.741 -22.592  0.00  0.00     0.039 C 
BRANCH  15  16
HETATM   16 Se           1     -15.053   5.309 -22.609  0.00  0.00     0.000 Se
HETATM   17  H           1     -14.745   6.725 -22.350  0.00  0.00     0.000 HD
ENDBRANCH  15  16
ENDBRANCH  14  15
BRANCH  14  18
HETATM   18  C           1     -12.653   2.808 -21.141  0.00  0.00     0.196 C 
HETATM   19  O           1     -13.640   2.075 -21.362  0.00  0.00    -0.646 OA
HETATM   20  O           1     -11.541   2.297 -20.883  0.00  0.00    -0.646 OA
ENDBRANCH  14  18
ENDBRANCH   1  14
TORSDOF 8
ENDMDL
MODEL 4
REMARK VINA RESULT:      -5.0     13.627     14.817
REMARK  8 active torsions:
REMARK  status: ('A' for Active; 'I' for Inactive)
REMARK    1  A    between atoms: N_2  and  C_7 
REMARK       I    between atoms: N_2  and  C_3 
REMARK    2  A    between atoms: C_3  and  C_14 
REMARK    3  A    between atoms: Se_4  and  C_5 
REMARK    4  A    between atoms: C_5  and  C_7 
REMARK    5  A    between atoms: C_7  and  C_20 
REMARK    6  A    between atoms: N_11  and  C_14 
REMARK    7  A    between atoms: C_14  and  C_19 
REMARK    8  A    between atoms: C_17  and  C_19 
ROOT
HETATM    1  N           1     -20.878  -6.733  -4.910  0.00  0.00    -0.345 N 
HETATM    2  C           1     -21.376  -5.777  -5.753  0.00  0.00     0.249 C 
HETATM    3  O           1     -22.555  -5.515  -5.739  0.00  0.00    -0.271 OA
HETATM    4  H           1     -19.890  -6.952  -4.921  0.00  0.00     0.163 HD
ENDROOT
BRANCH   2   5
HETATM    5  C           1     -20.453  -5.049  -6.699  0.00  0.00     0.275 C 
BRANCH   5   6
HETATM    6  N           1     -19.778  -6.041  -7.599  0.00  0.00    -0.066 N 
HETATM    7  H           1     -19.001  -6.510  -7.080  0.00  0.00     0.275 HD
HETATM    8  H           1     -20.472  -6.757  -7.912  0.00  0.00     0.275 HD
HETATM    9  H           1     -19.390  -5.546  -8.434  0.00  0.00     0.275 HD
ENDBRANCH   5   6
BRANCH   5  10
HETATM   10  C           1     -21.257  -4.067  -7.541  0.00  0.00     0.046 C 
BRANCH  10  11
HETATM   11  C           1     -21.463  -4.643  -8.935  0.00  0.00    -0.020 C 
HETATM   12  C           1     -20.590  -3.887  -9.929  0.00  0.00     0.009 C 
HETATM   13  C           1     -22.926  -4.499  -9.334  0.00  0.00     0.009 C 
ENDBRANCH  10  11
ENDBRANCH   5  10
ENDBRANCH   2   5
BRANCH   1  14
HETATM   14  C           1     -21.764  -7.433  -4.001  0.00  0.00     0.185 C 
BRANCH  14  15
HETATM   15  C           1     -21.414  -8.915  -3.991  0.00  0.00     0.039 C 
BRANCH  15  16
HETATM   16 Se           1     -19.678  -9.178  -4.837  0.00  0.00     0.000 Se
HETATM   17  H           1     -19.372 -10.411  -4.094  0.00  0.00     0.000 HD
ENDBRANCH  15  16
ENDBRANCH  14  15
BRANCH  14  18
HETATM   18  C           1     -21.605  -6.868  -2.611  0.00  0.00     0.196 C 
HETATM   19  O           1     -20.815  -7.404  -1.805  0.00  0.00    -0.646 OA
HETATM   20  O           1     -22.263  -5.863  -2.265  0.00  0.00    -0.646 OA
ENDBRANCH  14  18
ENDBRANCH   1  14
TORSDOF 8
ENDMDL
MODEL 5
REMARK VINA RESULT:      -4.9     18.965     19.756
REMARK  8 active torsions:
REMARK  status: ('A' for Active; 'I' for Inactive)
REMARK    1  A    between atoms: N_2  and  C_7 
REMARK       I    between atoms: N_2  and  C_3 
REMARK    2  A    between atoms: C_3  and  C_14 
REMARK    3  A    between atoms: Se_4  and  C_5 
REMARK    4  A    between atoms: C_5  and  C_7 
REMARK    5  A    between atoms: C_7  and  C_20 
REMARK    6  A    between atoms: N_11  and  C_14 
REMARK    7  A    between atoms: C_14  and  C_19 
REMARK    8  A    between atoms: C_17  and  C_19 
ROOT
HETATM    1  N           1     -12.142   5.110 -20.362  0.00  0.00    -0.345 N 
HETATM    2  C           1     -11.457   6.188 -20.856  0.00  0.00     0.249 C 
HETATM    3  O           1     -11.735   6.633 -21.943  0.00  0.00    -0.271 OA
HETATM    4  H           1     -11.910   4.737 -19.451  0.00  0.00     0.163 HD
ENDROOT
BRANCH   2   5
HETATM    5  C           1     -10.355   6.819 -20.041  0.00  0.00     0.275 C 
BRANCH   5   6
HETATM    6  N           1      -9.780   5.798 -19.104  0.00  0.00    -0.066 N 
HETATM    7  H           1      -9.018   6.235 -18.538  0.00  0.00     0.275 HD
HETATM    8  H           1     -10.530   5.447 -18.468  0.00  0.00     0.275 HD
HETATM    9  H           1      -9.391   5.000 -19.656  0.00  0.00     0.275 HD
ENDBRANCH   5   6
BRANCH   5  10
HETATM   10  C           1      -9.261   7.327 -20.971  0.00  0.00     0.046 C 
BRANCH  10  11
HETATM   11  C           1      -9.215   8.847 -20.919  0.00  0.00    -0.020 C 
HETATM   12  C           1     -10.105   9.342 -19.786  0.00  0.00     0.009 C 
HETATM   13  C           1      -9.714   9.417 -22.240  0.00  0.00     0.009 C 
ENDBRANCH  10  11
ENDBRANCH   5  10
ENDBRANCH   2   5
BRANCH   1  14
HETATM   14  C           1     -13.201   4.503 -21.145  0.00  0.00     0.185 C 
BRANCH  14  15
HETATM   15  C           1     -13.046   2.988 -21.119  0.00  0.00     0.039 C 
BRANCH  15  16
HETATM   16 Se           1     -11.189   2.531 -20.739  0.00  0.00     0.000 Se
HETATM   17  H           1     -11.436   1.082 -20.682  0.00  0.00     0.000 HD
ENDBRANCH  15  16
ENDBRANCH  14  15
BRANCH  14  18
HETATM   18  C           1     -14.539   4.882 -20.559  0.00  0.00     0.196 C 
HETATM   19  O           1     -15.441   5.329 -21.299  0.00  0.00    -0.646 OA
HETATM   20  O           1     -14.745   4.750 -19.333  0.00  0.00    -0.646 OA
ENDBRANCH  14  18
ENDBRANCH   1  14
TORSDOF 8
ENDMDL
MODEL 6
REMARK VINA RESULT:      -4.8      2.085      2.644
REMARK  8 active torsions:
REMARK  status: ('A' for Active; 'I' for Inactive)
REMARK    1  A    between atoms: N_2  and  C_7 
REMARK       I    between atoms: N_2  and  C_3 
REMARK    2  A    between atoms: C_3  and  C_14 
REMARK    3  A    between atoms: Se_4  and  C_5 
REMARK    4  A    between atoms: C_5  and  C_7 
REMARK    5  A    between atoms: C_7  and  C_20 
REMARK    6  A    between atoms: N_11  and  C_14 
REMARK    7  A    between atoms: C_14  and  C_19 
REMARK    8  A    between atoms: C_17  and  C_19 
ROOT
HETATM    1  N           1     -27.261  -6.373 -18.226  0.00  0.00    -0.345 N 
HETATM    2  C           1     -26.028  -6.632 -18.763  0.00  0.00     0.249 C 
HETATM    3  O           1     -25.050  -6.626 -18.056  0.00  0.00    -0.271 OA
HETATM    4  H           1     -28.082  -6.379 -18.818  0.00  0.00     0.163 HD
ENDROOT
BRANCH   2   5
HETATM    5  C           1     -25.894  -6.926 -20.236  0.00  0.00     0.275 C 
BRANCH   5   6
HETATM    6  N           1     -26.739  -5.964 -21.017  0.00  0.00    -0.066 N 
HETATM    7  H           1     -26.978  -5.143 -20.416  0.00  0.00     0.275 HD
HETATM    8  H           1     -26.212  -5.638 -21.858  0.00  0.00     0.275 HD
HETATM    9  H           1     -27.618  -6.441 -21.321  0.00  0.00     0.275 HD
ENDBRANCH   5   6
BRANCH   5  10
HETATM   10  C           1     -24.437  -6.774 -20.654  0.00  0.00     0.046 C 
BRANCH  10  11
HETATM   11  C           1     -23.997  -8.011 -21.424  0.00  0.00    -0.020 C 
HETATM   12  C           1     -22.664  -8.502 -20.876  0.00  0.00     0.009 C 
HETATM   13  C           1     -23.842  -7.663 -22.899  0.00  0.00     0.009 C 
ENDBRANCH  10  11
ENDBRANCH   5  10
ENDBRANCH   2   5
BRANCH   1  14
HETATM   14  C           1     -27.392  -6.090 -16.810  0.00  0.00     0.185 C 
BRANCH  14  15
HETATM   15  C           1     -28.095  -4.753 -16.622  0.00  0.00     0.039 C 
BRANCH  15  16
HETATM   16 Se           1     -29.350  -4.467 -18.086  0.00  0.00     0.000 Se
HETATM   17  H           1     -28.396  -3.708 -18.911  0.00  0.00     0.000 HD
ENDBRANCH  15  16
ENDBRANCH  14  15
BRANCH  14  18
HETATM   18  C           1     -28.201  -7.182 -16.153  0.00  0.00     0.196 C 
HETATM   19  O           1     -27.882  -7.601 -15.020  0.00  0.00    -0.646 OA
HETATM   20  O           1     -29.191  -7.667 -16.743  0.00  0.00    -0.646 OA
ENDBRANCH  14  18
ENDBRANCH   1  14
TORSDOF 8
ENDMDL
MODEL 7
REMARK VINA RESULT:      -4.7     15.851     16.906
REMARK  8 active torsions:
REMARK  status: ('A' for Active; 'I' for Inactive)
REMARK    1  A    between atoms: N_2  and  C_7 
REMARK       I    between atoms: N_2  and  C_3 
REMARK    2  A    between atoms: C_3  and  C_14 
REMARK    3  A    between atoms: Se_4  and  C_5 
REMARK    4  A    between atoms: C_5  and  C_7 
REMARK    5  A    between atoms: C_7  and  C_20 
REMARK    6  A    between atoms: N_11  and  C_14 
REMARK    7  A    between atoms: C_14  and  C_19 
REMARK    8  A    between atoms: C_17  and  C_19 
ROOT
HETATM    1  N           1     -20.953  -7.947  -2.522  0.00  0.00    -0.345 N 
HETATM    2  C           1     -21.051  -8.370  -3.821  0.00  0.00     0.249 C 
HETATM    3  O           1     -21.829  -9.245  -4.113  0.00  0.00    -0.271 OA
HETATM    4  H           1     -20.301  -7.213  -2.276  0.00  0.00     0.163 HD
ENDROOT
BRANCH   2   5
HETATM    5  C           1     -20.185  -7.742  -4.886  0.00  0.00     0.275 C 
BRANCH   5   6
HETATM    6  N           1     -19.426  -8.814  -5.609  0.00  0.00    -0.066 N 
HETATM    7  H           1     -18.722  -9.238  -4.964  0.00  0.00     0.275 HD
HETATM    8  H           1     -20.091  -9.553  -5.934  0.00  0.00     0.275 HD
HETATM    9  H           1     -18.939  -8.398  -6.435  0.00  0.00     0.275 HD
ENDBRANCH   5   6
BRANCH   5  10
HETATM   10  C           1     -21.064  -6.988  -5.875  0.00  0.00     0.046 C 
BRANCH  10  11
HETATM   11  C           1     -20.264  -5.856  -6.505  0.00  0.00    -0.020 C 
HETATM   12  C           1     -20.159  -4.700  -5.519  0.00  0.00     0.009 C 
HETATM   13  C           1     -20.966  -5.381  -7.770  0.00  0.00     0.009 C 
ENDBRANCH  10  11
ENDBRANCH   5  10
ENDBRANCH   2   5
BRANCH   1  14
HETATM   14  C           1     -21.784  -8.551  -1.498  0.00  0.00     0.185 C 
BRANCH  14  15
HETATM   15  C           1     -20.916  -9.394  -0.573  0.00  0.00     0.039 C 
BRANCH  15  16
HETATM   16 Se           1     -21.770 -11.120  -0.274  0.00  0.00     0.000 Se
HETATM   17  H           1     -22.646 -11.021  -1.453  0.00  0.00     0.000 HD
ENDBRANCH  15  16
ENDBRANCH  14  15
BRANCH  14  18
HETATM   18  C           1     -22.465  -7.466  -0.701  0.00  0.00     0.196 C 
HETATM   19  O           1     -23.025  -7.743   0.381  0.00  0.00    -0.646 OA
HETATM   20  O           1     -22.469  -6.288  -1.123  0.00  0.00    -0.646 OA
ENDBRANCH  14  18
ENDBRANCH   1  14
TORSDOF 8
ENDMDL
MODEL 8
REMARK VINA RESULT:      -4.7     16.540     18.075
REMARK  8 active torsions:
REMARK  status: ('A' for Active; 'I' for Inactive)
REMARK    1  A    between atoms: N_2  and  C_7 
REMARK       I    between atoms: N_2  and  C_3 
REMARK    2  A    between atoms: C_3  and  C_14 
REMARK    3  A    between atoms: Se_4  and  C_5 
REMARK    4  A    between atoms: C_5  and  C_7 
REMARK    5  A    between atoms: C_7  and  C_20 
REMARK    6  A    between atoms: N_11  and  C_14 
REMARK    7  A    between atoms: C_14  and  C_19 
REMARK    8  A    between atoms: C_17  and  C_19 
ROOT
HETATM    1  N           1     -20.388  -8.648  -3.672  0.00  0.00    -0.345 N 
HETATM    2  C           1     -21.054  -7.473  -3.448  0.00  0.00     0.249 C 
HETATM    3  O           1     -21.403  -6.791  -4.381  0.00  0.00    -0.271 OA
HETATM    4  H           1     -20.096  -9.221  -2.890  0.00  0.00     0.163 HD
ENDROOT
BRANCH   2   5
HETATM    5  C           1     -21.353  -7.032  -2.036  0.00  0.00     0.275 C 
BRANCH   5   6
HETATM    6  N           1     -22.392  -5.951  -2.061  0.00  0.00    -0.066 N 
HETATM    7  H           1     -23.339  -6.375  -1.941  0.00  0.00     0.275 HD
HETATM    8  H           1     -22.211  -5.276  -1.284  0.00  0.00     0.275 HD
HETATM    9  H           1     -22.348  -5.447  -2.975  0.00  0.00     0.275 HD
ENDBRANCH   5   6
BRANCH   5  10
HETATM   10  C           1     -21.873  -8.217  -1.233  0.00  0.00     0.046 C 
BRANCH  10  11
HETATM   11  C           1     -22.028  -7.812   0.226  0.00  0.00    -0.020 C 
HETATM   12  C           1     -21.088  -8.648   1.086  0.00  0.00     0.009 C 
HETATM   13  C           1     -23.465  -8.050   0.670  0.00  0.00     0.009 C 
ENDBRANCH  10  11
ENDBRANCH   5  10
ENDBRANCH   2   5
BRANCH   1  14
HETATM   14  C           1     -20.101  -9.073  -5.028  0.00  0.00     0.185 C 
BRANCH  14  15
HETATM   15  C           1     -18.613  -9.370  -5.162  0.00  0.00     0.039 C 
BRANCH  15  16
HETATM   16 Se           1     -17.860  -9.725  -3.399  0.00  0.00     0.000 Se
HETATM   17  H           1     -18.782  -8.821  -2.695  0.00  0.00     0.000 HD
ENDBRANCH  15  16
ENDBRANCH  14  15
BRANCH  14  18
HETATM   18  C           1     -20.893 -10.318  -5.343  0.00  0.00     0.196 C 
HETATM   19  O           1     -21.696 -10.777  -4.502  0.00  0.00    -0.646 OA
HETATM   20  O           1     -20.747 -10.891  -6.444  0.00  0.00    -0.646 OA
ENDBRANCH  14  18
ENDBRANCH   1  14
TORSDOF 8
ENDMDL
MODEL 9
REMARK VINA RESULT:      -4.7     16.536     18.053
REMARK  8 active torsions:
REMARK  status: ('A' for Active; 'I' for Inactive)
REMARK    1  A    between atoms: N_2  and  C_7 
REMARK       I    between atoms: N_2  and  C_3 
REMARK    2  A    between atoms: C_3  and  C_14 
REMARK    3  A    between atoms: Se_4  and  C_5 
REMARK    4  A    between atoms: C_5  and  C_7 
REMARK    5  A    between atoms: C_7  and  C_20 
REMARK    6  A    between atoms: N_11  and  C_14 
REMARK    7  A    between atoms: C_14  and  C_19 
REMARK    8  A    between atoms: C_17  and  C_19 
ROOT
HETATM    1  N           1     -21.272  -8.672  -3.384  0.00  0.00    -0.345 N 
HETATM    2  C           1     -20.632  -8.951  -2.206  0.00  0.00     0.249 C 
HETATM    3  O           1     -19.862  -8.150  -1.735  0.00  0.00    -0.271 OA
HETATM    4  H           1     -21.919  -9.343  -3.780  0.00  0.00     0.163 HD
ENDROOT
BRANCH   2   5
HETATM    5  C           1     -20.891 -10.258  -1.498  0.00  0.00     0.275 C 
BRANCH   5   6
HETATM    6  N           1     -19.593 -10.984  -1.301  0.00  0.00    -0.066 N 
HETATM    7  H           1     -19.644 -11.558  -0.429  0.00  0.00     0.275 HD
HETATM    8  H           1     -19.414 -11.608  -2.119  0.00  0.00     0.275 HD
HETATM    9  H           1     -18.816 -10.290  -1.217  0.00  0.00     0.275 HD
ENDBRANCH   5   6
BRANCH   5  10
HETATM   10  C           1     -21.530  -9.984  -0.143  0.00  0.00     0.046 C 
BRANCH  10  11
HETATM   11  C           1     -22.946  -9.463  -0.345  0.00  0.00    -0.020 C 
HETATM   12  C           1     -23.179  -8.264   0.564  0.00  0.00     0.009 C 
HETATM   13  C           1     -23.945 -10.560  -0.002  0.00  0.00     0.009 C 
ENDBRANCH  10  11
ENDBRANCH   5  10
ENDBRANCH   2   5
BRANCH   1  14
HETATM   14  C           1     -21.024  -7.416  -4.065  0.00  0.00     0.185 C 
BRANCH  14  15
HETATM   15  C           1     -20.891  -7.669  -5.562  0.00  0.00     0.039 C 
BRANCH  15  16
HETATM   16 Se           1     -20.021  -6.142  -6.404  0.00  0.00     0.000 Se
HETATM   17  H           1     -21.213  -5.732  -7.162  0.00  0.00     0.000 HD
ENDBRANCH  15  16
ENDBRANCH  14  15
BRANCH  14  18
HETATM   18  C           1     -22.175  -6.474  -3.814  0.00  0.00     0.196 C 
HETATM   19  O           1     -22.967  -6.193  -4.739  0.00  0.00    -0.646 OA
HETATM   20  O           1     -22.338  -5.973  -2.680  0.00  0.00    -0.646 OA
ENDBRANCH  14  18
ENDBRANCH   1  14
TORSDOF 8
ENDMDL
