MODEL 1
REMARK VINA RESULT:      -6.3      0.000      0.000
REMARK  10 active torsions:
REMARK  status: ('A' for Active; 'I' for Inactive)
REMARK    1  A    between atoms: C_2  and  C_14 
REMARK    2  A    between atoms: C_2  and  C_3 
REMARK    3  A    between atoms: C_3  and  C_13 
REMARK    4  A    between atoms: C_5  and  C_20 
REMARK    5  A    between atoms: C_5  and  C_6 
REMARK    6  A    between atoms: C_5  and  N_9 
REMARK    7  A    between atoms: C_6  and  C_7 
REMARK    8  A    between atoms: C_7  and  S_15 
REMARK    9  A    between atoms: N_11  and  C_13 
REMARK       I    between atoms: N_11  and  C_20 
REMARK   10  A    between atoms: C_13  and  C_19 
ROOT
HETATM    1  O           1     -33.844  -1.730 -11.290  0.00  0.00    -0.271 OA
HETATM    2  H           1     -35.827  -2.070 -13.698  0.00  0.00     0.163 HD
HETATM    3  N           1     -35.339  -1.602 -12.946  0.00  0.00    -0.345 N 
HETATM    4  C           1     -34.428  -2.289 -12.189  0.00  0.00     0.249 C 
ENDROOT
BRANCH   3   5
HETATM    5  C           1     -35.603  -0.204 -12.670  0.00  0.00     0.186 C 
BRANCH   5   6
HETATM    6  C           1     -36.125   0.472 -13.930  0.00  0.00     0.046 C 
BRANCH   6   7
HETATM    7  C           1     -35.112   0.303 -15.055  0.00  0.00     0.116 C 
BRANCH   7   8
HETATM    8  C           1     -35.595  -0.759 -16.012  0.00  0.00     0.172 C 
HETATM    9  O           1     -36.433  -0.472 -16.893  0.00  0.00    -0.648 OA
HETATM   10  O           1     -35.155  -1.926 -15.924  0.00  0.00    -0.648 OA
ENDBRANCH   7   8
ENDBRANCH   6   7
ENDBRANCH   5   6
BRANCH   5  11
HETATM   11  C           1     -36.636  -0.094 -11.574  0.00  0.00     0.196 C 
HETATM   12  O           1     -37.763  -0.612 -11.724  0.00  0.00    -0.646 OA
HETATM   13  O           1     -36.362   0.515 -10.517  0.00  0.00    -0.646 OA
ENDBRANCH   5  11
ENDBRANCH   3   5
BRANCH   4  14
HETATM   14  C           1     -34.152  -3.744 -12.476  0.00  0.00     0.275 C 
BRANCH  14  15
HETATM   15  C           1     -32.913  -4.189 -11.712  0.00  0.00     0.053 C 
BRANCH  15  16
HETATM   16  C           1     -33.101  -5.618 -11.224  0.00  0.00     0.076 C 
BRANCH  16  17
HETATM   17  S           1     -34.715  -5.773 -10.408  0.00  0.00    -0.173 SA
HETATM   18  C           1     -34.665  -7.576 -10.206  0.00  0.00     0.089 C 
ENDBRANCH  16  17
ENDBRANCH  15  16
ENDBRANCH  14  15
BRANCH  14  19
HETATM   19  N           1     -33.925  -3.929 -13.947  0.00  0.00    -0.066 N 
HETATM   20  H           1     -32.951  -4.274 -14.108  0.00  0.00     0.275 HD
HETATM   21  H           1     -34.056  -3.017 -14.438  0.00  0.00     0.275 HD
HETATM   22  H           1     -34.608  -4.627 -14.320  0.00  0.00     0.275 HD
ENDBRANCH  14  19
ENDBRANCH   4  14
TORSDOF 10
ENDMDL
MODEL 2
REMARK VINA RESULT:      -5.8      1.802      3.772
REMARK  10 active torsions:
REMARK  status: ('A' for Active; 'I' for Inactive)
REMARK    1  A    between atoms: C_2  and  C_14 
REMARK    2  A    between atoms: C_2  and  C_3 
REMARK    3  A    between atoms: C_3  and  C_13 
REMARK    4  A    between atoms: C_5  and  C_20 
REMARK    5  A    between atoms: C_5  and  C_6 
REMARK    6  A    between atoms: C_5  and  N_9 
REMARK    7  A    between atoms: C_6  and  C_7 
REMARK    8  A    between atoms: C_7  and  S_15 
REMARK    9  A    between atoms: N_11  and  C_13 
REMARK       I    between atoms: N_11  and  C_20 
REMARK   10  A    between atoms: C_13  and  C_19 
ROOT
HETATM    1  O           1     -34.672  -2.668 -13.306  0.00  0.00    -0.271 OA
HETATM    2  H           1     -35.248  -0.325 -11.301  0.00  0.00     0.163 HD
HETATM    3  N           1     -35.363  -0.904 -12.123  0.00  0.00    -0.345 N 
HETATM    4  C           1     -34.535  -1.976 -12.325  0.00  0.00     0.249 C 
ENDROOT
BRANCH   3   5
HETATM    5  C           1     -36.404  -0.601 -13.084  0.00  0.00     0.186 C 
BRANCH   5   6
HETATM    6  C           1     -37.621  -0.048 -12.356  0.00  0.00     0.046 C 
BRANCH   6   7
HETATM    7  C           1     -37.669  -0.612 -10.943  0.00  0.00     0.116 C 
BRANCH   7   8
HETATM    8  C           1     -37.254   0.455  -9.960  0.00  0.00     0.172 C 
HETATM    9  O           1     -36.176   0.347  -9.338  0.00  0.00    -0.648 OA
HETATM   10  O           1     -37.990   1.447  -9.767  0.00  0.00    -0.648 OA
ENDBRANCH   7   8
ENDBRANCH   6   7
ENDBRANCH   5   6
BRANCH   5  11
HETATM   11  C           1     -35.896   0.425 -14.068  0.00  0.00     0.196 C 
HETATM   12  O           1     -36.428   0.528 -15.194  0.00  0.00    -0.646 OA
HETATM   13  O           1     -34.944   1.173 -13.756  0.00  0.00    -0.646 OA
ENDBRANCH   5  11
ENDBRANCH   3   5
BRANCH   4  14
HETATM   14  C           1     -33.451  -2.293 -11.325  0.00  0.00     0.275 C 
BRANCH  14  15
HETATM   15  C           1     -33.095  -3.770 -11.410  0.00  0.00     0.053 C 
BRANCH  15  16
HETATM   16  C           1     -34.006  -4.567 -10.486  0.00  0.00     0.076 C 
BRANCH  16  17
HETATM   17  S           1     -34.602  -6.048 -11.350  0.00  0.00    -0.173 SA
HETATM   18  C           1     -34.832  -7.065  -9.865  0.00  0.00     0.089 C 
ENDBRANCH  16  17
ENDBRANCH  15  16
ENDBRANCH  14  15
BRANCH  14  19
HETATM   19  N           1     -33.939  -1.976  -9.943  0.00  0.00    -0.066 N 
HETATM   20  H           1     -34.107  -2.865  -9.420  0.00  0.00     0.275 HD
HETATM   21  H           1     -34.831  -1.435 -10.002  0.00  0.00     0.275 HD
HETATM   22  H           1     -33.219  -1.407  -9.441  0.00  0.00     0.275 HD
ENDBRANCH  14  19
ENDBRANCH   4  14
TORSDOF 10
ENDMDL
MODEL 3
REMARK VINA RESULT:      -5.5     13.280     15.370
REMARK  10 active torsions:
REMARK  status: ('A' for Active; 'I' for Inactive)
REMARK    1  A    between atoms: C_2  and  C_14 
REMARK    2  A    between atoms: C_2  and  C_3 
REMARK    3  A    between atoms: C_3  and  C_13 
REMARK    4  A    between atoms: C_5  and  C_20 
REMARK    5  A    between atoms: C_5  and  C_6 
REMARK    6  A    between atoms: C_5  and  N_9 
REMARK    7  A    between atoms: C_6  and  C_7 
REMARK    8  A    between atoms: C_7  and  S_15 
REMARK    9  A    between atoms: N_11  and  C_13 
REMARK       I    between atoms: N_11  and  C_20 
REMARK   10  A    between atoms: C_13  and  C_19 
ROOT
HETATM    1  O           1     -21.201  -7.342  -6.611  0.00  0.00    -0.271 OA
HETATM    2  H           1     -21.396  -4.279  -5.964  0.00  0.00     0.163 HD
HETATM    3  N           1     -21.388  -5.118  -6.529  0.00  0.00    -0.345 N 
HETATM    4  C           1     -21.210  -6.339  -5.937  0.00  0.00     0.249 C 
ENDROOT
BRANCH   3   5
HETATM    5  C           1     -21.566  -5.028  -7.965  0.00  0.00     0.186 C 
BRANCH   5   6
HETATM    6  C           1     -22.635  -3.991  -8.279  0.00  0.00     0.046 C 
BRANCH   6   7
HETATM    7  C           1     -23.616  -4.563  -9.294  0.00  0.00     0.116 C 
BRANCH   7   8
HETATM    8  C           1     -23.838  -3.562 -10.401  0.00  0.00     0.172 C 
HETATM    9  O           1     -22.862  -3.101 -11.031  0.00  0.00    -0.648 OA
HETATM   10  O           1     -24.997  -3.194 -10.688  0.00  0.00    -0.648 OA
ENDBRANCH   7   8
ENDBRANCH   6   7
ENDBRANCH   5   6
BRANCH   5  11
HETATM   11  C           1     -20.263  -4.619  -8.608  0.00  0.00     0.196 C 
HETATM   12  O           1     -20.104  -4.759  -9.840  0.00  0.00    -0.646 OA
HETATM   13  O           1     -19.345  -4.138  -7.909  0.00  0.00    -0.646 OA
ENDBRANCH   5  11
ENDBRANCH   3   5
BRANCH   4  14
HETATM   14  C           1     -21.025  -6.434  -4.443  0.00  0.00     0.275 C 
BRANCH  14  15
HETATM   15  C           1     -20.565  -7.838  -4.074  0.00  0.00     0.053 C 
BRANCH  15  16
HETATM   16  C           1     -20.694  -8.037  -2.570  0.00  0.00     0.076 C 
BRANCH  16  17
HETATM   17  S           1     -21.465  -9.646  -2.235  0.00  0.00    -0.173 SA
HETATM   18  C           1     -21.867 -10.038  -3.961  0.00  0.00     0.089 C 
ENDBRANCH  16  17
ENDBRANCH  15  16
ENDBRANCH  14  15
BRANCH  14  19
HETATM   19  N           1     -22.327  -6.140  -3.759  0.00  0.00    -0.066 N 
HETATM   20  H           1     -22.376  -6.670  -2.859  0.00  0.00     0.275 HD
HETATM   21  H           1     -23.119  -6.430  -4.376  0.00  0.00     0.275 HD
HETATM   22  H           1     -22.394  -5.115  -3.563  0.00  0.00     0.275 HD
ENDBRANCH  14  19
ENDBRANCH   4  14
TORSDOF 10
ENDMDL
MODEL 4
REMARK VINA RESULT:      -5.4      3.330      6.603
REMARK  10 active torsions:
REMARK  status: ('A' for Active; 'I' for Inactive)
REMARK    1  A    between atoms: C_2  and  C_14 
REMARK    2  A    between atoms: C_2  and  C_3 
REMARK    3  A    between atoms: C_3  and  C_13 
REMARK    4  A    between atoms: C_5  and  C_20 
REMARK    5  A    between atoms: C_5  and  C_6 
REMARK    6  A    between atoms: C_5  and  N_9 
REMARK    7  A    between atoms: C_6  and  C_7 
REMARK    8  A    between atoms: C_7  and  S_15 
REMARK    9  A    between atoms: N_11  and  C_13 
REMARK       I    between atoms: N_11  and  C_20 
REMARK   10  A    between atoms: C_13  and  C_19 
ROOT
HETATM    1  O           1     -34.485  -1.457 -10.113  0.00  0.00    -0.271 OA
HETATM    2  H           1     -36.198  -3.262 -12.024  0.00  0.00     0.163 HD
HETATM    3  N           1     -35.432  -3.007 -11.414  0.00  0.00    -0.345 N 
HETATM    4  C           1     -35.399  -1.763 -10.843  0.00  0.00     0.249 C 
ENDROOT
BRANCH   3   5
HETATM    5  C           1     -34.372  -3.957 -11.144  0.00  0.00     0.186 C 
BRANCH   5   6
HETATM    6  C           1     -34.964  -5.354 -11.010  0.00  0.00     0.046 C 
BRANCH   6   7
HETATM    7  C           1     -33.845  -6.362 -10.785  0.00  0.00     0.116 C 
BRANCH   7   8
HETATM    8  C           1     -34.392  -7.571 -10.067  0.00  0.00     0.172 C 
HETATM    9  O           1     -33.743  -8.638 -10.058  0.00  0.00    -0.648 OA
HETATM   10  O           1     -35.495  -7.504  -9.482  0.00  0.00    -0.648 OA
ENDBRANCH   7   8
ENDBRANCH   6   7
ENDBRANCH   5   6
BRANCH   5  11
HETATM   11  C           1     -33.378  -3.938 -12.279  0.00  0.00     0.196 C 
HETATM   12  O           1     -33.778  -3.822 -13.457  0.00  0.00    -0.646 OA
HETATM   13  O           1     -32.155  -4.038 -12.041  0.00  0.00    -0.646 OA
ENDBRANCH   5  11
ENDBRANCH   3   5
BRANCH   4  14
HETATM   14  C           1     -36.502  -0.773 -11.123  0.00  0.00     0.275 C 
BRANCH  14  15
HETATM   15  C           1     -36.498  -0.411 -12.602  0.00  0.00     0.053 C 
BRANCH  15  16
HETATM   16  C           1     -35.295   0.470 -12.907  0.00  0.00     0.076 C 
BRANCH  16  17
HETATM   17  S           1     -35.136   0.679 -14.703  0.00  0.00    -0.173 SA
HETATM   18  C           1     -36.851   0.247 -15.107  0.00  0.00     0.089 C 
ENDBRANCH  16  17
ENDBRANCH  15  16
ENDBRANCH  14  15
BRANCH  14  19
HETATM   19  N           1     -36.282   0.465 -10.306  0.00  0.00    -0.066 N 
HETATM   20  H           1     -36.095   0.199  -9.314  0.00  0.00     0.275 HD
HETATM   21  H           1     -37.134   1.069 -10.350  0.00  0.00     0.275 HD
HETATM   22  H           1     -35.462   0.992 -10.687  0.00  0.00     0.275 HD
ENDBRANCH  14  19
ENDBRANCH   4  14
TORSDOF 10
ENDMDL
MODEL 5
REMARK VINA RESULT:      -5.2     15.191     17.660
REMARK  10 active torsions:
REMARK  status: ('A' for Active; 'I' for Inactive)
REMARK    1  A    between atoms: C_2  and  C_14 
REMARK    2  A    between atoms: C_2  and  C_3 
REMARK    3  A    between atoms: C_3  and  C_13 
REMARK    4  A    between atoms: C_5  and  C_20 
REMARK    5  A    between atoms: C_5  and  C_6 
REMARK    6  A    between atoms: C_5  and  N_9 
REMARK    7  A    between atoms: C_6  and  C_7 
REMARK    8  A    between atoms: C_7  and  S_15 
REMARK    9  A    between atoms: N_11  and  C_13 
REMARK       I    between atoms: N_11  and  C_20 
REMARK   10  A    between atoms: C_13  and  C_19 
ROOT
HETATM    1  O           1     -19.651  -7.361  -5.851  0.00  0.00    -0.271 OA
HETATM    2  H           1     -22.531  -7.590  -4.627  0.00  0.00     0.163 HD
HETATM    3  N           1     -21.561  -7.827  -4.790  0.00  0.00    -0.345 N 
HETATM    4  C           1     -20.810  -7.079  -5.656  0.00  0.00     0.249 C 
ENDROOT
BRANCH   3   5
HETATM    5  C           1     -20.966  -8.958  -4.106  0.00  0.00     0.186 C 
BRANCH   5   6
HETATM    6  C           1     -21.423  -8.970  -2.653  0.00  0.00     0.046 C 
BRANCH   6   7
HETATM    7  C           1     -20.936  -7.706  -1.956  0.00  0.00     0.116 C 
BRANCH   7   8
HETATM    8  C           1     -22.108  -6.793  -1.692  0.00  0.00     0.172 C 
HETATM    9  O           1     -22.726  -6.866  -0.609  0.00  0.00    -0.648 OA
HETATM   10  O           1     -22.461  -5.963  -2.558  0.00  0.00    -0.648 OA
ENDBRANCH   7   8
ENDBRANCH   6   7
ENDBRANCH   5   6
BRANCH   5  11
HETATM   11  C           1     -21.397 -10.238  -4.780  0.00  0.00     0.196 C 
HETATM   12  O           1     -22.126 -11.049  -4.171  0.00  0.00    -0.646 OA
HETATM   13  O           1     -21.026 -10.484  -5.948  0.00  0.00    -0.646 OA
ENDBRANCH   5  11
ENDBRANCH   3   5
BRANCH   4  14
HETATM   14  C           1     -21.429  -5.901  -6.369  0.00  0.00     0.275 C 
BRANCH  14  15
HETATM   15  C           1     -20.471  -4.719  -6.328  0.00  0.00     0.053 C 
BRANCH  15  16
HETATM   16  C           1     -20.829  -3.735  -7.433  0.00  0.00     0.076 C 
BRANCH  16  17
HETATM   17  S           1     -20.413  -4.457  -9.046  0.00  0.00    -0.173 SA
HETATM   18  C           1     -22.094  -4.403  -9.728  0.00  0.00     0.089 C 
ENDBRANCH  16  17
ENDBRANCH  15  16
ENDBRANCH  14  15
BRANCH  14  19
HETATM   19  N           1     -22.713  -5.526  -5.691  0.00  0.00    -0.066 N 
HETATM   20  H           1     -23.391  -5.168  -6.402  0.00  0.00     0.275 HD
HETATM   21  H           1     -22.529  -4.782  -4.981  0.00  0.00     0.275 HD
HETATM   22  H           1     -23.116  -6.367  -5.218  0.00  0.00     0.275 HD
ENDBRANCH  14  19
ENDBRANCH   4  14
TORSDOF 10
ENDMDL
MODEL 6
REMARK VINA RESULT:      -5.1      2.956      6.104
REMARK  10 active torsions:
REMARK  status: ('A' for Active; 'I' for Inactive)
REMARK    1  A    between atoms: C_2  and  C_14 
REMARK    2  A    between atoms: C_2  and  C_3 
REMARK    3  A    between atoms: C_3  and  C_13 
REMARK    4  A    between atoms: C_5  and  C_20 
REMARK    5  A    between atoms: C_5  and  C_6 
REMARK    6  A    between atoms: C_5  and  N_9 
REMARK    7  A    between atoms: C_6  and  C_7 
REMARK    8  A    between atoms: C_7  and  S_15 
REMARK    9  A    between atoms: N_11  and  C_13 
REMARK       I    between atoms: N_11  and  C_20 
REMARK   10  A    between atoms: C_13  and  C_19 
ROOT
HETATM    1  O           1     -36.979  -1.102 -11.408  0.00  0.00    -0.271 OA
HETATM    2  H           1     -34.804  -2.184 -13.392  0.00  0.00     0.163 HD
HETATM    3  N           1     -35.315  -2.089 -12.525  0.00  0.00    -0.345 N 
HETATM    4  C           1     -36.367  -1.216 -12.444  0.00  0.00     0.249 C 
ENDROOT
BRANCH   3   5
HETATM    5  C           1     -34.936  -2.876 -11.369  0.00  0.00     0.186 C 
BRANCH   5   6
HETATM    6  C           1     -34.993  -4.356 -11.723  0.00  0.00     0.046 C 
BRANCH   6   7
HETATM    7  C           1     -35.296  -5.168 -10.470  0.00  0.00     0.116 C 
BRANCH   7   8
HETATM    8  C           1     -34.423  -6.398 -10.443  0.00  0.00     0.172 C 
HETATM    9  O           1     -33.292  -6.374 -10.973  0.00  0.00    -0.648 OA
HETATM   10  O           1     -34.832  -7.442  -9.889  0.00  0.00    -0.648 OA
ENDBRANCH   7   8
ENDBRANCH   6   7
ENDBRANCH   5   6
BRANCH   5  11
HETATM   11  C           1     -33.533  -2.512 -10.950  0.00  0.00     0.196 C 
HETATM   12  O           1     -33.344  -1.569 -10.152  0.00  0.00    -0.646 OA
HETATM   13  O           1     -32.559  -3.155 -11.400  0.00  0.00    -0.646 OA
ENDBRANCH   5  11
ENDBRANCH   3   5
BRANCH   4  14
HETATM   14  C           1     -36.763  -0.396 -13.646  0.00  0.00     0.275 C 
BRANCH  14  15
HETATM   15  C           1     -35.696   0.656 -13.919  0.00  0.00     0.053 C 
BRANCH  15  16
HETATM   16  C           1     -35.084   0.416 -15.292  0.00  0.00     0.076 C 
BRANCH  16  17
HETATM   17  S           1     -36.232  -0.560 -16.305  0.00  0.00    -0.173 SA
HETATM   18  C           1     -35.056  -1.878 -16.724  0.00  0.00     0.089 C 
ENDBRANCH  16  17
ENDBRANCH  15  16
ENDBRANCH  14  15
BRANCH  14  19
HETATM   19  N           1     -38.074   0.281 -13.380  0.00  0.00    -0.066 N 
HETATM   20  H           1     -37.906   1.282 -13.130  0.00  0.00     0.275 HD
HETATM   21  H           1     -38.560  -0.197 -12.588  0.00  0.00     0.275 HD
HETATM   22  H           1     -38.672   0.232 -14.236  0.00  0.00     0.275 HD
ENDBRANCH  14  19
ENDBRANCH   4  14
TORSDOF 10
ENDMDL
MODEL 7
REMARK VINA RESULT:      -4.9     14.838     17.671
REMARK  10 active torsions:
REMARK  status: ('A' for Active; 'I' for Inactive)
REMARK    1  A    between atoms: C_2  and  C_14 
REMARK    2  A    between atoms: C_2  and  C_3 
REMARK    3  A    between atoms: C_3  and  C_13 
REMARK    4  A    between atoms: C_5  and  C_20 
REMARK    5  A    between atoms: C_5  and  C_6 
REMARK    6  A    between atoms: C_5  and  N_9 
REMARK    7  A    between atoms: C_6  and  C_7 
REMARK    8  A    between atoms: C_7  and  S_15 
REMARK    9  A    between atoms: N_11  and  C_13 
REMARK       I    between atoms: N_11  and  C_20 
REMARK   10  A    between atoms: C_13  and  C_19 
ROOT
HETATM    1  O           1     -22.616  -5.560  -5.806  0.00  0.00    -0.271 OA
HETATM    2  H           1     -19.787  -6.337  -4.694  0.00  0.00     0.163 HD
HETATM    3  N           1     -20.793  -6.373  -4.804  0.00  0.00    -0.345 N 
HETATM    4  C           1     -21.415  -5.519  -5.673  0.00  0.00     0.249 C 
ENDROOT
BRANCH   3   5
HETATM    5  C           1     -21.572  -7.328  -4.042  0.00  0.00     0.186 C 
BRANCH   5   6
HETATM    6  C           1     -20.905  -8.695  -4.107  0.00  0.00     0.046 C 
BRANCH   6   7
HETATM    7  C           1     -19.532  -8.560  -4.752  0.00  0.00     0.116 C 
BRANCH   7   8
HETATM    8  C           1     -18.537  -9.411  -4.002  0.00  0.00     0.172 C 
HETATM    9  O           1     -17.980 -10.373  -4.575  0.00  0.00    -0.648 OA
HETATM   10  O           1     -18.270  -9.155  -2.808  0.00  0.00    -0.648 OA
ENDBRANCH   7   8
ENDBRANCH   6   7
ENDBRANCH   5   6
BRANCH   5  11
HETATM   11  C           1     -21.656  -6.876  -2.604  0.00  0.00     0.196 C 
HETATM   12  O           1     -22.409  -5.929  -2.290  0.00  0.00    -0.646 OA
HETATM   13  O           1     -20.974  -7.450  -1.728  0.00  0.00    -0.646 OA
ENDBRANCH   5  11
ENDBRANCH   3   5
BRANCH   4  14
HETATM   14  C           1     -20.604  -4.524  -6.467  0.00  0.00     0.275 C 
BRANCH  14  15
HETATM   15  C           1     -21.493  -3.857  -7.508  0.00  0.00     0.053 C 
BRANCH  15  16
HETATM   16  C           1     -20.956  -4.155  -8.901  0.00  0.00     0.076 C 
BRANCH  16  17
HETATM   17  S           1     -22.284  -3.946 -10.120  0.00  0.00    -0.173 SA
HETATM   18  C           1     -23.652  -3.946  -8.927  0.00  0.00     0.089 C 
ENDBRANCH  16  17
ENDBRANCH  15  16
ENDBRANCH  14  15
BRANCH  14  19
HETATM   19  N           1     -19.477  -5.235  -7.155  0.00  0.00    -0.066 N 
HETATM   20  H           1     -19.744  -5.434  -8.146  0.00  0.00     0.275 HD
HETATM   21  H           1     -19.278  -6.134  -6.662  0.00  0.00     0.275 HD
HETATM   22  H           1     -18.623  -4.632  -7.138  0.00  0.00     0.275 HD
ENDBRANCH  14  19
ENDBRANCH   4  14
TORSDOF 10
ENDMDL
MODEL 8
REMARK VINA RESULT:      -4.9     15.277     18.321
REMARK  10 active torsions:
REMARK  status: ('A' for Active; 'I' for Inactive)
REMARK    1  A    between atoms: C_2  and  C_14 
REMARK    2  A    between atoms: C_2  and  C_3 
REMARK    3  A    between atoms: C_3  and  C_13 
REMARK    4  A    between atoms: C_5  and  C_20 
REMARK    5  A    between atoms: C_5  and  C_6 
REMARK    6  A    between atoms: C_5  and  N_9 
REMARK    7  A    between atoms: C_6  and  C_7 
REMARK    8  A    between atoms: C_7  and  S_15 
REMARK    9  A    between atoms: N_11  and  C_13 
REMARK       I    between atoms: N_11  and  C_20 
REMARK   10  A    between atoms: C_13  and  C_19 
ROOT
HETATM    1  O           1     -19.662  -7.986  -5.520  0.00  0.00    -0.271 OA
HETATM    2  H           1     -21.903  -7.058  -3.531  0.00  0.00     0.163 HD
HETATM    3  N           1     -21.106  -7.585  -3.864  0.00  0.00    -0.345 N 
HETATM    4  C           1     -20.614  -7.357  -5.121  0.00  0.00     0.249 C 
ENDROOT
BRANCH   3   5
HETATM    5  C           1     -20.487  -8.581  -3.012  0.00  0.00     0.186 C 
BRANCH   5   6
HETATM    6  C           1     -20.405  -8.049  -1.588  0.00  0.00     0.046 C 
BRANCH   6   7
HETATM    7  C           1     -21.751  -7.460  -1.186  0.00  0.00     0.116 C 
BRANCH   7   8
HETATM    8  C           1     -22.143  -7.981   0.174  0.00  0.00     0.172 C 
HETATM    9  O           1     -23.342  -7.968   0.527  0.00  0.00    -0.648 OA
HETATM   10  O           1     -21.269  -8.426   0.949  0.00  0.00    -0.648 OA
ENDBRANCH   7   8
ENDBRANCH   6   7
ENDBRANCH   5   6
BRANCH   5  11
HETATM   11  C           1     -21.312  -9.844  -3.031  0.00  0.00     0.196 C 
HETATM   12  O           1     -21.086 -10.751  -2.202  0.00  0.00    -0.646 OA
HETATM   13  O           1     -22.224  -9.982  -3.876  0.00  0.00    -0.646 OA
ENDBRANCH   5  11
ENDBRANCH   3   5
BRANCH   4  14
HETATM   14  C           1     -21.258  -6.322  -6.009  0.00  0.00     0.275 C 
BRANCH  14  15
HETATM   15  C           1     -20.346  -5.108  -6.122  0.00  0.00     0.053 C 
BRANCH  15  16
HETATM   16  C           1     -21.050  -4.014  -6.912  0.00  0.00     0.076 C 
BRANCH  16  17
HETATM   17  S           1     -21.296  -4.566  -8.624  0.00  0.00    -0.173 SA
HETATM   18  C           1     -23.026  -4.035  -8.758  0.00  0.00     0.089 C 
ENDBRANCH  16  17
ENDBRANCH  15  16
ENDBRANCH  14  15
BRANCH  14  19
HETATM   19  N           1     -22.572  -5.905  -5.417  0.00  0.00    -0.066 N 
HETATM   20  H           1     -22.457  -5.746  -4.391  0.00  0.00     0.275 HD
HETATM   21  H           1     -23.280  -6.656  -5.575  0.00  0.00     0.275 HD
HETATM   22  H           1     -22.894  -5.020  -5.873  0.00  0.00     0.275 HD
ENDBRANCH  14  19
ENDBRANCH   4  14
TORSDOF 10
ENDMDL
MODEL 9
REMARK VINA RESULT:      -4.8     14.003     16.159
REMARK  10 active torsions:
REMARK  status: ('A' for Active; 'I' for Inactive)
REMARK    1  A    between atoms: C_2  and  C_14 
REMARK    2  A    between atoms: C_2  and  C_3 
REMARK    3  A    between atoms: C_3  and  C_13 
REMARK    4  A    between atoms: C_5  and  C_20 
REMARK    5  A    between atoms: C_5  and  C_6 
REMARK    6  A    between atoms: C_5  and  N_9 
REMARK    7  A    between atoms: C_6  and  C_7 
REMARK    8  A    between atoms: C_7  and  S_15 
REMARK    9  A    between atoms: N_11  and  C_13 
REMARK       I    between atoms: N_11  and  C_20 
REMARK   10  A    between atoms: C_13  and  C_19 
ROOT
HETATM    1  O           1     -20.168  -7.921  -6.048  0.00  0.00    -0.271 OA
HETATM    2  H           1     -22.449  -5.877  -5.365  0.00  0.00     0.163 HD
HETATM    3  N           1     -21.657  -6.265  -5.861  0.00  0.00    -0.345 N 
HETATM    4  C           1     -21.115  -7.456  -5.457  0.00  0.00     0.249 C 
ENDROOT
BRANCH   3   5
HETATM    5  C           1     -21.096  -5.562  -6.997  0.00  0.00     0.186 C 
BRANCH   5   6
HETATM    6  C           1     -22.140  -4.614  -7.572  0.00  0.00     0.046 C 
BRANCH   6   7
HETATM    7  C           1     -21.862  -4.388  -9.052  0.00  0.00     0.116 C 
BRANCH   7   8
HETATM    8  C           1     -23.057  -3.727  -9.694  0.00  0.00     0.172 C 
HETATM    9  O           1     -24.119  -3.595  -9.050  0.00  0.00    -0.648 OA
HETATM   10  O           1     -22.983  -3.311 -10.870  0.00  0.00    -0.648 OA
ENDBRANCH   7   8
ENDBRANCH   6   7
ENDBRANCH   5   6
BRANCH   5  11
HETATM   11  C           1     -19.888  -4.773  -6.554  0.00  0.00     0.196 C 
HETATM   12  O           1     -18.944  -4.577  -7.348  0.00  0.00    -0.646 OA
HETATM   13  O           1     -19.833  -4.314  -5.392  0.00  0.00    -0.646 OA
ENDBRANCH   5  11
ENDBRANCH   3   5
BRANCH   4  14
HETATM   14  C           1     -21.698  -8.189  -4.274  0.00  0.00     0.275 C 
BRANCH  14  15
HETATM   15  C           1     -21.193  -7.558  -2.984  0.00  0.00     0.053 C 
BRANCH  15  16
HETATM   16  C           1     -20.640  -8.642  -2.070  0.00  0.00     0.076 C 
BRANCH  16  17
HETATM   17  S           1     -21.275  -8.399  -0.387  0.00  0.00    -0.173 SA
HETATM   18  C           1     -22.376  -7.013  -0.788  0.00  0.00     0.089 C 
ENDBRANCH  16  17
ENDBRANCH  15  16
ENDBRANCH  14  15
BRANCH  14  19
HETATM   19  N           1     -21.278  -9.628  -4.323  0.00  0.00    -0.066 N 
HETATM   20  H           1     -20.237  -9.691  -4.248  0.00  0.00     0.275 HD
HETATM   21  H           1     -21.587 -10.052  -5.226  0.00  0.00     0.275 HD
HETATM   22  H           1     -21.717 -10.146  -3.527  0.00  0.00     0.275 HD
ENDBRANCH  14  19
ENDBRANCH   4  14
TORSDOF 10
ENDMDL
