MODEL 1
REMARK VINA RESULT:      -6.3      0.000      0.000
REMARK  6 active torsions:
REMARK  status: ('A' for Active; 'I' for Inactive)
REMARK    1  A    between atoms: N_5  and  C_15 
REMARK       I    between atoms: N_5  and  C_17 
REMARK       I    between atoms: C_7  and  N_20 
REMARK    2  A    between atoms: C_7  and  C_12 
REMARK    3  A    between atoms: N_9  and  C_11 
REMARK    4  A    between atoms: C_11  and  C_17 
REMARK    5  A    between atoms: C_12  and  C_15 
REMARK    6  A    between atoms: C_13  and  C_15 
ROOT
HETATM    1  N           1     -27.665  -6.466 -19.054  0.00  0.00    -0.344 N 
HETATM    2  H           1     -27.940  -6.717 -19.995  0.00  0.00     0.163 HD
HETATM    3  C           1     -26.343  -6.471 -18.703  0.00  0.00     0.248 C 
HETATM    4  O           1     -26.015  -6.171 -17.579  0.00  0.00    -0.271 OA
ENDROOT
BRANCH   1   5
HETATM    5  C           1     -28.674  -6.103 -18.078  0.00  0.00     0.194 C 
BRANCH   5   6
HETATM    6  C           1     -29.292  -4.765 -18.459  0.00  0.00     0.138 C 
BRANCH   6   7
HETATM    7  C           1     -28.916  -3.725 -17.432  0.00  0.00     0.217 C 
HETATM    8  O           1     -28.116  -3.993 -16.566  0.00  0.00    -0.274 OA
HETATM    9  N           1     -29.481  -2.479 -17.481  0.00  0.00    -0.370 N 
HETATM   10  H           1     -29.229  -1.782 -16.792  0.00  0.00     0.159 HD
HETATM   11  H           1     -30.150  -2.255 -18.206  0.00  0.00     0.159 HD
ENDBRANCH   6   7
ENDBRANCH   5   6
BRANCH   5  12
HETATM   12  C           1     -29.747  -7.163 -18.046  0.00  0.00     0.197 C 
HETATM   13  O           1     -30.741  -7.024 -17.300  0.00  0.00    -0.646 OA
HETATM   14  O           1     -29.645  -8.179 -18.766  0.00  0.00    -0.646 OA
ENDBRANCH   5  12
ENDBRANCH   1   5
BRANCH   3  15
HETATM   15  C           1     -25.293  -6.848 -19.719  0.00  0.00     0.270 C 
HETATM   16  C           1     -25.922  -7.716 -20.801  0.00  0.00     0.050 C 
BRANCH  15  17
HETATM   17  N           1     -24.193  -7.612 -19.043  0.00  0.00    -0.067 N 
HETATM   18  H           1     -24.608  -8.321 -18.397  0.00  0.00     0.275 HD
HETATM   19  H           1     -23.596  -6.950 -18.498  0.00  0.00     0.275 HD
HETATM   20  H           1     -23.610  -8.095 -19.763  0.00  0.00     0.275 HD
ENDBRANCH  15  17
ENDBRANCH   3  15
TORSDOF 6
ENDMDL
MODEL 2
REMARK VINA RESULT:      -6.2      8.996     10.506
REMARK  6 active torsions:
REMARK  status: ('A' for Active; 'I' for Inactive)
REMARK    1  A    between atoms: N_5  and  C_15 
REMARK       I    between atoms: N_5  and  C_17 
REMARK       I    between atoms: C_7  and  N_20 
REMARK    2  A    between atoms: C_7  and  C_12 
REMARK    3  A    between atoms: N_9  and  C_11 
REMARK    4  A    between atoms: C_11  and  C_17 
REMARK    5  A    between atoms: C_12  and  C_15 
REMARK    6  A    between atoms: C_13  and  C_15 
ROOT
HETATM    1  N           1     -35.211  -1.593 -13.542  0.00  0.00    -0.344 N 
HETATM    2  H           1     -35.355  -2.156 -14.371  0.00  0.00     0.163 HD
HETATM    3  C           1     -34.582  -2.130 -12.451  0.00  0.00     0.248 C 
HETATM    4  O           1     -34.412  -1.458 -11.462  0.00  0.00    -0.271 OA
ENDROOT
BRANCH   1   5
HETATM    5  C           1     -35.674  -0.219 -13.509  0.00  0.00     0.194 C 
BRANCH   5   6
HETATM    6  C           1     -35.464   0.419 -14.876  0.00  0.00     0.138 C 
BRANCH   6   7
HETATM    7  C           1     -35.629  -0.627 -15.951  0.00  0.00     0.217 C 
HETATM    8  O           1     -34.705  -1.352 -16.235  0.00  0.00    -0.274 OA
HETATM    9  N           1     -36.825  -0.755 -16.605  0.00  0.00    -0.370 N 
HETATM   10  H           1     -36.935  -1.456 -17.326  0.00  0.00     0.159 HD
HETATM   11  H           1     -37.599  -0.147 -16.367  0.00  0.00     0.159 HD
ENDBRANCH   6   7
ENDBRANCH   5   6
BRANCH   5  12
HETATM   12  C           1     -37.141  -0.191 -13.160  0.00  0.00     0.197 C 
HETATM   13  O           1     -37.981  -0.683 -13.946  0.00  0.00    -0.646 OA
HETATM   14  O           1     -37.519   0.323 -12.085  0.00  0.00    -0.646 OA
ENDBRANCH   5  12
ENDBRANCH   1   5
BRANCH   3  15
HETATM   15  C           1     -34.101  -3.559 -12.485  0.00  0.00     0.270 C 
HETATM   16  C           1     -32.856  -3.697 -11.619  0.00  0.00     0.050 C 
BRANCH  15  17
HETATM   17  N           1     -33.771  -3.942 -13.897  0.00  0.00    -0.067 N 
HETATM   18  H           1     -33.320  -3.133 -14.381  0.00  0.00     0.275 HD
HETATM   19  H           1     -34.648  -4.205 -14.400  0.00  0.00     0.275 HD
HETATM   20  H           1     -33.115  -4.756 -13.894  0.00  0.00     0.275 HD
ENDBRANCH  15  17
ENDBRANCH   3  15
TORSDOF 6
ENDMDL
MODEL 3
REMARK VINA RESULT:      -6.1     10.724     11.792
REMARK  6 active torsions:
REMARK  status: ('A' for Active; 'I' for Inactive)
REMARK    1  A    between atoms: N_5  and  C_15 
REMARK       I    between atoms: N_5  and  C_17 
REMARK       I    between atoms: C_7  and  N_20 
REMARK    2  A    between atoms: C_7  and  C_12 
REMARK    3  A    between atoms: N_9  and  C_11 
REMARK    4  A    between atoms: C_11  and  C_17 
REMARK    5  A    between atoms: C_12  and  C_15 
REMARK    6  A    between atoms: C_13  and  C_15 
ROOT
HETATM    1  N           1     -22.376  -4.821  -8.564  0.00  0.00    -0.344 N 
HETATM    2  H           1     -22.551  -5.811  -8.673  0.00  0.00     0.163 HD
HETATM    3  C           1     -21.753  -4.356  -7.438  0.00  0.00     0.248 C 
HETATM    4  O           1     -21.545  -3.173  -7.308  0.00  0.00    -0.271 OA
ENDROOT
BRANCH   1   5
HETATM    5  C           1     -22.788  -3.894  -9.600  0.00  0.00     0.194 C 
BRANCH   5   6
HETATM    6  C           1     -22.224  -4.347 -10.940  0.00  0.00     0.138 C 
BRANCH   6   7
HETATM    7  C           1     -20.746  -4.042 -10.993  0.00  0.00     0.217 C 
HETATM    8  O           1     -19.950  -4.832 -10.545  0.00  0.00    -0.274 OA
HETATM    9  N           1     -20.309  -2.869 -11.548  0.00  0.00    -0.370 N 
HETATM   10  H           1     -19.319  -2.664 -11.583  0.00  0.00     0.159 HD
HETATM   11  H           1     -20.976  -2.206 -11.923  0.00  0.00     0.159 HD
ENDBRANCH   6   7
ENDBRANCH   5   6
BRANCH   5  12
HETATM   12  C           1     -24.294  -3.859  -9.674  0.00  0.00     0.197 C 
HETATM   13  O           1     -24.935  -4.914  -9.872  0.00  0.00    -0.646 OA
HETATM   14  O           1     -24.903  -2.776  -9.537  0.00  0.00    -0.646 OA
ENDBRANCH   5  12
ENDBRANCH   1   5
BRANCH   3  15
HETATM   15  C           1     -21.325  -5.321  -6.360  0.00  0.00     0.270 C 
HETATM   16  C           1     -20.190  -4.707  -5.550  0.00  0.00     0.050 C 
BRANCH  15  17
HETATM   17  N           1     -20.854  -6.598  -6.990  0.00  0.00    -0.067 N 
HETATM   18  H           1     -20.614  -6.424  -7.992  0.00  0.00     0.275 HD
HETATM   19  H           1     -21.612  -7.314  -6.932  0.00  0.00     0.275 HD
HETATM   20  H           1     -20.008  -6.945  -6.485  0.00  0.00     0.275 HD
ENDBRANCH  15  17
ENDBRANCH   3  15
TORSDOF 6
ENDMDL
MODEL 4
REMARK VINA RESULT:      -5.9      8.835     11.128
REMARK  6 active torsions:
REMARK  status: ('A' for Active; 'I' for Inactive)
REMARK    1  A    between atoms: N_5  and  C_15 
REMARK       I    between atoms: N_5  and  C_17 
REMARK       I    between atoms: C_7  and  N_20 
REMARK    2  A    between atoms: C_7  and  C_12 
REMARK    3  A    between atoms: N_9  and  C_11 
REMARK    4  A    between atoms: C_11  and  C_17 
REMARK    5  A    between atoms: C_12  and  C_15 
REMARK    6  A    between atoms: C_13  and  C_15 
ROOT
HETATM    1  N           1     -34.739  -1.283 -12.943  0.00  0.00    -0.344 N 
HETATM    2  H           1     -33.801  -0.999 -13.196  0.00  0.00     0.163 HD
HETATM    3  C           1     -35.817  -0.735 -13.585  0.00  0.00     0.248 C 
HETATM    4  O           1     -36.936  -1.074 -13.282  0.00  0.00    -0.271 OA
ENDROOT
BRANCH   1   5
HETATM    5  C           1     -34.941  -2.268 -11.898  0.00  0.00     0.194 C 
BRANCH   5   6
HETATM    6  C           1     -33.906  -3.376 -12.039  0.00  0.00     0.138 C 
BRANCH   6   7
HETATM    7  C           1     -34.312  -4.306 -13.156  0.00  0.00     0.217 C 
HETATM    8  O           1     -34.264  -3.929 -14.303  0.00  0.00    -0.274 OA
HETATM    9  N           1     -34.735  -5.576 -12.869  0.00  0.00    -0.370 N 
HETATM   10  H           1     -35.007  -6.200 -13.618  0.00  0.00     0.159 HD
HETATM   11  H           1     -34.775  -5.892 -11.908  0.00  0.00     0.159 HD
ENDBRANCH   6   7
ENDBRANCH   5   6
BRANCH   5  12
HETATM   12  C           1     -34.793  -1.609 -10.550  0.00  0.00     0.197 C 
HETATM   13  O           1     -35.755  -0.984 -10.050  0.00  0.00    -0.646 OA
HETATM   14  O           1     -33.711  -1.687  -9.930  0.00  0.00    -0.646 OA
ENDBRANCH   5  12
ENDBRANCH   1   5
BRANCH   3  15
HETATM   15  C           1     -35.606   0.290 -14.672  0.00  0.00     0.270 C 
HETATM   16  C           1     -34.753   1.431 -14.135  0.00  0.00     0.050 C 
BRANCH  15  17
HETATM   17  N           1     -36.934   0.826 -15.118  0.00  0.00    -0.067 N 
HETATM   18  H           1     -37.303   1.486 -14.396  0.00  0.00     0.275 HD
HETATM   19  H           1     -37.604   0.034 -15.243  0.00  0.00     0.275 HD
HETATM   20  H           1     -36.819   1.332 -16.025  0.00  0.00     0.275 HD
ENDBRANCH  15  17
ENDBRANCH   3  15
TORSDOF 6
ENDMDL
MODEL 5
REMARK VINA RESULT:      -5.8     10.400     12.703
REMARK  6 active torsions:
REMARK  status: ('A' for Active; 'I' for Inactive)
REMARK    1  A    between atoms: N_5  and  C_15 
REMARK       I    between atoms: N_5  and  C_17 
REMARK       I    between atoms: C_7  and  N_20 
REMARK    2  A    between atoms: C_7  and  C_12 
REMARK    3  A    between atoms: N_9  and  C_11 
REMARK    4  A    between atoms: C_11  and  C_17 
REMARK    5  A    between atoms: C_12  and  C_15 
REMARK    6  A    between atoms: C_13  and  C_15 
ROOT
HETATM    1  N           1     -35.892  -0.364 -11.059  0.00  0.00    -0.344 N 
HETATM    2  H           1     -35.085   0.011 -10.577  0.00  0.00     0.163 HD
HETATM    3  C           1     -37.109  -0.397 -10.433  0.00  0.00     0.248 C 
HETATM    4  O           1     -38.072  -0.844 -11.008  0.00  0.00    -0.271 OA
ENDROOT
BRANCH   1   5
HETATM    5  C           1     -35.759  -0.869 -12.411  0.00  0.00     0.194 C 
BRANCH   5   6
HETATM    6  C           1     -35.333   0.263 -13.336  0.00  0.00     0.138 C 
BRANCH   6   7
HETATM    7  C           1     -36.248   0.304 -14.536  0.00  0.00     0.217 C 
HETATM    8  O           1     -37.057  -0.576 -14.710  0.00  0.00    -0.274 OA
HETATM    9  N           1     -36.161   1.340 -15.428  0.00  0.00    -0.370 N 
HETATM   10  H           1     -36.774   1.368 -16.232  0.00  0.00     0.159 HD
HETATM   11  H           1     -35.483   2.078 -15.282  0.00  0.00     0.159 HD
ENDBRANCH   6   7
ENDBRANCH   5   6
BRANCH   5  12
HETATM   12  C           1     -34.719  -1.961 -12.440  0.00  0.00     0.197 C 
HETATM   13  O           1     -33.964  -2.132 -11.458  0.00  0.00    -0.646 OA
HETATM   14  O           1     -34.611  -2.697 -13.445  0.00  0.00    -0.646 OA
ENDBRANCH   5  12
ENDBRANCH   1   5
BRANCH   3  15
HETATM   15  C           1     -37.247   0.129  -9.025  0.00  0.00     0.270 C 
HETATM   16  C           1     -37.854   1.526  -9.061  0.00  0.00     0.050 C 
BRANCH  15  17
HETATM   17  N           1     -35.895   0.189  -8.378  0.00  0.00    -0.067 N 
HETATM   18  H           1     -35.898  -0.389  -7.509  0.00  0.00     0.275 HD
HETATM   19  H           1     -35.669   1.181  -8.138  0.00  0.00     0.275 HD
HETATM   20  H           1     -35.175  -0.180  -9.040  0.00  0.00     0.275 HD
ENDBRANCH  15  17
ENDBRANCH   3  15
TORSDOF 6
ENDMDL
MODEL 6
REMARK VINA RESULT:      -5.5     10.354     11.440
REMARK  6 active torsions:
REMARK  status: ('A' for Active; 'I' for Inactive)
REMARK    1  A    between atoms: N_5  and  C_15 
REMARK       I    between atoms: N_5  and  C_17 
REMARK       I    between atoms: C_7  and  N_20 
REMARK    2  A    between atoms: C_7  and  C_12 
REMARK    3  A    between atoms: N_9  and  C_11 
REMARK    4  A    between atoms: C_11  and  C_17 
REMARK    5  A    between atoms: C_12  and  C_15 
REMARK    6  A    between atoms: C_13  and  C_15 
ROOT
HETATM    1  N           1     -22.039  -4.211  -9.232  0.00  0.00    -0.344 N 
HETATM    2  H           1     -22.687  -3.472  -8.989  0.00  0.00     0.163 HD
HETATM    3  C           1     -21.286  -4.808  -8.258  0.00  0.00     0.248 C 
HETATM    4  O           1     -20.513  -5.690  -8.549  0.00  0.00    -0.271 OA
ENDROOT
BRANCH   1   5
HETATM    5  C           1     -21.908  -4.635 -10.613  0.00  0.00     0.194 C 
BRANCH   5   6
HETATM    6  C           1     -23.292  -4.871 -11.204  0.00  0.00     0.138 C 
BRANCH   6   7
HETATM    7  C           1     -24.312  -4.070 -10.432  0.00  0.00     0.217 C 
HETATM    8  O           1     -24.417  -2.882 -10.622  0.00  0.00    -0.274 OA
HETATM    9  N           1     -25.121  -4.692  -9.518  0.00  0.00    -0.370 N 
HETATM   10  H           1     -25.805  -4.155  -9.001  0.00  0.00     0.159 HD
HETATM   11  H           1     -25.033  -5.688  -9.359  0.00  0.00     0.159 HD
ENDBRANCH   6   7
ENDBRANCH   5   6
BRANCH   5  12
HETATM   12  C           1     -21.199  -3.563 -11.403  0.00  0.00     0.197 C 
HETATM   13  O           1     -21.669  -3.178 -12.496  0.00  0.00    -0.646 OA
HETATM   14  O           1     -20.143  -3.058 -10.965  0.00  0.00    -0.646 OA
ENDBRANCH   5  12
ENDBRANCH   1   5
BRANCH   3  15
HETATM   15  C           1     -21.422  -4.367  -6.822  0.00  0.00     0.270 C 
HETATM   16  C           1     -20.140  -4.691  -6.067  0.00  0.00     0.050 C 
BRANCH  15  17
HETATM   17  N           1     -22.572  -5.088  -6.184  0.00  0.00    -0.067 N 
HETATM   18  H           1     -22.209  -5.862  -5.584  0.00  0.00     0.275 HD
HETATM   19  H           1     -23.190  -5.483  -6.929  0.00  0.00     0.275 HD
HETATM   20  H           1     -23.120  -4.420  -5.596  0.00  0.00     0.275 HD
ENDBRANCH  15  17
ENDBRANCH   3  15
TORSDOF 6
ENDMDL
MODEL 7
REMARK VINA RESULT:      -5.4      2.077      3.671
REMARK  6 active torsions:
REMARK  status: ('A' for Active; 'I' for Inactive)
REMARK    1  A    between atoms: N_5  and  C_15 
REMARK       I    between atoms: N_5  and  C_17 
REMARK       I    between atoms: C_7  and  N_20 
REMARK    2  A    between atoms: C_7  and  C_12 
REMARK    3  A    between atoms: N_9  and  C_11 
REMARK    4  A    between atoms: C_11  and  C_17 
REMARK    5  A    between atoms: C_12  and  C_15 
REMARK    6  A    between atoms: C_13  and  C_15 
ROOT
HETATM    1  N           1     -27.506  -6.206 -16.891  0.00  0.00    -0.344 N 
HETATM    2  H           1     -27.757  -6.449 -15.942  0.00  0.00     0.163 HD
HETATM    3  C           1     -26.260  -6.509 -17.368  0.00  0.00     0.248 C 
HETATM    4  O           1     -25.960  -6.218 -18.502  0.00  0.00    -0.271 OA
ENDROOT
BRANCH   1   5
HETATM    5  C           1     -28.466  -5.533 -17.745  0.00  0.00     0.194 C 
BRANCH   5   6
HETATM    6  C           1     -29.804  -6.255 -17.671  0.00  0.00     0.138 C 
BRANCH   6   7
HETATM    7  C           1     -29.577  -7.746 -17.745  0.00  0.00     0.217 C 
HETATM    8  O           1     -29.410  -8.383 -16.732  0.00  0.00    -0.274 OA
HETATM    9  N           1     -29.561  -8.375 -18.961  0.00  0.00    -0.370 N 
HETATM   10  H           1     -29.409  -9.374 -19.011  0.00  0.00     0.159 HD
HETATM   11  H           1     -29.701  -7.842 -19.810  0.00  0.00     0.159 HD
ENDBRANCH   6   7
ENDBRANCH   5   6
BRANCH   5  12
HETATM   12  C           1     -28.636  -4.107 -17.285  0.00  0.00     0.197 C 
HETATM   13  O           1     -29.587  -3.420 -17.717  0.00  0.00    -0.646 OA
HETATM   14  O           1     -27.828  -3.612 -16.470  0.00  0.00    -0.646 OA
ENDBRANCH   5  12
ENDBRANCH   1   5
BRANCH   3  15
HETATM   15  C           1     -25.261  -7.209 -16.479  0.00  0.00     0.270 C 
HETATM   16  C           1     -25.057  -6.397 -15.207  0.00  0.00     0.050 C 
BRANCH  15  17
HETATM   17  N           1     -23.954  -7.340 -17.202  0.00  0.00    -0.067 N 
HETATM   18  H           1     -24.085  -7.090 -18.208  0.00  0.00     0.275 HD
HETATM   19  H           1     -23.614  -8.326 -17.129  0.00  0.00     0.275 HD
HETATM   20  H           1     -23.251  -6.698 -16.772  0.00  0.00     0.275 HD
ENDBRANCH  15  17
ENDBRANCH   3  15
TORSDOF 6
ENDMDL
MODEL 8
REMARK VINA RESULT:      -5.3      1.884      3.188
REMARK  6 active torsions:
REMARK  status: ('A' for Active; 'I' for Inactive)
REMARK    1  A    between atoms: N_5  and  C_15 
REMARK       I    between atoms: N_5  and  C_17 
REMARK       I    between atoms: C_7  and  N_20 
REMARK    2  A    between atoms: C_7  and  C_12 
REMARK    3  A    between atoms: N_9  and  C_11 
REMARK    4  A    between atoms: C_11  and  C_17 
REMARK    5  A    between atoms: C_12  and  C_15 
REMARK    6  A    between atoms: C_13  and  C_15 
ROOT
HETATM    1  N           1     -26.998  -6.650 -18.455  0.00  0.00    -0.344 N 
HETATM    2  H           1     -26.340  -7.121 -17.848  0.00  0.00     0.163 HD
HETATM    3  C           1     -26.699  -6.470 -19.779  0.00  0.00     0.248 C 
HETATM    4  O           1     -27.485  -5.907 -20.504  0.00  0.00    -0.271 OA
ENDROOT
BRANCH   1   5
HETATM    5  C           1     -28.256  -6.163 -17.923  0.00  0.00     0.194 C 
BRANCH   5   6
HETATM    6  C           1     -29.018  -7.317 -17.287  0.00  0.00     0.138 C 
BRANCH   6   7
HETATM    7  C           1     -30.437  -7.328 -17.801  0.00  0.00     0.217 C 
HETATM    8  O           1     -30.730  -8.014 -18.751  0.00  0.00    -0.274 OA
HETATM    9  N           1     -31.392  -6.560 -17.191  0.00  0.00    -0.370 N 
HETATM   10  H           1     -32.344  -6.567 -17.536  0.00  0.00     0.159 HD
HETATM   11  H           1     -31.147  -5.985 -16.395  0.00  0.00     0.159 HD
ENDBRANCH   6   7
ENDBRANCH   5   6
BRANCH   5  12
HETATM   12  C           1     -27.986  -5.104 -16.884  0.00  0.00     0.197 C 
HETATM   13  O           1     -28.934  -4.451 -16.395  0.00  0.00    -0.646 OA
HETATM   14  O           1     -26.815  -4.878 -16.510  0.00  0.00    -0.646 OA
ENDBRANCH   5  12
ENDBRANCH   1   5
BRANCH   3  15
HETATM   15  C           1     -25.390  -6.977 -20.332  0.00  0.00     0.270 C 
HETATM   16  C           1     -24.365  -7.069 -19.209  0.00  0.00     0.050 C 
BRANCH  15  17
HETATM   17  N           1     -24.893  -6.032 -21.386  0.00  0.00    -0.067 N 
HETATM   18  H           1     -23.848  -6.018 -21.377  0.00  0.00     0.275 HD
HETATM   19  H           1     -25.257  -5.072 -21.190  0.00  0.00     0.275 HD
HETATM   20  H           1     -25.229  -6.347 -22.323  0.00  0.00     0.275 HD
ENDBRANCH  15  17
ENDBRANCH   3  15
TORSDOF 6
ENDMDL
MODEL 9
REMARK VINA RESULT:      -5.3      2.452      3.117
REMARK  6 active torsions:
REMARK  status: ('A' for Active; 'I' for Inactive)
REMARK    1  A    between atoms: N_5  and  C_15 
REMARK       I    between atoms: N_5  and  C_17 
REMARK       I    between atoms: C_7  and  N_20 
REMARK    2  A    between atoms: C_7  and  C_12 
REMARK    3  A    between atoms: N_9  and  C_11 
REMARK    4  A    between atoms: C_11  and  C_17 
REMARK    5  A    between atoms: C_12  and  C_15 
REMARK    6  A    between atoms: C_13  and  C_15 
ROOT
HETATM    1  N           1     -26.658  -6.519 -17.126  0.00  0.00    -0.344 N 
HETATM    2  H           1     -26.814  -7.141 -17.909  0.00  0.00     0.163 HD
HETATM    3  C           1     -25.387  -6.302 -16.666  0.00  0.00     0.248 C 
HETATM    4  O           1     -25.201  -5.560 -15.732  0.00  0.00    -0.271 OA
ENDROOT
BRANCH   1   5
HETATM    5  C           1     -27.781  -5.858 -16.490  0.00  0.00     0.194 C 
BRANCH   5   6
HETATM    6  C           1     -28.925  -5.730 -17.487  0.00  0.00     0.138 C 
BRANCH   6   7
HETATM    7  C           1     -28.894  -6.899 -18.442  0.00  0.00     0.217 C 
HETATM    8  O           1     -28.206  -6.850 -19.434  0.00  0.00    -0.274 OA
HETATM    9  N           1     -29.645  -8.014 -18.184  0.00  0.00    -0.370 N 
HETATM   10  H           1     -29.624  -8.798 -18.824  0.00  0.00     0.159 HD
HETATM   11  H           1     -30.221  -8.055 -17.353  0.00  0.00     0.159 HD
ENDBRANCH   6   7
ENDBRANCH   5   6
BRANCH   5  12
HETATM   12  C           1     -28.236  -6.670 -15.303  0.00  0.00     0.197 C 
HETATM   13  O           1     -29.142  -6.236 -14.559  0.00  0.00    -0.646 OA
HETATM   14  O           1     -27.709  -7.778 -15.064  0.00  0.00    -0.646 OA
ENDBRANCH   5  12
ENDBRANCH   1   5
BRANCH   3  15
HETATM   15  C           1     -24.218  -6.990 -17.329  0.00  0.00     0.270 C 
HETATM   16  C           1     -24.554  -7.271 -18.787  0.00  0.00     0.050 C 
BRANCH  15  17
HETATM   17  N           1     -23.934  -8.283 -16.624  0.00  0.00    -0.067 N 
HETATM   18  H           1     -24.583  -8.387 -15.812  0.00  0.00     0.275 HD
HETATM   19  H           1     -22.946  -8.283 -16.284  0.00  0.00     0.275 HD
HETATM   20  H           1     -24.074  -9.079 -17.286  0.00  0.00     0.275 HD
ENDBRANCH  15  17
ENDBRANCH   3  15
TORSDOF 6
ENDMDL
