MODEL 1
REMARK VINA RESULT:      -6.1      0.000      0.000
REMARK  8 active torsions:
REMARK  status: ('A' for Active; 'I' for Inactive)
REMARK    1  A    between atoms: C_4  and  S_11 
REMARK    2  A    between atoms: C_4  and  C_5 
REMARK    3  A    between atoms: C_5  and  C_13 
REMARK    4  A    between atoms: C_5  and  N_23 
REMARK    5  A    between atoms: N_8  and  C_22 
REMARK    6  A    between atoms: C_12  and  C_14 
REMARK    7  A    between atoms: C_14  and  C_22 
REMARK    8  A    between atoms: C_22  and  C_24 
REMARK       I    between atoms: N_23  and  C_24 
ROOT
HETATM    1  C           1     -34.188  -4.035 -12.465  0.00  0.00     0.280 C 
ENDROOT
BRANCH   1   2
HETATM    2  N           1     -33.757  -4.143 -13.898  0.00  0.00    -0.066 N 
HETATM    3  H           1     -33.311  -3.246 -14.196  0.00  0.00     0.275 HD
HETATM    4  H           1     -33.069  -4.923 -13.996  0.00  0.00     0.275 HD
HETATM    5  H           1     -34.591  -4.335 -14.498  0.00  0.00     0.275 HD
ENDBRANCH   1   2
BRANCH   1   6
HETATM    6  C           1     -33.164  -4.727 -11.574  0.00  0.00     0.101 C 
BRANCH   6   7
HETATM    7  C           1     -33.813  -5.877 -10.868  0.00  0.00     0.028 A 
HETATM    8  N           1     -33.329  -7.160 -10.860  0.00  0.00    -0.355 N 
HETATM    9  C           1     -34.182  -7.847 -10.136  0.00  0.00     0.180 A 
ATOM     10  HN          1     -32.486  -7.507 -11.317  1.00  0.00     0.166 HD
HETATM   11  N           1     -35.198  -7.058  -9.677  0.00  0.00    -0.360 N 
HETATM   12  C           1     -34.974  -5.790 -10.138  0.00  0.00     0.114 A 
HETATM   13  H           1     -36.003  -7.368  -9.078  0.00  0.00     0.166 HD
ENDBRANCH   6   7
ENDBRANCH   1   6
BRANCH   1  14
HETATM   14  C           1     -34.289  -2.580 -12.079  0.00  0.00     0.249 C 
HETATM   15  O           1     -33.717  -2.175 -11.095  0.00  0.00    -0.271 OA
HETATM   16  N           1     -35.029  -1.718 -12.844  0.00  0.00    -0.344 N 
HETATM   17  H           1     -35.509  -2.059 -13.668  0.00  0.00     0.163 HD
BRANCH  16  18
HETATM   18  C           1     -35.127  -0.320 -12.473  0.00  0.00     0.194 C 
BRANCH  18  19
HETATM   19  C           1     -35.188   0.537 -13.731  0.00  0.00     0.106 C 
BRANCH  19  20
HETATM   20  S           1     -35.630  -0.503 -15.150  0.00  0.00    -0.180 SA
HETATM   21  H           1     -36.888  -0.760 -14.749  0.00  0.00     0.101 HD
ENDBRANCH  19  20
ENDBRANCH  18  19
BRANCH  18  22
HETATM   22  C           1     -36.378  -0.104 -11.657  0.00  0.00     0.197 C 
HETATM   23  O           1     -36.314   0.493 -10.560  0.00  0.00    -0.646 OA
HETATM   24  O           1     -37.478  -0.522 -12.078  0.00  0.00    -0.646 OA
ENDBRANCH  18  22
ENDBRANCH  16  18
ENDBRANCH   1  14
TORSDOF 8
ENDMDL
MODEL 2
REMARK VINA RESULT:      -5.9      2.188      2.596
REMARK  8 active torsions:
REMARK  status: ('A' for Active; 'I' for Inactive)
REMARK    1  A    between atoms: C_4  and  S_11 
REMARK    2  A    between atoms: C_4  and  C_5 
REMARK    3  A    between atoms: C_5  and  C_13 
REMARK    4  A    between atoms: C_5  and  N_23 
REMARK    5  A    between atoms: N_8  and  C_22 
REMARK    6  A    between atoms: C_12  and  C_14 
REMARK    7  A    between atoms: C_14  and  C_22 
REMARK    8  A    between atoms: C_22  and  C_24 
REMARK       I    between atoms: N_23  and  C_24 
ROOT
HETATM    1  C           1     -34.033  -2.809 -11.540  0.00  0.00     0.280 C 
ENDROOT
BRANCH   1   2
HETATM    2  N           1     -33.581  -1.696 -10.641  0.00  0.00    -0.066 N 
HETATM    3  H           1     -33.037  -2.093  -9.843  0.00  0.00     0.275 HD
HETATM    4  H           1     -32.976  -1.037 -11.182  0.00  0.00     0.275 HD
HETATM    5  H           1     -34.416  -1.184 -10.275  0.00  0.00     0.275 HD
ENDBRANCH   1   2
BRANCH   1   6
HETATM    6  C           1     -35.021  -3.694 -10.792  0.00  0.00     0.101 C 
BRANCH   6   7
HETATM    7  C           1     -34.499  -5.097 -10.746  0.00  0.00     0.028 A 
HETATM    8  N           1     -35.136  -6.146 -10.134  0.00  0.00    -0.355 N 
HETATM    9  C           1     -34.354  -7.184 -10.323  0.00  0.00     0.180 A 
ATOM     10  HN          1     -36.026  -6.125  -9.638  1.00  0.00     0.166 HD
HETATM   11  N           1     -33.238  -6.845 -11.034  0.00  0.00    -0.360 N 
HETATM   12  C           1     -33.317  -5.509 -11.314  0.00  0.00     0.114 A 
HETATM   13  H           1     -32.460  -7.494 -11.316  0.00  0.00     0.166 HD
ENDBRANCH   6   7
ENDBRANCH   1   6
BRANCH   1  14
HETATM   14  C           1     -34.702  -2.228 -12.762  0.00  0.00     0.249 C 
HETATM   15  O           1     -34.654  -2.817 -13.815  0.00  0.00    -0.271 OA
HETATM   16  N           1     -35.364  -1.031 -12.676  0.00  0.00    -0.344 N 
HETATM   17  H           1     -35.403  -0.538 -11.793  0.00  0.00     0.163 HD
BRANCH  16  18
HETATM   18  C           1     -36.006  -0.473 -13.850  0.00  0.00     0.194 C 
BRANCH  18  19
HETATM   19  C           1     -37.459  -0.148 -13.528  0.00  0.00     0.106 C 
BRANCH  19  20
HETATM   20  S           1     -37.695  -0.147 -11.729  0.00  0.00    -0.180 SA
HETATM   21  H           1     -37.915  -1.469 -11.616  0.00  0.00     0.101 HD
ENDBRANCH  19  20
ENDBRANCH  18  19
BRANCH  18  22
HETATM   22  C           1     -35.288   0.789 -14.261  0.00  0.00     0.197 C 
HETATM   23  O           1     -34.415   1.284 -13.515  0.00  0.00    -0.646 OA
HETATM   24  O           1     -35.565   1.339 -15.349  0.00  0.00    -0.646 OA
ENDBRANCH  18  22
ENDBRANCH  16  18
ENDBRANCH   1  14
TORSDOF 8
ENDMDL
MODEL 3
REMARK VINA RESULT:      -5.8     12.787     14.103
REMARK  8 active torsions:
REMARK  status: ('A' for Active; 'I' for Inactive)
REMARK    1  A    between atoms: C_4  and  S_11 
REMARK    2  A    between atoms: C_4  and  C_5 
REMARK    3  A    between atoms: C_5  and  C_13 
REMARK    4  A    between atoms: C_5  and  N_23 
REMARK    5  A    between atoms: N_8  and  C_22 
REMARK    6  A    between atoms: C_12  and  C_14 
REMARK    7  A    between atoms: C_14  and  C_22 
REMARK    8  A    between atoms: C_22  and  C_24 
REMARK       I    between atoms: N_23  and  C_24 
ROOT
HETATM    1  C           1     -21.095  -5.664  -6.740  0.00  0.00     0.280 C 
ENDROOT
BRANCH   1   2
HETATM    2  N           1     -19.938  -6.255  -7.490  0.00  0.00    -0.066 N 
HETATM    3  H           1     -19.388  -5.489  -7.940  0.00  0.00     0.275 HD
HETATM    4  H           1     -19.325  -6.780  -6.826  0.00  0.00     0.275 HD
HETATM    5  H           1     -20.296  -6.906  -8.225  0.00  0.00     0.275 HD
ENDBRANCH   1   2
BRANCH   1   6
HETATM    6  C           1     -20.622  -5.185  -5.374  0.00  0.00     0.101 C 
BRANCH   6   7
HETATM    7  C           1     -21.033  -6.174  -4.328  0.00  0.00     0.028 A 
HETATM    8  N           1     -21.602  -5.846  -3.124  0.00  0.00    -0.355 N 
HETATM    9  C           1     -21.805  -6.991  -2.513  0.00  0.00     0.180 A 
ATOM     10  HN          1     -21.821  -4.912  -2.777  1.00  0.00     0.166 HD
HETATM   11  N           1     -21.390  -8.045  -3.276  0.00  0.00    -0.360 N 
HETATM   12  C           1     -20.892  -7.537  -4.444  0.00  0.00     0.114 A 
HETATM   13  H           1     -21.443  -9.061  -3.013  0.00  0.00     0.166 HD
ENDBRANCH   6   7
ENDBRANCH   1   6
BRANCH   1  14
HETATM   14  C           1     -21.655  -4.498  -7.517  0.00  0.00     0.249 C 
HETATM   15  O           1     -21.580  -3.380  -7.066  0.00  0.00    -0.271 OA
HETATM   16  N           1     -22.248  -4.707  -8.733  0.00  0.00    -0.344 N 
HETATM   17  H           1     -22.311  -5.644  -9.111  0.00  0.00     0.163 HD
BRANCH  16  18
HETATM   18  C           1     -22.786  -3.586  -9.480  0.00  0.00     0.194 C 
BRANCH  18  19
HETATM   19  C           1     -22.112  -3.513 -10.843  0.00  0.00     0.106 C 
BRANCH  19  20
HETATM   20  S           1     -20.476  -4.294 -10.753  0.00  0.00    -0.180 SA
HETATM   21  H           1     -20.026  -3.813 -11.926  0.00  0.00     0.101 HD
ENDBRANCH  19  20
ENDBRANCH  18  19
BRANCH  18  22
HETATM   22  C           1     -24.272  -3.774  -9.663  0.00  0.00     0.197 C 
HETATM   23  O           1     -25.043  -2.794  -9.569  0.00  0.00    -0.646 OA
HETATM   24  O           1     -24.733  -4.910  -9.910  0.00  0.00    -0.646 OA
ENDBRANCH  18  22
ENDBRANCH  16  18
ENDBRANCH   1  14
TORSDOF 8
ENDMDL
MODEL 4
REMARK VINA RESULT:      -5.7      3.065      6.244
REMARK  8 active torsions:
REMARK  status: ('A' for Active; 'I' for Inactive)
REMARK    1  A    between atoms: C_4  and  S_11 
REMARK    2  A    between atoms: C_4  and  C_5 
REMARK    3  A    between atoms: C_5  and  C_13 
REMARK    4  A    between atoms: C_5  and  N_23 
REMARK    5  A    between atoms: N_8  and  C_22 
REMARK    6  A    between atoms: C_12  and  C_14 
REMARK    7  A    between atoms: C_14  and  C_22 
REMARK    8  A    between atoms: C_22  and  C_24 
REMARK       I    between atoms: N_23  and  C_24 
ROOT
HETATM    1  C           1     -35.832  -0.375 -12.162  0.00  0.00     0.280 C 
ENDROOT
BRANCH   1   2
HETATM    2  N           1     -36.126   0.534 -11.005  0.00  0.00    -0.066 N 
HETATM    3  H           1     -37.144   0.488 -10.775  0.00  0.00     0.275 HD
HETATM    4  H           1     -35.568   0.231 -10.175  0.00  0.00     0.275 HD
HETATM    5  H           1     -35.869   1.515 -11.260  0.00  0.00     0.275 HD
ENDBRANCH   1   2
BRANCH   1   6
HETATM    6  C           1     -35.125   0.411 -13.257  0.00  0.00     0.101 C 
BRANCH   6   7
HETATM    7  C           1     -35.622  -0.040 -14.596  0.00  0.00     0.028 A 
HETATM    8  N           1     -34.992  -0.962 -15.392  0.00  0.00    -0.355 N 
HETATM    9  C           1     -35.748  -1.070 -16.461  0.00  0.00     0.180 A 
ATOM     10  HN          1     -34.124  -1.458 -15.196  1.00  0.00     0.166 HD
HETATM   11  N           1     -36.840  -0.254 -16.386  0.00  0.00    -0.360 N 
HETATM   12  C           1     -36.774   0.413 -15.194  0.00  0.00     0.114 A 
HETATM   13  H           1     -37.594  -0.157 -17.111  0.00  0.00     0.166 HD
ENDBRANCH   6   7
ENDBRANCH   1   6
BRANCH   1  14
HETATM   14  C           1     -34.945  -1.506 -11.700  0.00  0.00     0.249 C 
HETATM   15  O           1     -33.978  -1.273 -11.015  0.00  0.00    -0.271 OA
HETATM   16  N           1     -35.237  -2.795 -12.058  0.00  0.00    -0.344 N 
HETATM   17  H           1     -36.047  -2.989 -12.633  0.00  0.00     0.163 HD
BRANCH  16  18
HETATM   18  C           1     -34.384  -3.881 -11.615  0.00  0.00     0.194 C 
BRANCH  18  19
HETATM   19  C           1     -35.204  -5.160 -11.509  0.00  0.00     0.106 C 
BRANCH  19  20
HETATM   20  S           1     -34.357  -6.333 -10.414  0.00  0.00    -0.180 SA
HETATM   21  H           1     -34.182  -7.291 -11.343  0.00  0.00     0.101 HD
ENDBRANCH  19  20
ENDBRANCH  18  19
BRANCH  18  22
HETATM   22  C           1     -33.268  -4.080 -12.610  0.00  0.00     0.197 C 
HETATM   23  O           1     -32.120  -4.375 -12.213  0.00  0.00    -0.646 OA
HETATM   24  O           1     -33.491  -3.951 -13.834  0.00  0.00    -0.646 OA
ENDBRANCH  18  22
ENDBRANCH  16  18
ENDBRANCH   1  14
TORSDOF 8
ENDMDL
MODEL 5
REMARK VINA RESULT:      -5.5     13.571     15.567
REMARK  8 active torsions:
REMARK  status: ('A' for Active; 'I' for Inactive)
REMARK    1  A    between atoms: C_4  and  S_11 
REMARK    2  A    between atoms: C_4  and  C_5 
REMARK    3  A    between atoms: C_5  and  C_13 
REMARK    4  A    between atoms: C_5  and  N_23 
REMARK    5  A    between atoms: N_8  and  C_22 
REMARK    6  A    between atoms: C_12  and  C_14 
REMARK    7  A    between atoms: C_14  and  C_22 
REMARK    8  A    between atoms: C_22  and  C_24 
REMARK       I    between atoms: N_23  and  C_24 
ROOT
HETATM    1  C           1     -21.284  -4.768  -6.611  0.00  0.00     0.280 C 
ENDROOT
BRANCH   1   2
HETATM    2  N           1     -19.837  -4.552  -6.278  0.00  0.00    -0.066 N 
HETATM    3  H           1     -19.250  -4.773  -7.113  0.00  0.00     0.275 HD
HETATM    4  H           1     -19.689  -3.555  -6.002  0.00  0.00     0.275 HD
HETATM    5  H           1     -19.565  -5.178  -5.485  0.00  0.00     0.275 HD
ENDBRANCH   1   2
BRANCH   1   6
HETATM    6  C           1     -21.402  -5.302  -8.032  0.00  0.00     0.101 C 
BRANCH   6   7
HETATM    7  C           1     -22.456  -4.534  -8.767  0.00  0.00     0.028 A 
HETATM    8  N           1     -23.620  -4.075  -8.207  0.00  0.00    -0.355 N 
HETATM    9  C           1     -24.255  -3.461  -9.180  0.00  0.00     0.180 A 
ATOM     10  HN          1     -23.928  -4.186  -7.241  1.00  0.00     0.166 HD
HETATM   11  N           1     -23.545  -3.506 -10.345  0.00  0.00    -0.360 N 
HETATM   12  C           1     -22.388  -4.190 -10.097  0.00  0.00     0.114 A 
HETATM   13  H           1     -23.835  -3.089 -11.266  0.00  0.00     0.166 HD
ENDBRANCH   6   7
ENDBRANCH   1   6
BRANCH   1  14
HETATM   14  C           1     -21.877  -5.767  -5.647  0.00  0.00     0.249 C 
HETATM   15  O           1     -23.076  -5.885  -5.563  0.00  0.00    -0.271 OA
HETATM   16  N           1     -21.056  -6.538  -4.868  0.00  0.00    -0.344 N 
HETATM   17  H           1     -20.051  -6.437  -4.938  0.00  0.00     0.163 HD
BRANCH  16  18
HETATM   18  C           1     -21.627  -7.496  -3.941  0.00  0.00     0.194 C 
BRANCH  18  19
HETATM   19  C           1     -20.811  -8.783  -3.975  0.00  0.00     0.106 C 
BRANCH  19  20
HETATM   20  S           1     -21.906 -10.200  -3.687  0.00  0.00    -0.180 SA
HETATM   21  H           1     -22.627  -9.625  -2.708  0.00  0.00     0.101 HD
ENDBRANCH  19  20
ENDBRANCH  18  19
BRANCH  18  22
HETATM   22  C           1     -21.601  -6.921  -2.547  0.00  0.00     0.197 C 
HETATM   23  O           1     -22.392  -6.004  -2.233  0.00  0.00    -0.646 OA
HETATM   24  O           1     -20.790  -7.362  -1.703  0.00  0.00    -0.646 OA
ENDBRANCH  18  22
ENDBRANCH  16  18
ENDBRANCH   1  14
TORSDOF 8
ENDMDL
MODEL 6
REMARK VINA RESULT:      -5.2     13.860     15.906
REMARK  8 active torsions:
REMARK  status: ('A' for Active; 'I' for Inactive)
REMARK    1  A    between atoms: C_4  and  S_11 
REMARK    2  A    between atoms: C_4  and  C_5 
REMARK    3  A    between atoms: C_5  and  C_13 
REMARK    4  A    between atoms: C_5  and  N_23 
REMARK    5  A    between atoms: N_8  and  C_22 
REMARK    6  A    between atoms: C_12  and  C_14 
REMARK    7  A    between atoms: C_14  and  C_22 
REMARK    8  A    between atoms: C_22  and  C_24 
REMARK       I    between atoms: N_23  and  C_24 
ROOT
HETATM    1  C           1     -22.161  -4.965  -7.384  0.00  0.00     0.280 C 
ENDROOT
BRANCH   1   2
HETATM    2  N           1     -23.494  -4.495  -6.882  0.00  0.00    -0.066 N 
HETATM    3  H           1     -24.206  -4.593  -7.640  0.00  0.00     0.275 HD
HETATM    4  H           1     -23.780  -5.074  -6.060  0.00  0.00     0.275 HD
HETATM    5  H           1     -23.425  -3.492  -6.596  0.00  0.00     0.275 HD
ENDBRANCH   1   2
BRANCH   1   6
HETATM    6  C           1     -21.455  -3.819  -8.095  0.00  0.00     0.101 C 
BRANCH   6   7
HETATM    7  C           1     -21.553  -4.014  -9.576  0.00  0.00     0.028 A 
HETATM    8  N           1     -22.663  -4.488 -10.228  0.00  0.00    -0.355 N 
HETATM    9  C           1     -22.337  -4.505 -11.500  0.00  0.00     0.180 A 
ATOM     10  HN          1     -23.552  -4.768  -9.814  1.00  0.00     0.166 HD
HETATM   11  N           1     -21.061  -4.059 -11.695  0.00  0.00    -0.360 N 
HETATM   12  C           1     -20.545  -3.740 -10.469  0.00  0.00     0.114 A 
HETATM   13  H           1     -20.565  -3.977 -12.618  0.00  0.00     0.166 HD
ENDBRANCH   6   7
ENDBRANCH   1   6
BRANCH   1  14
HETATM   14  C           1     -21.321  -5.429  -6.219  0.00  0.00     0.249 C 
HETATM   15  O           1     -20.515  -4.681  -5.719  0.00  0.00    -0.271 OA
HETATM   16  N           1     -21.472  -6.699  -5.729  0.00  0.00    -0.344 N 
HETATM   17  H           1     -22.147  -7.326  -6.149  0.00  0.00     0.163 HD
BRANCH  16  18
HETATM   18  C           1     -20.664  -7.145  -4.610  0.00  0.00     0.194 C 
BRANCH  18  19
HETATM   19  C           1     -21.574  -7.625  -3.486  0.00  0.00     0.106 C 
BRANCH  19  20
HETATM   20  S           1     -21.898  -6.254  -2.343  0.00  0.00    -0.180 SA
HETATM   21  H           1     -20.772  -5.572  -2.618  0.00  0.00     0.101 HD
ENDBRANCH  19  20
ENDBRANCH  18  19
BRANCH  18  22
HETATM   22  C           1     -19.774  -8.279  -5.055  0.00  0.00     0.197 C 
HETATM   23  O           1     -19.156  -8.201  -6.140  0.00  0.00    -0.646 OA
HETATM   24  O           1     -19.652  -9.296  -4.339  0.00  0.00    -0.646 OA
ENDBRANCH  18  22
ENDBRANCH  16  18
ENDBRANCH   1  14
TORSDOF 8
ENDMDL
MODEL 7
REMARK VINA RESULT:      -5.1     14.438     16.392
REMARK  8 active torsions:
REMARK  status: ('A' for Active; 'I' for Inactive)
REMARK    1  A    between atoms: C_4  and  S_11 
REMARK    2  A    between atoms: C_4  and  C_5 
REMARK    3  A    between atoms: C_5  and  C_13 
REMARK    4  A    between atoms: C_5  and  N_23 
REMARK    5  A    between atoms: N_8  and  C_22 
REMARK    6  A    between atoms: C_12  and  C_14 
REMARK    7  A    between atoms: C_14  and  C_22 
REMARK    8  A    between atoms: C_22  and  C_24 
REMARK       I    between atoms: N_23  and  C_24 
ROOT
HETATM    1  C           1     -21.272  -5.491  -5.617  0.00  0.00     0.280 C 
ENDROOT
BRANCH   1   2
HETATM    2  N           1     -20.079  -4.709  -5.151  0.00  0.00    -0.066 N 
HETATM    3  H           1     -19.322  -5.369  -4.862  0.00  0.00     0.275 HD
HETATM    4  H           1     -19.735  -4.104  -5.929  0.00  0.00     0.275 HD
HETATM    5  H           1     -20.351  -4.112  -4.337  0.00  0.00     0.275 HD
ENDBRANCH   1   2
BRANCH   1   6
HETATM    6  C           1     -21.065  -5.918  -7.064  0.00  0.00     0.101 C 
BRANCH   6   7
HETATM    7  C           1     -21.760  -4.953  -7.973  0.00  0.00     0.028 A 
HETATM    8  N           1     -21.333  -4.624  -9.234  0.00  0.00    -0.355 N 
HETATM    9  C           1     -22.213  -3.759  -9.684  0.00  0.00     0.180 A 
ATOM     10  HN          1     -20.508  -4.976  -9.720  1.00  0.00     0.166 HD
HETATM   11  N           1     -23.191  -3.517  -8.762  0.00  0.00    -0.360 N 
HETATM   12  C           1     -22.915  -4.277  -7.660  0.00  0.00     0.114 A 
HETATM   13  H           1     -24.009  -2.867  -8.880  0.00  0.00     0.166 HD
ENDBRANCH   6   7
ENDBRANCH   1   6
BRANCH   1  14
HETATM   14  C           1     -21.441  -6.714  -4.750  0.00  0.00     0.249 C 
HETATM   15  O           1     -21.780  -7.763  -5.244  0.00  0.00    -0.271 OA
HETATM   16  N           1     -21.211  -6.636  -3.402  0.00  0.00    -0.344 N 
HETATM   17  H           1     -20.927  -5.757  -2.988  0.00  0.00     0.163 HD
BRANCH  16  18
HETATM   18  C           1     -21.374  -7.812  -2.569  0.00  0.00     0.194 C 
BRANCH  18  19
HETATM   19  C           1     -20.004  -8.367  -2.201  0.00  0.00     0.106 C 
BRANCH  19  20
HETATM   20  S           1     -19.863 -10.075  -2.799  0.00  0.00    -0.180 SA
HETATM   21  H           1     -21.054 -10.487  -2.328  0.00  0.00     0.101 HD
ENDBRANCH  19  20
ENDBRANCH  18  19
BRANCH  18  22
HETATM   22  C           1     -22.118  -7.436  -1.312  0.00  0.00     0.197 C 
HETATM   23  O           1     -22.489  -6.255  -1.133  0.00  0.00    -0.646 OA
HETATM   24  O           1     -22.365  -8.305  -0.448  0.00  0.00    -0.646 OA
ENDBRANCH  18  22
ENDBRANCH  16  18
ENDBRANCH   1  14
TORSDOF 8
ENDMDL
MODEL 8
REMARK VINA RESULT:      -5.0     14.863     17.047
REMARK  8 active torsions:
REMARK  status: ('A' for Active; 'I' for Inactive)
REMARK    1  A    between atoms: C_4  and  S_11 
REMARK    2  A    between atoms: C_4  and  C_5 
REMARK    3  A    between atoms: C_5  and  C_13 
REMARK    4  A    between atoms: C_5  and  N_23 
REMARK    5  A    between atoms: N_8  and  C_22 
REMARK    6  A    between atoms: C_12  and  C_14 
REMARK    7  A    between atoms: C_14  and  C_22 
REMARK    8  A    between atoms: C_22  and  C_24 
REMARK       I    between atoms: N_23  and  C_24 
ROOT
HETATM    1  C           1     -21.722  -6.304  -5.715  0.00  0.00     0.280 C 
ENDROOT
BRANCH   1   2
HETATM    2  N           1     -22.326  -6.195  -4.346  0.00  0.00    -0.066 N 
HETATM    3  H           1     -23.359  -6.063  -4.431  0.00  0.00     0.275 HD
HETATM    4  H           1     -22.130  -7.069  -3.809  0.00  0.00     0.275 HD
HETATM    5  H           1     -21.910  -5.376  -3.846  0.00  0.00     0.275 HD
ENDBRANCH   1   2
BRANCH   1   6
HETATM    6  C           1     -21.332  -4.917  -6.208  0.00  0.00     0.101 C 
BRANCH   6   7
HETATM    7  C           1     -22.085  -4.603  -7.464  0.00  0.00     0.028 A 
HETATM    8  N           1     -23.403  -4.227  -7.509  0.00  0.00    -0.355 N 
HETATM    9  C           1     -23.669  -4.048  -8.782  0.00  0.00     0.180 A 
ATOM     10  HN          1     -24.041  -4.110  -6.721  1.00  0.00     0.166 HD
HETATM   11  N           1     -22.574  -4.294  -9.561  0.00  0.00    -0.360 N 
HETATM   12  C           1     -21.550  -4.650  -8.729  0.00  0.00     0.114 A 
HETATM   13  H           1     -22.528  -4.221 -10.608  0.00  0.00     0.166 HD
ENDBRANCH   6   7
ENDBRANCH   1   6
BRANCH   1  14
HETATM   14  C           1     -20.496  -7.181  -5.655  0.00  0.00     0.249 C 
HETATM   15  O           1     -19.630  -7.067  -6.489  0.00  0.00    -0.271 OA
HETATM   16  N           1     -20.364  -8.106  -4.654  0.00  0.00    -0.344 N 
HETATM   17  H           1     -21.090  -8.201  -3.955  0.00  0.00     0.163 HD
BRANCH  16  18
HETATM   18  C           1     -19.186  -8.949  -4.596  0.00  0.00     0.194 C 
BRANCH  18  19
HETATM   19  C           1     -18.806  -9.193  -3.141  0.00  0.00     0.106 C 
BRANCH  19  20
HETATM   20  S           1     -17.064  -9.690  -3.045  0.00  0.00    -0.180 SA
HETATM   21  H           1     -16.793  -9.504  -4.350  0.00  0.00     0.101 HD
ENDBRANCH  19  20
ENDBRANCH  18  19
BRANCH  18  22
HETATM   22  C           1     -19.480 -10.268  -5.267  0.00  0.00     0.197 C 
HETATM   23  O           1     -20.281 -11.072  -4.742  0.00  0.00    -0.646 OA
HETATM   24  O           1     -18.924 -10.557  -6.349  0.00  0.00    -0.646 OA
ENDBRANCH  18  22
ENDBRANCH  16  18
ENDBRANCH   1  14
TORSDOF 8
ENDMDL
MODEL 9
REMARK VINA RESULT:      -4.9     13.499     15.012
REMARK  8 active torsions:
REMARK  status: ('A' for Active; 'I' for Inactive)
REMARK    1  A    between atoms: C_4  and  S_11 
REMARK    2  A    between atoms: C_4  and  C_5 
REMARK    3  A    between atoms: C_5  and  C_13 
REMARK    4  A    between atoms: C_5  and  N_23 
REMARK    5  A    between atoms: N_8  and  C_22 
REMARK    6  A    between atoms: C_12  and  C_14 
REMARK    7  A    between atoms: C_14  and  C_22 
REMARK    8  A    between atoms: C_22  and  C_24 
REMARK       I    between atoms: N_23  and  C_24 
ROOT
HETATM    1  C           1     -21.858  -5.667  -5.342  0.00  0.00     0.280 C 
ENDROOT
BRANCH   1   2
HETATM    2  N           1     -23.261  -6.141  -5.102  0.00  0.00    -0.066 N 
HETATM    3  H           1     -23.926  -5.350  -5.254  0.00  0.00     0.275 HD
HETATM    4  H           1     -23.484  -6.916  -5.766  0.00  0.00     0.275 HD
HETATM    5  H           1     -23.348  -6.487  -4.119  0.00  0.00     0.275 HD
ENDBRANCH   1   2
BRANCH   1   6
HETATM    6  C           1     -20.881  -6.590  -4.624  0.00  0.00     0.101 C 
BRANCH   6   7
HETATM    7  C           1     -21.388  -6.876  -3.245  0.00  0.00     0.028 A 
HETATM    8  N           1     -21.918  -5.937  -2.398  0.00  0.00    -0.355 N 
HETATM    9  C           1     -22.235  -6.594  -1.306  0.00  0.00     0.180 A 
ATOM     10  HN          1     -22.042  -4.941  -2.578  1.00  0.00     0.166 HD
HETATM   11  N           1     -21.929  -7.921  -1.415  0.00  0.00    -0.360 N 
HETATM   12  C           1     -21.386  -8.117  -2.654  0.00  0.00     0.114 A 
HETATM   13  H           1     -22.085  -8.656  -0.681  0.00  0.00     0.166 HD
ENDBRANCH   6   7
ENDBRANCH   1   6
BRANCH   1  14
HETATM   14  C           1     -21.569  -5.682  -6.823  0.00  0.00     0.249 C 
HETATM   15  O           1     -20.940  -6.593  -7.307  0.00  0.00    -0.271 OA
HETATM   16  N           1     -22.019  -4.662  -7.619  0.00  0.00    -0.344 N 
HETATM   17  H           1     -22.545  -3.899  -7.213  0.00  0.00     0.163 HD
BRANCH  16  18
HETATM   18  C           1     -21.741  -4.677  -9.042  0.00  0.00     0.194 C 
BRANCH  18  19
HETATM   19  C           1     -22.594  -3.623  -9.737  0.00  0.00     0.106 C 
BRANCH  19  20
HETATM   20  S           1     -24.311  -4.199  -9.830  0.00  0.00    -0.180 SA
HETATM   21  H           1     -24.763  -3.461  -8.800  0.00  0.00     0.101 HD
ENDBRANCH  19  20
ENDBRANCH  18  19
BRANCH  18  22
HETATM   22  C           1     -20.281  -4.372  -9.270  0.00  0.00     0.197 C 
HETATM   23  O           1     -19.697  -4.824 -10.280  0.00  0.00    -0.646 OA
HETATM   24  O           1     -19.654  -3.667  -8.450  0.00  0.00    -0.646 OA
ENDBRANCH  18  22
ENDBRANCH  16  18
ENDBRANCH   1  14
TORSDOF 8
ENDMDL
