MODEL 1
REMARK VINA RESULT:      -7.8      0.000      0.000
REMARK  13 active torsions:
REMARK  status: ('A' for Active; 'I' for Inactive)
REMARK    1  A    between atoms: N_1  and  C_2 
REMARK    2  A    between atoms: C_2  and  C_3 
REMARK    3  A    between atoms: C_3  and  C_4 
REMARK    4  A    between atoms: C_4  and  C_5 
REMARK    5  A    between atoms: C_5  and  C_6 
REMARK    6  A    between atoms: C_5  and  N_9 
REMARK       I    between atoms: N_9  and  C_10 
REMARK    7  A    between atoms: C_10  and  C_11 
REMARK    8  A    between atoms: C_11  and  C_12 
REMARK    9  A    between atoms: C_11  and  N_24 
REMARK   10  A    between atoms: C_12  and  C_13 
REMARK   11  A    between atoms: C_16  and  O_17 
REMARK   12  A    between atoms: O_17  and  P_18 
REMARK   13  A    between atoms: P_18  and  O_19 
ROOT
HETATM    1  C           1     -33.729  -4.872 -15.446  0.00  0.00     0.278 C 
ENDROOT
BRANCH   1   2
HETATM    2  C           1     -34.189  -4.027 -14.283  0.00  0.00     0.249 C 
HETATM    3  N           1     -34.143  -4.530 -13.011  0.00  0.00    -0.345 N 
HETATM    4  H           1     -33.800  -5.468 -12.850  0.00  0.00     0.163 HD
HETATM    5  O           1     -34.597  -2.907 -14.476  0.00  0.00    -0.271 OA
BRANCH   3   6
HETATM    6  C           1     -34.585  -3.718 -11.894  0.00  0.00     0.185 C 
BRANCH   6   7
HETATM    7  C           1     -35.201  -4.613 -10.828  0.00  0.00     0.038 C 
BRANCH   7   8
HETATM    8  C           1     -34.215  -5.713 -10.455  0.00  0.00     0.030 C 
BRANCH   8   9
HETATM    9  C           1     -34.976  -6.917  -9.915  0.00  0.00     0.230 C 
BRANCH   9  10
HETATM   10  N           1     -34.750  -8.097 -10.814  0.00  0.00    -0.079 N 
HETATM   11  H           1     -35.646  -8.349 -11.289  0.00  0.00     0.274 HD
HETATM   12  H           1     -34.032  -7.853 -11.533  0.00  0.00     0.274 HD
HETATM   13  H           1     -34.415  -8.907 -10.247  0.00  0.00     0.274 HD
ENDBRANCH   9  10
ENDBRANCH   8   9
ENDBRANCH   7   8
ENDBRANCH   6   7
BRANCH   6  14
HETATM   14  C           1     -33.406  -2.981 -11.310  0.00  0.00     0.196 C 
HETATM   15  O           1     -33.590  -1.973 -10.593  0.00  0.00    -0.646 OA
HETATM   16  O           1     -32.243  -3.376 -11.544  0.00  0.00    -0.646 OA
ENDBRANCH   6  14
ENDBRANCH   3   6
ENDBRANCH   1   2
BRANCH   1  17
HETATM   17  C           1     -33.178  -3.971 -16.543  0.00  0.00     0.081 C 
BRANCH  17  18
HETATM   18  C           1     -31.860  -4.504 -17.013  0.00  0.00    -0.056 A 
HETATM   19  C           1     -31.567  -5.860 -16.874  0.00  0.00     0.010 A 
HETATM   20  C           1     -30.339  -6.357 -17.311  0.00  0.00     0.038 A 
HETATM   21  C           1     -29.404  -5.497 -17.887  0.00  0.00     0.081 A 
HETATM   22  C           1     -29.698  -4.140 -18.026  0.00  0.00     0.038 A 
HETATM   23  C           1     -30.925  -3.644 -17.588  0.00  0.00     0.010 A 
BRANCH  21  24
HETATM   24  O           1     -28.211  -5.979 -18.312  0.00  0.00    -0.247 OA
BRANCH  24  25
HETATM   25  P           1     -27.016  -6.105 -17.232  0.00  0.00     0.411 P 
HETATM   26  O           1     -25.743  -6.371 -17.936  0.00  0.00    -0.624 OA
HETATM   27  O           1     -26.905  -4.839 -16.472  0.00  0.00    -0.624 OA
BRANCH  25  28
HETATM   28  O           1     -27.334  -7.318 -16.216  0.00  0.00    -0.300 OA
HETATM   29  H           1     -27.685  -8.004 -16.757  0.00  0.00     0.223 HD
ENDBRANCH  25  28
ENDBRANCH  24  25
ENDBRANCH  21  24
ENDBRANCH  17  18
ENDBRANCH   1  17
BRANCH   1  30
HETATM   30  N           1     -34.889  -5.659 -15.981  0.00  0.00    -0.066 N 
HETATM   31  H           1     -34.658  -6.016 -16.935  0.00  0.00     0.275 HD
HETATM   32  H           1     -35.084  -6.465 -15.346  0.00  0.00     0.275 HD
HETATM   33  H           1     -35.731  -5.043 -16.034  0.00  0.00     0.275 HD
ENDBRANCH   1  30
TORSDOF 13
ENDMDL
MODEL 2
REMARK VINA RESULT:      -7.4     13.158     15.088
REMARK  13 active torsions:
REMARK  status: ('A' for Active; 'I' for Inactive)
REMARK    1  A    between atoms: N_1  and  C_2 
REMARK    2  A    between atoms: C_2  and  C_3 
REMARK    3  A    between atoms: C_3  and  C_4 
REMARK    4  A    between atoms: C_4  and  C_5 
REMARK    5  A    between atoms: C_5  and  C_6 
REMARK    6  A    between atoms: C_5  and  N_9 
REMARK       I    between atoms: N_9  and  C_10 
REMARK    7  A    between atoms: C_10  and  C_11 
REMARK    8  A    between atoms: C_11  and  C_12 
REMARK    9  A    between atoms: C_11  and  N_24 
REMARK   10  A    between atoms: C_12  and  C_13 
REMARK   11  A    between atoms: C_16  and  O_17 
REMARK   12  A    between atoms: O_17  and  P_18 
REMARK   13  A    between atoms: P_18  and  O_19 
ROOT
HETATM    1  C           1     -22.422  -5.044  -6.255  0.00  0.00     0.278 C 
ENDROOT
BRANCH   1   2
HETATM    2  C           1     -22.331  -4.307  -7.569  0.00  0.00     0.249 C 
HETATM    3  N           1     -23.316  -4.457  -8.508  0.00  0.00    -0.345 N 
HETATM    4  H           1     -24.105  -5.062  -8.322  0.00  0.00     0.163 HD
HETATM    5  O           1     -21.389  -3.584  -7.791  0.00  0.00    -0.271 OA
BRANCH   3   6
HETATM    6  C           1     -23.228  -3.749  -9.770  0.00  0.00     0.185 C 
BRANCH   6   7
HETATM    7  C           1     -22.627  -4.666 -10.827  0.00  0.00     0.038 C 
BRANCH   7   8
HETATM    8  C           1     -21.690  -3.864 -11.721  0.00  0.00     0.030 C 
BRANCH   8   9
HETATM    9  C           1     -20.386  -3.594 -10.980  0.00  0.00     0.230 C 
BRANCH   9  10
HETATM   10  N           1     -19.933  -4.846 -10.291  0.00  0.00    -0.079 N 
HETATM   11  H           1     -20.580  -5.061  -9.498  0.00  0.00     0.274 HD
HETATM   12  H           1     -19.941  -5.639 -10.971  0.00  0.00     0.274 HD
HETATM   13  H           1     -18.965  -4.711  -9.923  0.00  0.00     0.274 HD
ENDBRANCH   9  10
ENDBRANCH   8   9
ENDBRANCH   7   8
ENDBRANCH   6   7
BRANCH   6  14
HETATM   14  C           1     -24.608  -3.321 -10.204  0.00  0.00     0.196 C 
HETATM   15  O           1     -25.342  -2.685  -9.416  0.00  0.00    -0.646 OA
HETATM   16  O           1     -25.019  -3.604 -11.350  0.00  0.00    -0.646 OA
ENDBRANCH   6  14
ENDBRANCH   3   6
ENDBRANCH   1   2
BRANCH   1  17
HETATM   17  C           1     -21.590  -6.317  -6.328  0.00  0.00     0.081 C 
BRANCH  17  18
HETATM   18  C           1     -21.435  -6.892  -4.953  0.00  0.00    -0.056 A 
HETATM   19  C           1     -21.171  -6.052  -3.873  0.00  0.00     0.010 A 
HETATM   20  C           1     -21.026  -6.587  -2.592  0.00  0.00     0.038 A 
HETATM   21  C           1     -21.145  -7.963  -2.394  0.00  0.00     0.081 A 
HETATM   22  C           1     -21.410  -8.802  -3.476  0.00  0.00     0.038 A 
HETATM   23  C           1     -21.555  -8.268  -4.756  0.00  0.00     0.010 A 
BRANCH  21  24
HETATM   24  O           1     -21.005  -8.482  -1.150  0.00  0.00    -0.247 OA
BRANCH  24  25
HETATM   25  P           1     -22.243  -8.337  -0.124  0.00  0.00     0.411 P 
HETATM   26  O           1     -23.003  -7.107  -0.441  0.00  0.00    -0.624 OA
HETATM   27  O           1     -23.131  -9.514  -0.253  0.00  0.00    -0.624 OA
BRANCH  25  28
HETATM   28  O           1     -21.683  -8.249   1.388  0.00  0.00    -0.300 OA
HETATM   29  H           1     -21.458  -7.342   1.512  0.00  0.00     0.223 HD
ENDBRANCH  25  28
ENDBRANCH  24  25
ENDBRANCH  21  24
ENDBRANCH  17  18
ENDBRANCH   1  17
BRANCH   1  30
HETATM   30  N           1     -23.854  -5.397  -5.979  0.00  0.00    -0.066 N 
HETATM   31  H           1     -24.250  -5.913  -6.796  0.00  0.00     0.275 HD
HETATM   32  H           1     -23.905  -6.001  -5.128  0.00  0.00     0.275 HD
HETATM   33  H           1     -24.402  -4.522  -5.821  0.00  0.00     0.275 HD
ENDBRANCH   1  30
TORSDOF 13
ENDMDL
MODEL 3
REMARK VINA RESULT:      -7.2     13.694     14.975
REMARK  13 active torsions:
REMARK  status: ('A' for Active; 'I' for Inactive)
REMARK    1  A    between atoms: N_1  and  C_2 
REMARK    2  A    between atoms: C_2  and  C_3 
REMARK    3  A    between atoms: C_3  and  C_4 
REMARK    4  A    between atoms: C_4  and  C_5 
REMARK    5  A    between atoms: C_5  and  C_6 
REMARK    6  A    between atoms: C_5  and  N_9 
REMARK       I    between atoms: N_9  and  C_10 
REMARK    7  A    between atoms: C_10  and  C_11 
REMARK    8  A    between atoms: C_11  and  C_12 
REMARK    9  A    between atoms: C_11  and  N_24 
REMARK   10  A    between atoms: C_12  and  C_13 
REMARK   11  A    between atoms: C_16  and  O_17 
REMARK   12  A    between atoms: O_17  and  P_18 
REMARK   13  A    between atoms: P_18  and  O_19 
ROOT
HETATM    1  C           1     -21.552  -6.466  -4.841  0.00  0.00     0.278 C 
ENDROOT
BRANCH   1   2
HETATM    2  C           1     -20.955  -7.849  -4.735  0.00  0.00     0.249 C 
HETATM    3  N           1     -20.543  -8.326  -3.520  0.00  0.00    -0.345 N 
HETATM    4  H           1     -20.638  -7.751  -2.692  0.00  0.00     0.163 HD
HETATM    5  O           1     -20.842  -8.534  -5.723  0.00  0.00    -0.271 OA
BRANCH   3   6
HETATM    6  C           1     -19.970  -9.653  -3.419  0.00  0.00     0.185 C 
BRANCH   6   7
HETATM    7  C           1     -18.495  -9.544  -3.057  0.00  0.00     0.038 C 
BRANCH   7   8
HETATM    8  C           1     -17.650  -9.694  -4.317  0.00  0.00     0.030 C 
BRANCH   8   9
HETATM    9  C           1     -18.154 -10.882  -5.128  0.00  0.00     0.230 C 
BRANCH   9  10
HETATM   10  N           1     -18.516 -10.427  -6.510  0.00  0.00    -0.079 N 
HETATM   11  H           1     -17.804 -10.777  -7.190  0.00  0.00     0.274 HD
HETATM   12  H           1     -19.456 -10.806  -6.765  0.00  0.00     0.274 HD
HETATM   13  H           1     -18.541  -9.383  -6.538  0.00  0.00     0.274 HD
ENDBRANCH   9  10
ENDBRANCH   8   9
ENDBRANCH   7   8
ENDBRANCH   6   7
BRANCH   6  14
HETATM   14  C           1     -20.692 -10.433  -2.348  0.00  0.00     0.196 C 
HETATM   15  O           1     -20.063 -10.870  -1.360  0.00  0.00    -0.646 OA
HETATM   16  O           1     -21.920 -10.643  -2.448  0.00  0.00    -0.646 OA
ENDBRANCH   6  14
ENDBRANCH   3   6
ENDBRANCH   1   2
BRANCH   1  17
HETATM   17  C           1     -20.524  -5.513  -5.434  0.00  0.00     0.081 C 
BRANCH  17  18
HETATM   18  C           1     -21.007  -5.020  -6.763  0.00  0.00    -0.056 A 
HETATM   19  C           1     -20.172  -5.089  -7.877  0.00  0.00     0.010 A 
HETATM   20  C           1     -20.623  -4.629  -9.116  0.00  0.00     0.038 A 
HETATM   21  C           1     -21.908  -4.101  -9.238  0.00  0.00     0.081 A 
HETATM   22  C           1     -22.743  -4.033  -8.122  0.00  0.00     0.038 A 
HETATM   23  C           1     -22.293  -4.492  -6.885  0.00  0.00     0.010 A 
BRANCH  21  24
HETATM   24  O           1     -22.345  -3.655 -10.440  0.00  0.00    -0.247 OA
BRANCH  24  25
HETATM   25  P           1     -23.689  -4.312 -11.049  0.00  0.00     0.411 P 
HETATM   26  O           1     -24.007  -5.555 -10.312  0.00  0.00    -0.624 OA
HETATM   27  O           1     -24.811  -3.355 -10.911  0.00  0.00    -0.624 OA
BRANCH  25  28
HETATM   28  O           1     -23.462  -4.654 -12.610  0.00  0.00    -0.300 OA
HETATM   29  H           1     -22.633  -4.263 -12.828  0.00  0.00     0.223 HD
ENDBRANCH  25  28
ENDBRANCH  24  25
ENDBRANCH  21  24
ENDBRANCH  17  18
ENDBRANCH   1  17
BRANCH   1  30
HETATM   30  N           1     -21.948  -5.988  -3.475  0.00  0.00    -0.066 N 
HETATM   31  H           1     -21.229  -6.286  -2.779  0.00  0.00     0.275 HD
HETATM   32  H           1     -22.018  -4.946  -3.479  0.00  0.00     0.275 HD
HETATM   33  H           1     -22.873  -6.401  -3.218  0.00  0.00     0.275 HD
ENDBRANCH   1  30
TORSDOF 13
ENDMDL
MODEL 4
REMARK VINA RESULT:      -7.1     13.219     14.553
REMARK  13 active torsions:
REMARK  status: ('A' for Active; 'I' for Inactive)
REMARK    1  A    between atoms: N_1  and  C_2 
REMARK    2  A    between atoms: C_2  and  C_3 
REMARK    3  A    between atoms: C_3  and  C_4 
REMARK    4  A    between atoms: C_4  and  C_5 
REMARK    5  A    between atoms: C_5  and  C_6 
REMARK    6  A    between atoms: C_5  and  N_9 
REMARK       I    between atoms: N_9  and  C_10 
REMARK    7  A    between atoms: C_10  and  C_11 
REMARK    8  A    between atoms: C_11  and  C_12 
REMARK    9  A    between atoms: C_11  and  N_24 
REMARK   10  A    between atoms: C_12  and  C_13 
REMARK   11  A    between atoms: C_16  and  O_17 
REMARK   12  A    between atoms: O_17  and  P_18 
REMARK   13  A    between atoms: P_18  and  O_19 
ROOT
HETATM    1  C           1     -21.591  -6.637  -4.847  0.00  0.00     0.278 C 
ENDROOT
BRANCH   1   2
HETATM    2  C           1     -21.224  -8.093  -4.694  0.00  0.00     0.249 C 
HETATM    3  N           1     -21.492  -8.749  -3.523  0.00  0.00    -0.345 N 
HETATM    4  H           1     -21.937  -8.256  -2.758  0.00  0.00     0.163 HD
HETATM    5  O           1     -20.693  -8.680  -5.607  0.00  0.00    -0.271 OA
BRANCH   3   6
HETATM    6  C           1     -21.139 -10.146  -3.376  0.00  0.00     0.185 C 
BRANCH   6   7
HETATM    7  C           1     -20.518 -10.374  -2.005  0.00  0.00     0.038 C 
BRANCH   7   8
HETATM    8  C           1     -20.672  -9.113  -1.162  0.00  0.00     0.030 C 
BRANCH   8   9
HETATM    9  C           1     -21.395  -9.454   0.135  0.00  0.00     0.230 C 
BRANCH   9  10
HETATM   10  N           1     -21.776 -10.904   0.129  0.00  0.00    -0.079 N 
HETATM   11  H           1     -20.922 -11.489  -0.013  0.00  0.00     0.274 HD
HETATM   12  H           1     -22.218 -11.151   1.044  0.00  0.00     0.274 HD
HETATM   13  H           1     -22.454 -11.083  -0.645  0.00  0.00     0.274 HD
ENDBRANCH   9  10
ENDBRANCH   8   9
ENDBRANCH   7   8
ENDBRANCH   6   7
BRANCH   6  14
HETATM   14  C           1     -22.378 -10.995  -3.512  0.00  0.00     0.196 C 
HETATM   15  O           1     -22.570 -11.661  -4.553  0.00  0.00    -0.646 OA
HETATM   16  O           1     -23.216 -11.032  -2.585  0.00  0.00    -0.646 OA
ENDBRANCH   6  14
ENDBRANCH   3   6
ENDBRANCH   1   2
BRANCH   1  17
HETATM   17  C           1     -20.461  -5.899  -5.551  0.00  0.00     0.081 C 
BRANCH  17  18
HETATM   18  C           1     -20.976  -5.293  -6.821  0.00  0.00    -0.056 A 
HETATM   19  C           1     -20.193  -5.323  -7.974  0.00  0.00     0.010 A 
HETATM   20  C           1     -20.672  -4.758  -9.157  0.00  0.00     0.038 A 
HETATM   21  C           1     -21.934  -4.164  -9.185  0.00  0.00     0.081 A 
HETATM   22  C           1     -22.716  -4.135  -8.031  0.00  0.00     0.038 A 
HETATM   23  C           1     -22.238  -4.699  -6.849  0.00  0.00     0.010 A 
BRANCH  21  24
HETATM   24  O           1     -22.399  -3.616 -10.334  0.00  0.00    -0.247 OA
BRANCH  24  25
HETATM   25  P           1     -23.703  -4.279 -11.016  0.00  0.00     0.411 P 
HETATM   26  O           1     -24.055  -5.524 -10.298  0.00  0.00    -0.624 OA
HETATM   27  O           1     -24.836  -3.329 -10.940  0.00  0.00    -0.624 OA
BRANCH  25  28
HETATM   28  O           1     -23.389  -4.619 -12.562  0.00  0.00    -0.300 OA
HETATM   29  H           1     -22.519  -4.983 -12.560  0.00  0.00     0.223 HD
ENDBRANCH  25  28
ENDBRANCH  24  25
ENDBRANCH  21  24
ENDBRANCH  17  18
ENDBRANCH   1  17
BRANCH   1  30
HETATM   30  N           1     -21.814  -6.034  -3.491  0.00  0.00    -0.066 N 
HETATM   31  H           1     -21.903  -4.997  -3.582  0.00  0.00     0.275 HD
HETATM   32  H           1     -22.690  -6.424  -3.077  0.00  0.00     0.275 HD
HETATM   33  H           1     -21.003  -6.260  -2.873  0.00  0.00     0.275 HD
ENDBRANCH   1  30
TORSDOF 13
ENDMDL
MODEL 5
REMARK VINA RESULT:      -7.1     13.039     14.439
REMARK  13 active torsions:
REMARK  status: ('A' for Active; 'I' for Inactive)
REMARK    1  A    between atoms: N_1  and  C_2 
REMARK    2  A    between atoms: C_2  and  C_3 
REMARK    3  A    between atoms: C_3  and  C_4 
REMARK    4  A    between atoms: C_4  and  C_5 
REMARK    5  A    between atoms: C_5  and  C_6 
REMARK    6  A    between atoms: C_5  and  N_9 
REMARK       I    between atoms: N_9  and  C_10 
REMARK    7  A    between atoms: C_10  and  C_11 
REMARK    8  A    between atoms: C_11  and  C_12 
REMARK    9  A    between atoms: C_11  and  N_24 
REMARK   10  A    between atoms: C_12  and  C_13 
REMARK   11  A    between atoms: C_16  and  O_17 
REMARK   12  A    between atoms: O_17  and  P_18 
REMARK   13  A    between atoms: P_18  and  O_19 
ROOT
HETATM    1  C           1     -21.210  -6.193  -5.028  0.00  0.00     0.278 C 
ENDROOT
BRANCH   1   2
HETATM    2  C           1     -20.547  -7.547  -5.102  0.00  0.00     0.249 C 
HETATM    3  N           1     -20.963  -8.559  -4.280  0.00  0.00    -0.345 N 
HETATM    4  H           1     -21.715  -8.400  -3.622  0.00  0.00     0.163 HD
HETATM    5  O           1     -19.649  -7.737  -5.888  0.00  0.00    -0.271 OA
BRANCH   3   6
HETATM    6  C           1     -20.325  -9.859  -4.351  0.00  0.00     0.185 C 
BRANCH   6   7
HETATM    7  C           1     -20.134 -10.409  -2.944  0.00  0.00     0.038 C 
BRANCH   7   8
HETATM    8  C           1     -20.753  -9.450  -1.935  0.00  0.00     0.030 C 
BRANCH   8   9
HETATM    9  C           1     -21.810 -10.184  -1.119  0.00  0.00     0.230 C 
BRANCH   9  10
HETATM   10  N           1     -22.705  -9.186  -0.446  0.00  0.00    -0.079 N 
HETATM   11  H           1     -22.422  -9.083   0.555  0.00  0.00     0.274 HD
HETATM   12  H           1     -22.619  -8.263  -0.928  0.00  0.00     0.274 HD
HETATM   13  H           1     -23.695  -9.516  -0.496  0.00  0.00     0.274 HD
ENDBRANCH   9  10
ENDBRANCH   8   9
ENDBRANCH   7   8
ENDBRANCH   6   7
BRANCH   6  14
HETATM   14  C           1     -21.194 -10.803  -5.145  0.00  0.00     0.196 C 
HETATM   15  O           1     -22.029 -11.527  -4.560  0.00  0.00    -0.646 OA
HETATM   16  O           1     -21.079 -10.862  -6.388  0.00  0.00    -0.646 OA
ENDBRANCH   6  14
ENDBRANCH   3   6
ENDBRANCH   1   2
BRANCH   1  17
HETATM   17  C           1     -20.298  -5.145  -5.649  0.00  0.00     0.081 C 
BRANCH  17  18
HETATM   18  C           1     -20.835  -4.745  -6.989  0.00  0.00    -0.056 A 
HETATM   19  C           1     -20.049  -4.903  -8.130  0.00  0.00     0.010 A 
HETATM   20  C           1     -20.549  -4.529  -9.378  0.00  0.00     0.038 A 
HETATM   21  C           1     -21.834  -3.998  -9.484  0.00  0.00     0.081 A 
HETATM   22  C           1     -22.620  -3.841  -8.342  0.00  0.00     0.038 A 
HETATM   23  C           1     -22.120  -4.214  -7.094  0.00  0.00     0.010 A 
BRANCH  21  24
HETATM   24  O           1     -22.320  -3.636 -10.696  0.00  0.00    -0.247 OA
BRANCH  24  25
HETATM   25  P           1     -23.705  -4.304 -11.188  0.00  0.00     0.411 P 
HETATM   26  O           1     -23.994  -5.500 -10.366  0.00  0.00    -0.624 OA
HETATM   27  O           1     -24.805  -3.324 -11.038  0.00  0.00    -0.624 OA
BRANCH  25  28
HETATM   28  O           1     -23.576  -4.735 -12.738  0.00  0.00    -0.300 OA
HETATM   29  H           1     -24.436  -4.604 -13.100  0.00  0.00     0.223 HD
ENDBRANCH  25  28
ENDBRANCH  24  25
ENDBRANCH  21  24
ENDBRANCH  17  18
ENDBRANCH   1  17
BRANCH   1  30
HETATM   30  N           1     -21.471  -5.843  -3.593  0.00  0.00    -0.066 N 
HETATM   31  H           1     -22.142  -5.043  -3.546  0.00  0.00     0.275 HD
HETATM   32  H           1     -21.880  -6.669  -3.102  0.00  0.00     0.275 HD
HETATM   33  H           1     -20.573  -5.571  -3.133  0.00  0.00     0.275 HD
ENDBRANCH   1  30
TORSDOF 13
ENDMDL
MODEL 6
REMARK VINA RESULT:      -6.9     13.733     15.050
REMARK  13 active torsions:
REMARK  status: ('A' for Active; 'I' for Inactive)
REMARK    1  A    between atoms: N_1  and  C_2 
REMARK    2  A    between atoms: C_2  and  C_3 
REMARK    3  A    between atoms: C_3  and  C_4 
REMARK    4  A    between atoms: C_4  and  C_5 
REMARK    5  A    between atoms: C_5  and  C_6 
REMARK    6  A    between atoms: C_5  and  N_9 
REMARK       I    between atoms: N_9  and  C_10 
REMARK    7  A    between atoms: C_10  and  C_11 
REMARK    8  A    between atoms: C_11  and  C_12 
REMARK    9  A    between atoms: C_11  and  N_24 
REMARK   10  A    between atoms: C_12  and  C_13 
REMARK   11  A    between atoms: C_16  and  O_17 
REMARK   12  A    between atoms: O_17  and  P_18 
REMARK   13  A    between atoms: P_18  and  O_19 
ROOT
HETATM    1  C           1     -21.450  -6.751  -4.924  0.00  0.00     0.278 C 
ENDROOT
BRANCH   1   2
HETATM    2  C           1     -20.852  -8.110  -4.649  0.00  0.00     0.249 C 
HETATM    3  N           1     -19.493  -8.257  -4.574  0.00  0.00    -0.345 N 
HETATM    4  H           1     -18.889  -7.456  -4.703  0.00  0.00     0.163 HD
HETATM    5  O           1     -21.573  -9.066  -4.494  0.00  0.00    -0.271 OA
BRANCH   3   6
HETATM    6  C           1     -18.919  -9.562  -4.311  0.00  0.00     0.185 C 
BRANCH   6   7
HETATM    7  C           1     -17.777  -9.821  -5.283  0.00  0.00     0.038 C 
BRANCH   7   8
HETATM    8  C           1     -18.265 -10.720  -6.413  0.00  0.00     0.030 C 
BRANCH   8   9
HETATM    9  C           1     -19.369 -11.633  -5.894  0.00  0.00     0.230 C 
BRANCH   9  10
HETATM   10  N           1     -20.646 -11.339  -6.625  0.00  0.00    -0.079 N 
HETATM   11  H           1     -20.568 -10.413  -7.104  0.00  0.00     0.274 HD
HETATM   12  H           1     -20.819 -12.085  -7.336  0.00  0.00     0.274 HD
HETATM   13  H           1     -21.439 -11.314  -5.945  0.00  0.00     0.274 HD
ENDBRANCH   9  10
ENDBRANCH   8   9
ENDBRANCH   7   8
ENDBRANCH   6   7
BRANCH   6  14
HETATM   14  C           1     -18.393  -9.604  -2.897  0.00  0.00     0.196 C 
HETATM   15  O           1     -17.208  -9.283  -2.661  0.00  0.00    -0.646 OA
HETATM   16  O           1     -19.142  -9.959  -1.962  0.00  0.00    -0.646 OA
ENDBRANCH   6  14
ENDBRANCH   3   6
ENDBRANCH   1   2
BRANCH   1  17
HETATM   17  C           1     -20.399  -5.850  -5.556  0.00  0.00     0.081 C 
BRANCH  17  18
HETATM   18  C           1     -20.942  -5.257  -6.819  0.00  0.00    -0.056 A 
HETATM   19  C           1     -22.215  -4.688  -6.830  0.00  0.00     0.010 A 
HETATM   20  C           1     -22.721  -4.136  -8.008  0.00  0.00     0.038 A 
HETATM   21  C           1     -21.954  -4.154  -9.173  0.00  0.00     0.081 A 
HETATM   22  C           1     -20.681  -4.724  -9.160  0.00  0.00     0.038 A 
HETATM   23  C           1     -20.175  -5.276  -7.984  0.00  0.00     0.010 A 
BRANCH  21  24
HETATM   24  O           1     -22.447  -3.618 -10.316  0.00  0.00    -0.247 OA
BRANCH  24  25
HETATM   25  P           1     -23.774  -4.281 -10.954  0.00  0.00     0.411 P 
HETATM   26  O           1     -23.535  -4.582 -12.383  0.00  0.00    -0.624 OA
HETATM   27  O           1     -24.094  -5.533 -10.232  0.00  0.00    -0.624 OA
BRANCH  25  28
HETATM   28  O           1     -25.009  -3.251 -10.820  0.00  0.00    -0.300 OA
HETATM   29  H           1     -25.662  -3.574 -11.418  0.00  0.00     0.223 HD
ENDBRANCH  25  28
ENDBRANCH  24  25
ENDBRANCH  21  24
ENDBRANCH  17  18
ENDBRANCH   1  17
BRANCH   1  30
HETATM   30  N           1     -21.921  -6.144  -3.635  0.00  0.00    -0.066 N 
HETATM   31  H           1     -21.875  -6.859  -2.875  0.00  0.00     0.275 HD
HETATM   32  H           1     -21.308  -5.335  -3.388  0.00  0.00     0.275 HD
HETATM   33  H           1     -22.907  -5.816  -3.746  0.00  0.00     0.275 HD
ENDBRANCH   1  30
TORSDOF 13
ENDMDL
MODEL 7
REMARK VINA RESULT:      -6.6      1.662      2.450
REMARK  13 active torsions:
REMARK  status: ('A' for Active; 'I' for Inactive)
REMARK    1  A    between atoms: N_1  and  C_2 
REMARK    2  A    between atoms: C_2  and  C_3 
REMARK    3  A    between atoms: C_3  and  C_4 
REMARK    4  A    between atoms: C_4  and  C_5 
REMARK    5  A    between atoms: C_5  and  C_6 
REMARK    6  A    between atoms: C_5  and  N_9 
REMARK       I    between atoms: N_9  and  C_10 
REMARK    7  A    between atoms: C_10  and  C_11 
REMARK    8  A    between atoms: C_11  and  C_12 
REMARK    9  A    between atoms: C_11  and  N_24 
REMARK   10  A    between atoms: C_12  and  C_13 
REMARK   11  A    between atoms: C_16  and  O_17 
REMARK   12  A    between atoms: O_17  and  P_18 
REMARK   13  A    between atoms: P_18  and  O_19 
ROOT
HETATM    1  C           1     -32.840  -5.465 -16.155  0.00  0.00     0.278 C 
ENDROOT
BRANCH   1   2
HETATM    2  C           1     -33.893  -4.790 -15.311  0.00  0.00     0.249 C 
HETATM    3  N           1     -33.523  -3.946 -14.298  0.00  0.00    -0.345 N 
HETATM    4  H           1     -32.542  -3.775 -14.116  0.00  0.00     0.163 HD
HETATM    5  O           1     -35.063  -4.994 -15.529  0.00  0.00    -0.271 OA
BRANCH   3   6
HETATM    6  C           1     -34.535  -3.299 -13.488  0.00  0.00     0.185 C 
BRANCH   6   7
HETATM    7  C           1     -34.045  -3.194 -12.050  0.00  0.00     0.038 C 
BRANCH   7   8
HETATM    8  C           1     -33.030  -4.298 -11.777  0.00  0.00     0.030 C 
BRANCH   8   9
HETATM    9  C           1     -33.671  -5.375 -10.911  0.00  0.00     0.230 C 
BRANCH   9  10
HETATM   10  N           1     -34.521  -6.266 -11.768  0.00  0.00    -0.079 N 
HETATM   11  H           1     -33.988  -7.133 -12.005  0.00  0.00     0.274 HD
HETATM   12  H           1     -35.389  -6.523 -11.247  0.00  0.00     0.274 HD
HETATM   13  H           1     -34.777  -5.763 -12.647  0.00  0.00     0.274 HD
ENDBRANCH   9  10
ENDBRANCH   8   9
ENDBRANCH   7   8
ENDBRANCH   6   7
BRANCH   6  14
HETATM   14  C           1     -34.804  -1.916 -14.028  0.00  0.00     0.196 C 
HETATM   15  O           1     -35.133  -1.765 -15.225  0.00  0.00    -0.646 OA
HETATM   16  O           1     -34.696  -0.920 -13.280  0.00  0.00    -0.646 OA
ENDBRANCH   6  14
ENDBRANCH   3   6
ENDBRANCH   1   2
BRANCH   1  17
HETATM   17  C           1     -31.992  -4.409 -16.851  0.00  0.00     0.081 C 
BRANCH  17  18
HETATM   18  C           1     -30.595  -4.922 -17.021  0.00  0.00    -0.056 A 
HETATM   19  C           1     -29.517  -4.039 -16.966  0.00  0.00     0.010 A 
HETATM   20  C           1     -28.215  -4.517 -17.124  0.00  0.00     0.038 A 
HETATM   21  C           1     -27.993  -5.877 -17.338  0.00  0.00     0.081 A 
HETATM   22  C           1     -29.072  -6.759 -17.393  0.00  0.00     0.038 A 
HETATM   23  C           1     -30.373  -6.282 -17.235  0.00  0.00     0.010 A 
BRANCH  21  24
HETATM   24  O           1     -26.729  -6.340 -17.492  0.00  0.00    -0.247 OA
BRANCH  24  25
HETATM   25  P           1     -25.929  -6.812 -16.171  0.00  0.00     0.411 P 
HETATM   26  O           1     -25.232  -5.650 -15.577  0.00  0.00    -0.624 OA
HETATM   27  O           1     -26.886  -7.369 -15.188  0.00  0.00    -0.624 OA
BRANCH  25  28
HETATM   28  O           1     -24.848  -7.942 -16.570  0.00  0.00    -0.300 OA
HETATM   29  H           1     -24.683  -7.808 -17.488  0.00  0.00     0.223 HD
ENDBRANCH  25  28
ENDBRANCH  24  25
ENDBRANCH  21  24
ENDBRANCH  17  18
ENDBRANCH   1  17
BRANCH   1  30
HETATM   30  N           1     -33.505  -6.330 -17.184  0.00  0.00    -0.066 N 
HETATM   31  H           1     -34.506  -6.474 -16.924  0.00  0.00     0.275 HD
HETATM   32  H           1     -33.451  -5.864 -18.117  0.00  0.00     0.275 HD
HETATM   33  H           1     -33.020  -7.255 -17.226  0.00  0.00     0.275 HD
ENDBRANCH   1  30
TORSDOF 13
ENDMDL
MODEL 8
REMARK VINA RESULT:      -6.4      3.945      8.564
REMARK  13 active torsions:
REMARK  status: ('A' for Active; 'I' for Inactive)
REMARK    1  A    between atoms: N_1  and  C_2 
REMARK    2  A    between atoms: C_2  and  C_3 
REMARK    3  A    between atoms: C_3  and  C_4 
REMARK    4  A    between atoms: C_4  and  C_5 
REMARK    5  A    between atoms: C_5  and  C_6 
REMARK    6  A    between atoms: C_5  and  N_9 
REMARK       I    between atoms: N_9  and  C_10 
REMARK    7  A    between atoms: C_10  and  C_11 
REMARK    8  A    between atoms: C_11  and  C_12 
REMARK    9  A    between atoms: C_11  and  N_24 
REMARK   10  A    between atoms: C_12  and  C_13 
REMARK   11  A    between atoms: C_16  and  O_17 
REMARK   12  A    between atoms: O_17  and  P_18 
REMARK   13  A    between atoms: P_18  and  O_19 
ROOT
HETATM    1  C           1     -34.039  -4.251 -15.510  0.00  0.00     0.278 C 
ENDROOT
BRANCH   1   2
HETATM    2  C           1     -32.827  -4.169 -16.406  0.00  0.00     0.249 C 
HETATM    3  N           1     -31.847  -5.121 -16.323  0.00  0.00    -0.345 N 
HETATM    4  H           1     -31.935  -5.880 -15.660  0.00  0.00     0.163 HD
HETATM    5  O           1     -32.724  -3.262 -17.198  0.00  0.00    -0.271 OA
BRANCH   3   6
HETATM    6  C           1     -30.685  -5.041 -17.184  0.00  0.00     0.185 C 
BRANCH   6   7
HETATM    7  C           1     -29.456  -4.702 -16.350  0.00  0.00     0.038 C 
BRANCH   7   8
HETATM    8  C           1     -29.269  -5.759 -15.270  0.00  0.00     0.030 C 
BRANCH   8   9
HETATM    9  C           1     -27.927  -6.454 -15.465  0.00  0.00     0.230 C 
BRANCH   9  10
HETATM   10  N           1     -27.155  -5.756 -16.545  0.00  0.00    -0.079 N 
HETATM   11  H           1     -26.428  -5.141 -16.113  0.00  0.00     0.274 HD
HETATM   12  H           1     -26.691  -6.466 -17.155  0.00  0.00     0.274 HD
HETATM   13  H           1     -27.806  -5.175 -17.119  0.00  0.00     0.274 HD
ENDBRANCH   9  10
ENDBRANCH   8   9
ENDBRANCH   7   8
ENDBRANCH   6   7
BRANCH   6  14
HETATM   14  C           1     -30.475  -6.368 -17.870  0.00  0.00     0.196 C 
HETATM   15  O           1     -31.334  -7.270 -17.763  0.00  0.00    -0.646 OA
HETATM   16  O           1     -29.441  -6.567 -18.544  0.00  0.00    -0.646 OA
ENDBRANCH   6  14
ENDBRANCH   3   6
ENDBRANCH   1   2
BRANCH   1  17
HETATM   17  C           1     -33.592  -4.310 -14.056  0.00  0.00     0.081 C 
BRANCH  17  18
HETATM   18  C           1     -34.136  -3.126 -13.317  0.00  0.00    -0.056 A 
HETATM   19  C           1     -34.919  -2.187 -13.986  0.00  0.00     0.010 A 
HETATM   20  C           1     -35.425  -1.083 -13.297  0.00  0.00     0.038 A 
HETATM   21  C           1     -35.147  -0.921 -11.940  0.00  0.00     0.081 A 
HETATM   22  C           1     -34.363  -1.861 -11.272  0.00  0.00     0.038 A 
HETATM   23  C           1     -33.857  -2.964 -11.960  0.00  0.00     0.010 A 
BRANCH  21  24
HETATM   24  O           1     -35.639   0.151 -11.272  0.00  0.00    -0.247 OA
BRANCH  24  25
HETATM   25  P           1     -36.850  -0.095 -10.233  0.00  0.00     0.411 P 
HETATM   26  O           1     -36.298  -0.411  -8.898  0.00  0.00    -0.624 OA
HETATM   27  O           1     -37.681   1.127 -10.148  0.00  0.00    -0.624 OA
BRANCH  25  28
HETATM   28  O           1     -37.757  -1.328 -10.746  0.00  0.00    -0.300 OA
HETATM   29  H           1     -38.228  -1.619  -9.982  0.00  0.00     0.223 HD
ENDBRANCH  25  28
ENDBRANCH  24  25
ENDBRANCH  21  24
ENDBRANCH  17  18
ENDBRANCH   1  17
BRANCH   1  30
HETATM   30  N           1     -34.824  -5.485 -15.843  0.00  0.00    -0.066 N 
HETATM   31  H           1     -34.167  -6.267 -16.064  0.00  0.00     0.275 HD
HETATM   32  H           1     -35.418  -5.750 -15.026  0.00  0.00     0.275 HD
HETATM   33  H           1     -35.431  -5.297 -16.672  0.00  0.00     0.275 HD
ENDBRANCH   1  30
TORSDOF 13
ENDMDL
MODEL 9
REMARK VINA RESULT:      -6.2     16.434     18.534
REMARK  13 active torsions:
REMARK  status: ('A' for Active; 'I' for Inactive)
REMARK    1  A    between atoms: N_1  and  C_2 
REMARK    2  A    between atoms: C_2  and  C_3 
REMARK    3  A    between atoms: C_3  and  C_4 
REMARK    4  A    between atoms: C_4  and  C_5 
REMARK    5  A    between atoms: C_5  and  C_6 
REMARK    6  A    between atoms: C_5  and  N_9 
REMARK       I    between atoms: N_9  and  C_10 
REMARK    7  A    between atoms: C_10  and  C_11 
REMARK    8  A    between atoms: C_11  and  C_12 
REMARK    9  A    between atoms: C_11  and  N_24 
REMARK   10  A    between atoms: C_12  and  C_13 
REMARK   11  A    between atoms: C_16  and  O_17 
REMARK   12  A    between atoms: O_17  and  P_18 
REMARK   13  A    between atoms: P_18  and  O_19 
ROOT
HETATM    1  C           1     -22.744 -10.490  -0.245  0.00  0.00     0.278 C 
ENDROOT
BRANCH   1   2
HETATM    2  C           1     -21.861 -11.500   0.446  0.00  0.00     0.249 C 
HETATM    3  N           1     -22.271 -12.801   0.567  0.00  0.00    -0.345 N 
HETATM    4  H           1     -23.167 -13.085   0.193  0.00  0.00     0.163 HD
HETATM    5  O           1     -20.791 -11.160   0.892  0.00  0.00    -0.271 OA
BRANCH   3   6
HETATM    6  C           1     -21.422 -13.770   1.231  0.00  0.00     0.185 C 
BRANCH   6   7
HETATM    7  C           1     -22.121 -14.284   2.483  0.00  0.00     0.038 C 
BRANCH   7   8
HETATM    8  C           1     -23.625 -14.084   2.344  0.00  0.00     0.030 C 
BRANCH   8   9
HETATM    9  C           1     -24.320 -15.440   2.338  0.00  0.00     0.230 C 
BRANCH   9  10
HETATM   10  N           1     -23.401 -16.476   2.913  0.00  0.00    -0.079 N 
HETATM   11  H           1     -23.012 -16.132   3.820  0.00  0.00     0.274 HD
HETATM   12  H           1     -23.933 -17.360   3.076  0.00  0.00     0.274 HD
HETATM   13  H           1     -22.618 -16.658   2.245  0.00  0.00     0.274 HD
ENDBRANCH   9  10
ENDBRANCH   8   9
ENDBRANCH   7   8
ENDBRANCH   6   7
BRANCH   6  14
HETATM   14  C           1     -21.151 -14.923   0.298  0.00  0.00     0.196 C 
HETATM   15  O           1     -21.316 -16.099   0.692  0.00  0.00    -0.646 OA
HETATM   16  O           1     -20.760 -14.705  -0.869  0.00  0.00    -0.646 OA
ENDBRANCH   6  14
ENDBRANCH   3   6
ENDBRANCH   1   2
BRANCH   1  17
HETATM   17  C           1     -22.411  -9.093   0.259  0.00  0.00     0.081 C 
BRANCH  17  18
HETATM   18  C           1     -22.016  -8.226  -0.897  0.00  0.00    -0.056 A 
HETATM   19  C           1     -21.251  -8.756  -1.936  0.00  0.00     0.010 A 
HETATM   20  C           1     -20.882  -7.947  -3.012  0.00  0.00     0.038 A 
HETATM   21  C           1     -21.279  -6.611  -3.048  0.00  0.00     0.081 A 
HETATM   22  C           1     -22.044  -6.082  -2.009  0.00  0.00     0.038 A 
HETATM   23  C           1     -22.412  -6.889  -0.933  0.00  0.00     0.010 A 
BRANCH  21  24
HETATM   24  O           1     -20.921  -5.826  -4.094  0.00  0.00    -0.247 OA
BRANCH  24  25
HETATM   25  P           1     -21.701  -6.028  -5.494  0.00  0.00     0.411 P 
HETATM   26  O           1     -23.147  -6.201  -5.231  0.00  0.00    -0.624 OA
HETATM   27  O           1     -21.493  -4.838  -6.349  0.00  0.00    -0.624 OA
BRANCH  25  28
HETATM   28  O           1     -21.130  -7.337  -6.245  0.00  0.00    -0.300 OA
HETATM   29  H           1     -21.893  -7.788  -6.564  0.00  0.00     0.223 HD
ENDBRANCH  25  28
ENDBRANCH  24  25
ENDBRANCH  21  24
ENDBRANCH  17  18
ENDBRANCH   1  17
BRANCH   1  30
HETATM   30  N           1     -24.182 -10.799   0.052  0.00  0.00    -0.066 N 
HETATM   31  H           1     -24.460 -10.337   0.947  0.00  0.00     0.275 HD
HETATM   32  H           1     -24.782 -10.442  -0.725  0.00  0.00     0.275 HD
HETATM   33  H           1     -24.304 -11.833   0.142  0.00  0.00     0.275 HD
ENDBRANCH   1  30
TORSDOF 13
ENDMDL
