MODEL 1
REMARK VINA RESULT:      -6.4      0.000      0.000
REMARK  9 active torsions:
REMARK  status: ('A' for Active; 'I' for Inactive)
REMARK    1  A    between atoms: C_1  and  C_8 
REMARK    2  A    between atoms: C_1  and  C_2 
REMARK    3  A    between atoms: C_2  and  N_12 
REMARK    4  A    between atoms: C_4  and  C_5 
REMARK    5  A    between atoms: C_5  and  C_11 
REMARK    6  A    between atoms: C_5  and  N_21 
REMARK    7  A    between atoms: C_8  and  C_9 
REMARK    8  A    between atoms: C_9  and  C_10 
REMARK    9  A    between atoms: C_9  and  N_23 
REMARK       I    between atoms: C_10  and  N_21 
ROOT
HETATM    1  C           1     -21.217  -5.829  -6.904  0.00  0.00     0.274 C 
ENDROOT
BRANCH   1   2
HETATM    2  C           1     -21.100  -5.462  -5.431  0.00  0.00     0.044 C 
BRANCH   2   3
HETATM    3  C           1     -21.968  -6.399  -4.602  0.00  0.00     0.030 C 
BRANCH   3   4
HETATM    4  C           1     -21.408  -6.493  -3.189  0.00  0.00     0.248 C 
BRANCH   4   5
HETATM    5  N           1     -22.400  -5.922  -2.219  0.00  0.00    -0.079 N 
HETATM    6  H           1     -23.250  -5.602  -2.737  0.00  0.00     0.274 HD
HETATM    7  H           1     -22.670  -6.655  -1.526  0.00  0.00     0.274 HD
HETATM    8  H           1     -21.970  -5.110  -1.720  0.00  0.00     0.274 HD
ENDBRANCH   4   5
ENDBRANCH   3   4
ENDBRANCH   2   3
ENDBRANCH   1   2
BRANCH   1   9
HETATM    9  C           1     -21.700  -4.631  -7.684  0.00  0.00     0.249 C 
HETATM   10  N           1     -22.205  -4.795  -8.947  0.00  0.00    -0.344 N 
HETATM   11  H           1     -22.255  -5.719  -9.356  0.00  0.00     0.163 HD
HETATM   12  O           1     -21.640  -3.528  -7.196  0.00  0.00    -0.271 OA
BRANCH  10  13
HETATM   13  C           1     -22.668  -3.644  -9.697  0.00  0.00     0.189 C 
BRANCH  13  14
HETATM   14  C           1     -21.851  -3.508 -10.974  0.00  0.00     0.010 C 
HETATM   15  C           1     -20.367  -3.564 -10.635  0.00  0.00     0.012 C 
HETATM   16  C           1     -22.199  -4.648 -11.923  0.00  0.00     0.012 C 
ENDBRANCH  13  14
BRANCH  13  17
HETATM   17  C           1     -24.125  -3.827 -10.048  0.00  0.00     0.197 C 
HETATM   18  O           1     -24.704  -4.899  -9.769  0.00  0.00    -0.646 OA
HETATM   19  O           1     -24.751  -2.907 -10.617  0.00  0.00    -0.646 OA
ENDBRANCH  13  17
ENDBRANCH  10  13
ENDBRANCH   1   9
BRANCH   1  20
HETATM   20  N           1     -19.875  -6.254  -7.421  0.00  0.00    -0.067 N 
HETATM   21  H           1     -19.729  -5.860  -8.378  0.00  0.00     0.275 HD
HETATM   22  H           1     -19.128  -5.901  -6.782  0.00  0.00     0.275 HD
HETATM   23  H           1     -19.832  -7.298  -7.464  0.00  0.00     0.257 HD
ENDBRANCH   1  20
TORSDOF 9
ENDMDL
MODEL 2
REMARK VINA RESULT:      -6.1     11.524     13.326
REMARK  9 active torsions:
REMARK  status: ('A' for Active; 'I' for Inactive)
REMARK    1  A    between atoms: C_1  and  C_8 
REMARK    2  A    between atoms: C_1  and  C_2 
REMARK    3  A    between atoms: C_2  and  N_12 
REMARK    4  A    between atoms: C_4  and  C_5 
REMARK    5  A    between atoms: C_5  and  C_11 
REMARK    6  A    between atoms: C_5  and  N_21 
REMARK    7  A    between atoms: C_8  and  C_9 
REMARK    8  A    between atoms: C_9  and  C_10 
REMARK    9  A    between atoms: C_9  and  N_23 
REMARK       I    between atoms: C_10  and  N_21 
ROOT
HETATM    1  C           1     -25.024  -6.890 -19.891  0.00  0.00     0.274 C 
ENDROOT
BRANCH   1   2
HETATM    2  C           1     -25.026  -7.979 -20.954  0.00  0.00     0.044 C 
BRANCH   2   3
HETATM    3  C           1     -24.224  -7.513 -22.162  0.00  0.00     0.030 C 
BRANCH   3   4
HETATM    4  C           1     -23.145  -8.539 -22.482  0.00  0.00     0.248 C 
BRANCH   4   5
HETATM    5  N           1     -22.540  -9.044 -21.206  0.00  0.00    -0.079 N 
HETATM    6  H           1     -21.759  -8.413 -20.916  0.00  0.00     0.274 HD
HETATM    7  H           1     -23.269  -9.060 -20.457  0.00  0.00     0.274 HD
HETATM    8  H           1     -22.171 -10.010 -21.355  0.00  0.00     0.274 HD
ENDBRANCH   4   5
ENDBRANCH   3   4
ENDBRANCH   2   3
ENDBRANCH   1   2
BRANCH   1   9
HETATM    9  C           1     -26.427  -6.364 -19.706  0.00  0.00     0.249 C 
HETATM   10  N           1     -27.014  -6.399 -18.469  0.00  0.00    -0.344 N 
HETATM   11  H           1     -26.507  -6.777 -17.680  0.00  0.00     0.163 HD
HETATM   12  O           1     -27.032  -5.913 -20.649  0.00  0.00    -0.271 OA
BRANCH  10  13
HETATM   13  C           1     -28.361  -5.894 -18.292  0.00  0.00     0.189 C 
BRANCH  13  14
HETATM   14  C           1     -29.235  -6.983 -17.684  0.00  0.00     0.010 C 
HETATM   15  C           1     -30.506  -6.360 -17.123  0.00  0.00     0.012 C 
HETATM   16  C           1     -29.598  -8.001 -18.758  0.00  0.00     0.012 C 
ENDBRANCH  13  14
BRANCH  13  17
HETATM   17  C           1     -28.332  -4.699 -17.371  0.00  0.00     0.197 C 
HETATM   18  O           1     -27.691  -4.751 -16.299  0.00  0.00    -0.646 OA
HETATM   19  O           1     -28.948  -3.656 -17.681  0.00  0.00    -0.646 OA
ENDBRANCH  13  17
ENDBRANCH  10  13
ENDBRANCH   1   9
BRANCH   1  20
HETATM   20  N           1     -24.530  -7.458 -18.593  0.00  0.00    -0.067 N 
HETATM   21  H           1     -25.311  -7.475 -17.899  0.00  0.00     0.275 HD
HETATM   22  H           1     -24.183  -8.431 -18.750  0.00  0.00     0.275 HD
HETATM   23  H           1     -23.751  -6.865 -18.227  0.00  0.00     0.257 HD
ENDBRANCH   1  20
TORSDOF 9
ENDMDL
MODEL 3
REMARK VINA RESULT:      -5.9     10.635     12.394
REMARK  9 active torsions:
REMARK  status: ('A' for Active; 'I' for Inactive)
REMARK    1  A    between atoms: C_1  and  C_8 
REMARK    2  A    between atoms: C_1  and  C_2 
REMARK    3  A    between atoms: C_2  and  N_12 
REMARK    4  A    between atoms: C_4  and  C_5 
REMARK    5  A    between atoms: C_5  and  C_11 
REMARK    6  A    between atoms: C_5  and  N_21 
REMARK    7  A    between atoms: C_8  and  C_9 
REMARK    8  A    between atoms: C_9  and  C_10 
REMARK    9  A    between atoms: C_9  and  N_23 
REMARK       I    between atoms: C_10  and  N_21 
ROOT
HETATM    1  C           1     -24.749  -6.597 -18.511  0.00  0.00     0.274 C 
ENDROOT
BRANCH   1   2
HETATM    2  C           1     -25.334  -7.381 -19.678  0.00  0.00     0.044 C 
BRANCH   2   3
HETATM    3  C           1     -24.961  -6.699 -20.988  0.00  0.00     0.030 C 
BRANCH   3   4
HETATM    4  C           1     -24.339  -7.719 -21.932  0.00  0.00     0.248 C 
BRANCH   4   5
HETATM    5  N           1     -23.525  -8.701 -21.142  0.00  0.00    -0.079 N 
HETATM    6  H           1     -22.711  -8.209 -20.707  0.00  0.00     0.274 HD
HETATM    7  H           1     -24.119  -9.121 -20.392  0.00  0.00     0.274 HD
HETATM    8  H           1     -23.178  -9.455 -21.777  0.00  0.00     0.274 HD
ENDBRANCH   4   5
ENDBRANCH   3   4
ENDBRANCH   2   3
ENDBRANCH   1   2
BRANCH   1   9
HETATM    9  C           1     -25.835  -6.308 -17.504  0.00  0.00     0.249 C 
HETATM   10  N           1     -27.148  -6.506 -17.837  0.00  0.00    -0.344 N 
HETATM   11  H           1     -27.391  -6.846 -18.758  0.00  0.00     0.163 HD
HETATM   12  O           1     -25.545  -5.903 -16.403  0.00  0.00    -0.271 OA
BRANCH  10  13
HETATM   13  C           1     -28.191  -6.229 -16.869  0.00  0.00     0.189 C 
BRANCH  13  14
HETATM   14  C           1     -29.442  -5.750 -17.594  0.00  0.00     0.010 C 
HETATM   15  C           1     -30.408  -5.137 -16.588  0.00  0.00     0.012 C 
HETATM   16  C           1     -29.056  -4.704 -18.632  0.00  0.00     0.012 C 
ENDBRANCH  13  14
BRANCH  13  17
HETATM   17  C           1     -28.507  -7.487 -16.097  0.00  0.00     0.197 C 
HETATM   18  O           1     -29.256  -8.354 -16.596  0.00  0.00    -0.646 OA
HETATM   19  O           1     -28.019  -7.662 -14.960  0.00  0.00    -0.646 OA
ENDBRANCH  13  17
ENDBRANCH  10  13
ENDBRANCH   1   9
BRANCH   1  20
HETATM   20  N           1     -23.666  -7.405 -17.860  0.00  0.00    -0.067 N 
HETATM   21  H           1     -23.745  -7.322 -16.821  0.00  0.00     0.275 HD
HETATM   22  H           1     -23.765  -8.408 -18.137  0.00  0.00     0.275 HD
HETATM   23  H           1     -22.732  -7.049 -18.168  0.00  0.00     0.257 HD
ENDBRANCH   1  20
TORSDOF 9
ENDMDL
MODEL 4
REMARK VINA RESULT:      -5.7      2.921      6.626
REMARK  9 active torsions:
REMARK  status: ('A' for Active; 'I' for Inactive)
REMARK    1  A    between atoms: C_1  and  C_8 
REMARK    2  A    between atoms: C_1  and  C_2 
REMARK    3  A    between atoms: C_2  and  N_12 
REMARK    4  A    between atoms: C_4  and  C_5 
REMARK    5  A    between atoms: C_5  and  C_11 
REMARK    6  A    between atoms: C_5  and  N_21 
REMARK    7  A    between atoms: C_8  and  C_9 
REMARK    8  A    between atoms: C_9  and  C_10 
REMARK    9  A    between atoms: C_9  and  N_23 
REMARK       I    between atoms: C_10  and  N_21 
ROOT
HETATM    1  C           1     -20.462  -5.038  -6.494  0.00  0.00     0.274 C 
ENDROOT
BRANCH   1   2
HETATM    2  C           1     -21.304  -3.916  -7.084  0.00  0.00     0.044 C 
BRANCH   2   3
HETATM    3  C           1     -21.475  -4.140  -8.581  0.00  0.00     0.030 C 
BRANCH   3   4
HETATM    4  C           1     -22.879  -3.725  -9.000  0.00  0.00     0.248 C 
BRANCH   4   5
HETATM    5  N           1     -23.856  -4.118  -7.932  0.00  0.00    -0.079 N 
HETATM    6  H           1     -24.804  -3.745  -8.172  0.00  0.00     0.274 HD
HETATM    7  H           1     -23.900  -5.160  -7.866  0.00  0.00     0.274 HD
HETATM    8  H           1     -23.548  -3.722  -7.016  0.00  0.00     0.274 HD
ENDBRANCH   4   5
ENDBRANCH   3   4
ENDBRANCH   2   3
ENDBRANCH   1   2
BRANCH   1   9
HETATM    9  C           1     -21.315  -5.878  -5.576  0.00  0.00     0.249 C 
HETATM   10  N           1     -20.725  -6.755  -4.704  0.00  0.00    -0.344 N 
HETATM   11  H           1     -19.717  -6.839  -4.676  0.00  0.00     0.163 HD
HETATM   12  O           1     -22.519  -5.778  -5.609  0.00  0.00    -0.271 OA
BRANCH  10  13
HETATM   13  C           1     -21.545  -7.562  -3.821  0.00  0.00     0.189 C 
BRANCH  13  14
HETATM   14  C           1     -20.923  -8.944  -3.674  0.00  0.00     0.010 C 
HETATM   15  C           1     -21.993 -10.006  -3.883  0.00  0.00     0.012 C 
HETATM   16  C           1     -19.823  -9.118  -4.715  0.00  0.00     0.012 C 
ENDBRANCH  13  14
BRANCH  13  17
HETATM   17  C           1     -21.626  -6.899  -2.467  0.00  0.00     0.197 C 
HETATM   18  O           1     -22.387  -5.923  -2.294  0.00  0.00    -0.646 OA
HETATM   19  O           1     -20.934  -7.328  -1.519  0.00  0.00    -0.646 OA
ENDBRANCH  13  17
ENDBRANCH  10  13
ENDBRANCH   1   9
BRANCH   1  20
HETATM   20  N           1     -19.927  -5.897  -7.602  0.00  0.00    -0.067 N 
HETATM   21  H           1     -20.698  -6.123  -8.271  0.00  0.00     0.275 HD
HETATM   22  H           1     -19.169  -5.383  -8.105  0.00  0.00     0.275 HD
HETATM   23  H           1     -19.542  -6.782  -7.202  0.00  0.00     0.257 HD
ENDBRANCH   1  20
TORSDOF 9
ENDMDL
MODEL 5
REMARK VINA RESULT:      -5.7      1.621      2.209
REMARK  9 active torsions:
REMARK  status: ('A' for Active; 'I' for Inactive)
REMARK    1  A    between atoms: C_1  and  C_8 
REMARK    2  A    between atoms: C_1  and  C_2 
REMARK    3  A    between atoms: C_2  and  N_12 
REMARK    4  A    between atoms: C_4  and  C_5 
REMARK    5  A    between atoms: C_5  and  C_11 
REMARK    6  A    between atoms: C_5  and  N_21 
REMARK    7  A    between atoms: C_8  and  C_9 
REMARK    8  A    between atoms: C_9  and  C_10 
REMARK    9  A    between atoms: C_9  and  N_23 
REMARK       I    between atoms: C_10  and  N_21 
ROOT
HETATM    1  C           1     -21.680  -5.380  -6.080  0.00  0.00     0.274 C 
ENDROOT
BRANCH   1   2
HETATM    2  C           1     -20.971  -6.638  -6.563  0.00  0.00     0.044 C 
BRANCH   2   3
HETATM    3  C           1     -20.135  -7.218  -5.429  0.00  0.00     0.030 C 
BRANCH   3   4
HETATM    4  C           1     -20.858  -8.415  -4.826  0.00  0.00     0.248 C 
BRANCH   4   5
HETATM    5  N           1     -20.930  -9.518  -5.839  0.00  0.00    -0.079 N 
HETATM    6  H           1     -19.975  -9.701  -6.225  0.00  0.00     0.274 HD
HETATM    7  H           1     -21.293 -10.386  -5.384  0.00  0.00     0.274 HD
HETATM    8  H           1     -21.571  -9.236  -6.615  0.00  0.00     0.274 HD
ENDBRANCH   4   5
ENDBRANCH   3   4
ENDBRANCH   2   3
ENDBRANCH   1   2
BRANCH   1   9
HETATM    9  C           1     -21.815  -4.408  -7.226  0.00  0.00     0.249 C 
HETATM   10  N           1     -22.284  -4.839  -8.439  0.00  0.00    -0.344 N 
HETATM   11  H           1     -22.540  -5.809  -8.566  0.00  0.00     0.163 HD
HETATM   12  O           1     -21.509  -3.249  -7.075  0.00  0.00    -0.271 OA
BRANCH  10  13
HETATM   13  C           1     -22.413  -3.905  -9.540  0.00  0.00     0.189 C 
BRANCH  13  14
HETATM   14  C           1     -21.412  -4.263 -10.629  0.00  0.00     0.010 C 
HETATM   15  C           1     -21.154  -3.042 -11.502  0.00  0.00     0.012 C 
HETATM   16  C           1     -20.106  -4.715  -9.988  0.00  0.00     0.012 C 
ENDBRANCH  13  14
BRANCH  13  17
HETATM   17  C           1     -23.814  -3.979 -10.099  0.00  0.00     0.197 C 
HETATM   18  O           1     -24.428  -2.929 -10.386  0.00  0.00    -0.646 OA
HETATM   19  O           1     -24.358  -5.089 -10.275  0.00  0.00    -0.646 OA
ENDBRANCH  13  17
ENDBRANCH  10  13
ENDBRANCH   1   9
BRANCH   1  20
HETATM   20  N           1     -23.044  -5.741  -5.569  0.00  0.00    -0.067 N 
HETATM   21  H           1     -23.763  -5.158  -6.053  0.00  0.00     0.275 HD
HETATM   22  H           1     -23.230  -6.751  -5.757  0.00  0.00     0.275 HD
HETATM   23  H           1     -23.088  -5.564  -4.539  0.00  0.00     0.257 HD
ENDBRANCH   1  20
TORSDOF 9
ENDMDL
MODEL 6
REMARK VINA RESULT:      -5.2      2.888      6.770
REMARK  9 active torsions:
REMARK  status: ('A' for Active; 'I' for Inactive)
REMARK    1  A    between atoms: C_1  and  C_8 
REMARK    2  A    between atoms: C_1  and  C_2 
REMARK    3  A    between atoms: C_2  and  N_12 
REMARK    4  A    between atoms: C_4  and  C_5 
REMARK    5  A    between atoms: C_5  and  C_11 
REMARK    6  A    between atoms: C_5  and  N_21 
REMARK    7  A    between atoms: C_8  and  C_9 
REMARK    8  A    between atoms: C_9  and  C_10 
REMARK    9  A    between atoms: C_9  and  N_23 
REMARK       I    between atoms: C_10  and  N_21 
ROOT
HETATM    1  C           1     -21.592  -5.082  -7.802  0.00  0.00     0.274 C 
ENDROOT
BRANCH   1   2
HETATM    2  C           1     -20.740  -4.047  -8.523  0.00  0.00     0.044 C 
BRANCH   2   3
HETATM    3  C           1     -20.686  -4.377 -10.009  0.00  0.00     0.030 C 
BRANCH   3   4
HETATM    4  C           1     -22.006  -3.992 -10.664  0.00  0.00     0.248 C 
BRANCH   4   5
HETATM    5  N           1     -22.062  -4.562 -12.050  0.00  0.00    -0.079 N 
HETATM    6  H           1     -22.916  -5.158 -12.148  0.00  0.00     0.274 HD
HETATM    7  H           1     -22.100  -3.783 -12.745  0.00  0.00     0.274 HD
HETATM    8  H           1     -21.210  -5.143 -12.222  0.00  0.00     0.274 HD
ENDBRANCH   4   5
ENDBRANCH   3   4
ENDBRANCH   2   3
ENDBRANCH   1   2
BRANCH   1   9
HETATM    9  C           1     -20.744  -5.820  -6.797  0.00  0.00     0.249 C 
HETATM   10  N           1     -21.333  -6.650  -5.881  0.00  0.00    -0.344 N 
HETATM   11  H           1     -22.338  -6.769  -5.879  0.00  0.00     0.163 HD
HETATM   12  O           1     -19.544  -5.679  -6.799  0.00  0.00    -0.271 OA
BRANCH  10  13
HETATM   13  C           1     -20.518  -7.360  -4.915  0.00  0.00     0.189 C 
BRANCH  13  14
HETATM   14  C           1     -21.301  -7.534  -3.621  0.00  0.00     0.010 C 
HETATM   15  C           1     -20.434  -8.253  -2.596  0.00  0.00     0.012 C 
HETATM   16  C           1     -21.699  -6.166  -3.081  0.00  0.00     0.012 C 
ENDBRANCH  13  14
BRANCH  13  17
HETATM   17  C           1     -20.150  -8.715  -5.468  0.00  0.00     0.197 C 
HETATM   18  O           1     -21.045  -9.549  -5.724  0.00  0.00    -0.646 OA
HETATM   19  O           1     -18.951  -9.004  -5.670  0.00  0.00    -0.646 OA
ENDBRANCH  13  17
ENDBRANCH  10  13
ENDBRANCH   1   9
BRANCH   1  20
HETATM   20  N           1     -22.721  -4.393  -7.093  0.00  0.00    -0.067 N 
HETATM   21  H           1     -22.509  -4.339  -6.071  0.00  0.00     0.275 HD
HETATM   22  H           1     -22.836  -3.429  -7.477  0.00  0.00     0.275 HD
HETATM   23  H           1     -23.604  -4.933  -7.237  0.00  0.00     0.257 HD
ENDBRANCH   1  20
TORSDOF 9
ENDMDL
MODEL 7
REMARK VINA RESULT:      -5.2      2.222      6.128
REMARK  9 active torsions:
REMARK  status: ('A' for Active; 'I' for Inactive)
REMARK    1  A    between atoms: C_1  and  C_8 
REMARK    2  A    between atoms: C_1  and  C_2 
REMARK    3  A    between atoms: C_2  and  N_12 
REMARK    4  A    between atoms: C_4  and  C_5 
REMARK    5  A    between atoms: C_5  and  C_11 
REMARK    6  A    between atoms: C_5  and  N_21 
REMARK    7  A    between atoms: C_8  and  C_9 
REMARK    8  A    between atoms: C_9  and  C_10 
REMARK    9  A    between atoms: C_9  and  N_23 
REMARK       I    between atoms: C_10  and  N_21 
ROOT
HETATM    1  C           1     -23.359  -4.154  -9.035  0.00  0.00     0.274 C 
ENDROOT
BRANCH   1   2
HETATM    2  C           1     -22.760  -3.472 -10.257  0.00  0.00     0.044 C 
BRANCH   2   3
HETATM    3  C           1     -22.479  -4.512 -11.334  0.00  0.00     0.030 C 
BRANCH   3   4
HETATM    4  C           1     -21.067  -4.319 -11.871  0.00  0.00     0.248 C 
BRANCH   4   5
HETATM    5  N           1     -20.534  -2.995 -11.411  0.00  0.00    -0.079 N 
HETATM    6  H           1     -19.489  -3.001 -11.465  0.00  0.00     0.274 HD
HETATM    7  H           1     -20.908  -2.236 -12.023  0.00  0.00     0.274 HD
HETATM    8  H           1     -20.830  -2.825 -10.423  0.00  0.00     0.274 HD
ENDBRANCH   4   5
ENDBRANCH   3   4
ENDBRANCH   2   3
ENDBRANCH   1   2
BRANCH   1   9
HETATM    9  C           1     -22.345  -4.168  -7.918  0.00  0.00     0.249 C 
HETATM   10  N           1     -22.099  -5.327  -7.231  0.00  0.00    -0.344 N 
HETATM   11  H           1     -22.596  -6.174  -7.473  0.00  0.00     0.163 HD
HETATM   12  O           1     -21.750  -3.157  -7.629  0.00  0.00    -0.271 OA
BRANCH  10  13
HETATM   13  C           1     -21.124  -5.340  -6.158  0.00  0.00     0.189 C 
BRANCH  13  14
HETATM   14  C           1     -21.548  -6.351  -5.101  0.00  0.00     0.010 C 
HETATM   15  C           1     -21.071  -5.883  -3.732  0.00  0.00     0.012 C 
HETATM   16  C           1     -23.066  -6.473  -5.097  0.00  0.00     0.012 C 
ENDBRANCH  13  14
BRANCH  13  17
HETATM   17  C           1     -19.774  -5.726  -6.711  0.00  0.00     0.197 C 
HETATM   18  O           1     -18.950  -4.839  -7.023  0.00  0.00    -0.646 OA
HETATM   19  O           1     -19.479  -6.932  -6.855  0.00  0.00    -0.646 OA
ENDBRANCH  13  17
ENDBRANCH  10  13
ENDBRANCH   1   9
BRANCH   1  20
HETATM   20  N           1     -24.580  -3.402  -8.592  0.00  0.00    -0.067 N 
HETATM   21  H           1     -25.272  -4.071  -8.183  0.00  0.00     0.275 HD
HETATM   22  H           1     -24.310  -2.696  -7.871  0.00  0.00     0.275 HD
HETATM   23  H           1     -25.007  -2.917  -9.413  0.00  0.00     0.257 HD
ENDBRANCH   1  20
TORSDOF 9
ENDMDL
MODEL 8
REMARK VINA RESULT:      -5.1      5.023      8.530
REMARK  9 active torsions:
REMARK  status: ('A' for Active; 'I' for Inactive)
REMARK    1  A    between atoms: C_1  and  C_8 
REMARK    2  A    between atoms: C_1  and  C_2 
REMARK    3  A    between atoms: C_2  and  N_12 
REMARK    4  A    between atoms: C_4  and  C_5 
REMARK    5  A    between atoms: C_5  and  C_11 
REMARK    6  A    between atoms: C_5  and  N_21 
REMARK    7  A    between atoms: C_8  and  C_9 
REMARK    8  A    between atoms: C_9  and  C_10 
REMARK    9  A    between atoms: C_9  and  N_23 
REMARK       I    between atoms: C_10  and  N_21 
ROOT
HETATM    1  C           1     -20.429  -8.062  -4.695  0.00  0.00     0.274 C 
ENDROOT
BRANCH   1   2
HETATM    2  C           1     -21.462  -6.949  -4.798  0.00  0.00     0.044 C 
BRANCH   2   3
HETATM    3  C           1     -20.784  -5.666  -5.261  0.00  0.00     0.030 C 
BRANCH   3   4
HETATM    4  C           1     -21.140  -5.401  -6.718  0.00  0.00     0.248 C 
BRANCH   4   5
HETATM    5  N           1     -20.104  -6.020  -7.607  0.00  0.00    -0.079 N 
HETATM    6  H           1     -19.553  -6.724  -7.064  0.00  0.00     0.274 HD
HETATM    7  H           1     -20.573  -6.493  -8.412  0.00  0.00     0.274 HD
HETATM    8  H           1     -19.462  -5.277  -7.964  0.00  0.00     0.274 HD
ENDBRANCH   4   5
ENDBRANCH   3   4
ENDBRANCH   2   3
ENDBRANCH   1   2
BRANCH   1   9
HETATM    9  C           1     -20.406  -8.599  -3.285  0.00  0.00     0.249 C 
HETATM   10  N           1     -21.564  -8.659  -2.556  0.00  0.00    -0.344 N 
HETATM   11  H           1     -22.435  -8.343  -2.963  0.00  0.00     0.163 HD
HETATM   12  O           1     -19.366  -8.976  -2.799  0.00  0.00    -0.271 OA
BRANCH  10  13
HETATM   13  C           1     -21.542  -9.175  -1.202  0.00  0.00     0.189 C 
BRANCH  13  14
HETATM   14  C           1     -22.349  -8.255  -0.295  0.00  0.00     0.010 C 
HETATM   15  C           1     -21.706  -8.212   1.085  0.00  0.00     0.012 C 
HETATM   16  C           1     -22.374  -6.853  -0.890  0.00  0.00     0.012 C 
ENDBRANCH  13  14
BRANCH  13  17
HETATM   17  C           1     -22.145 -10.558  -1.182  0.00  0.00     0.197 C 
HETATM   18  O           1     -23.380 -10.703  -1.314  0.00  0.00    -0.646 OA
HETATM   19  O           1     -21.411 -11.559  -1.034  0.00  0.00    -0.646 OA
ENDBRANCH  13  17
ENDBRANCH  10  13
ENDBRANCH   1   9
BRANCH   1  20
HETATM   20  N           1     -20.790  -9.167  -5.644  0.00  0.00    -0.067 N 
HETATM   21  H           1     -20.730  -8.816  -6.627  0.00  0.00     0.275 HD
HETATM   22  H           1     -20.126  -9.964  -5.518  0.00  0.00     0.275 HD
HETATM   23  H           1     -21.764  -9.490  -5.449  0.00  0.00     0.257 HD
ENDBRANCH   1  20
TORSDOF 9
ENDMDL
MODEL 9
REMARK VINA RESULT:      -5.0      5.035      8.898
REMARK  9 active torsions:
REMARK  status: ('A' for Active; 'I' for Inactive)
REMARK    1  A    between atoms: C_1  and  C_8 
REMARK    2  A    between atoms: C_1  and  C_2 
REMARK    3  A    between atoms: C_2  and  N_12 
REMARK    4  A    between atoms: C_4  and  C_5 
REMARK    5  A    between atoms: C_5  and  C_11 
REMARK    6  A    between atoms: C_5  and  N_21 
REMARK    7  A    between atoms: C_8  and  C_9 
REMARK    8  A    between atoms: C_9  and  C_10 
REMARK    9  A    between atoms: C_9  and  N_23 
REMARK       I    between atoms: C_10  and  N_21 
ROOT
HETATM    1  C           1     -21.992  -6.533  -3.073  0.00  0.00     0.274 C 
ENDROOT
BRANCH   1   2
HETATM    2  C           1     -20.885  -5.923  -3.921  0.00  0.00     0.044 C 
BRANCH   2   3
HETATM    3  C           1     -21.358  -5.801  -5.364  0.00  0.00     0.030 C 
BRANCH   3   4
HETATM    4  C           1     -20.255  -6.274  -6.301  0.00  0.00     0.248 C 
BRANCH   4   5
HETATM    5  N           1     -19.866  -7.679  -5.949  0.00  0.00    -0.079 N 
HETATM    6  H           1     -20.432  -8.351  -6.517  0.00  0.00     0.274 HD
HETATM    7  H           1     -18.851  -7.821  -6.152  0.00  0.00     0.274 HD
HETATM    8  H           1     -20.046  -7.845  -4.933  0.00  0.00     0.274 HD
ENDBRANCH   4   5
ENDBRANCH   3   4
ENDBRANCH   2   3
ENDBRANCH   1   2
BRANCH   1   9
HETATM    9  C           1     -21.582  -7.916  -2.628  0.00  0.00     0.249 C 
HETATM   10  N           1     -22.149  -8.473  -1.513  0.00  0.00    -0.344 N 
HETATM   11  H           1     -22.844  -7.958  -0.988  0.00  0.00     0.163 HD
HETATM   12  O           1     -20.752  -8.531  -3.255  0.00  0.00    -0.271 OA
BRANCH  10  13
HETATM   13  C           1     -21.755  -9.801  -1.086  0.00  0.00     0.189 C 
BRANCH  13  14
HETATM   14  C           1     -21.679  -9.843   0.434  0.00  0.00     0.010 C 
HETATM   15  C           1     -20.520 -10.736   0.859  0.00  0.00     0.012 C 
HETATM   16  C           1     -21.458  -8.434   0.969  0.00  0.00     0.012 C 
ENDBRANCH  13  14
BRANCH  13  17
HETATM   17  C           1     -22.773 -10.806  -1.567  0.00  0.00     0.197 C 
HETATM   18  O           1     -22.580 -11.431  -2.633  0.00  0.00    -0.646 OA
HETATM   19  O           1     -23.809 -11.015  -0.900  0.00  0.00    -0.646 OA
ENDBRANCH  13  17
ENDBRANCH  10  13
ENDBRANCH   1   9
BRANCH   1  20
HETATM   20  N           1     -22.231  -5.672  -1.868  0.00  0.00    -0.067 N 
HETATM   21  H           1     -22.695  -6.237  -1.121  0.00  0.00     0.275 HD
HETATM   22  H           1     -21.317  -5.310  -1.513  0.00  0.00     0.275 HD
HETATM   23  H           1     -22.845  -4.868  -2.130  0.00  0.00     0.257 HD
ENDBRANCH   1  20
TORSDOF 9
ENDMDL
