MODEL 1
REMARK VINA RESULT:      -5.8      0.000      0.000
REMARK  8 active torsions:
REMARK  status: ('A' for Active; 'I' for Inactive)
REMARK    1  A    between atoms: C_2  and  C_17 
REMARK    2  A    between atoms: C_2  and  C_10 
REMARK       I    between atoms: C_9  and  N_13 
REMARK    3  A    between atoms: C_9  and  C_16 
REMARK    4  A    between atoms: C_10  and  N_11 
REMARK    5  A    between atoms: C_12  and  C_18 
REMARK    6  A    between atoms: C_12  and  N_13 
REMARK    7  A    between atoms: N_14  and  C_16 
REMARK    8  A    between atoms: C_16  and  C_17 
ROOT
HETATM    1  C           1     -29.226  -6.487 -16.860  0.00  0.00     0.274 C 
ENDROOT
BRANCH   1   2
HETATM    2  C           1     -27.960  -6.764 -16.084  0.00  0.00     0.248 C 
HETATM    3  O           1     -28.001  -7.446 -15.087  0.00  0.00    -0.271 OA
HETATM    4  N           1     -26.769  -6.244 -16.510  0.00  0.00    -0.349 N 
HETATM    5  H           1     -26.736  -5.673 -17.345  0.00  0.00     0.163 HD
BRANCH   4   6
HETATM    6  C           1     -25.553  -6.510 -15.765  0.00  0.00     0.235 C 
BRANCH   6   7
HETATM    7  C           1     -24.592  -7.285 -16.632  0.00  0.00     0.191 C 
HETATM    8  O           1     -24.247  -6.830 -17.744  0.00  0.00    -0.647 OA
HETATM    9  O           1     -24.140  -8.382 -16.238  0.00  0.00    -0.647 OA
ENDBRANCH   6   7
ENDBRANCH   4   6
ENDBRANCH   1   2
BRANCH   1  10
HETATM   10  N           1     -30.252  -5.889 -15.943  0.00  0.00    -0.067 N 
HETATM   11  H           1     -30.378  -4.878 -16.176  0.00  0.00     0.275 HD
HETATM   12  H           1     -31.160  -6.391 -16.062  0.00  0.00     0.275 HD
HETATM   13  H           1     -29.931  -5.981 -14.953  0.00  0.00     0.275 HD
ENDBRANCH   1  10
BRANCH   1  14
HETATM   14  C           1     -28.926  -5.511 -17.990  0.00  0.00     0.044 C 
BRANCH  14  15
HETATM   15  C           1     -29.712  -4.226 -17.773  0.00  0.00     0.030 C 
BRANCH  15  16
HETATM   16  C           1     -28.779  -3.140 -17.251  0.00  0.00     0.230 C 
BRANCH  16  17
HETATM   17  N           1     -29.426  -1.798 -17.426  0.00  0.00    -0.079 N 
HETATM   18  H           1     -30.251  -1.724 -16.790  0.00  0.00     0.274 HD
HETATM   19  H           1     -28.738  -1.047 -17.193  0.00  0.00     0.274 HD
HETATM   20  H           1     -29.739  -1.689 -18.417  0.00  0.00     0.274 HD
ENDBRANCH  16  17
ENDBRANCH  15  16
ENDBRANCH  14  15
ENDBRANCH   1  14
TORSDOF 8
ENDMDL
MODEL 2
REMARK VINA RESULT:      -5.8      8.919     10.429
REMARK  8 active torsions:
REMARK  status: ('A' for Active; 'I' for Inactive)
REMARK    1  A    between atoms: C_2  and  C_17 
REMARK    2  A    between atoms: C_2  and  C_10 
REMARK       I    between atoms: C_9  and  N_13 
REMARK    3  A    between atoms: C_9  and  C_16 
REMARK    4  A    between atoms: C_10  and  N_11 
REMARK    5  A    between atoms: C_12  and  C_18 
REMARK    6  A    between atoms: C_12  and  N_13 
REMARK    7  A    between atoms: N_14  and  C_16 
REMARK    8  A    between atoms: C_16  and  C_17 
ROOT
HETATM    1  C           1     -34.533  -1.526 -12.029  0.00  0.00     0.274 C 
ENDROOT
BRANCH   1   2
HETATM    2  C           1     -35.458  -0.972 -13.085  0.00  0.00     0.248 C 
HETATM    3  O           1     -36.654  -1.097 -12.967  0.00  0.00    -0.271 OA
HETATM    4  N           1     -34.942  -0.327 -14.177  0.00  0.00    -0.349 N 
HETATM    5  H           1     -33.940  -0.223 -14.275  0.00  0.00     0.163 HD
BRANCH   4   6
HETATM    6  C           1     -35.830   0.205 -15.192  0.00  0.00     0.235 C 
BRANCH   6   7
HETATM    7  C           1     -35.907  -0.759 -16.349  0.00  0.00     0.191 C 
HETATM    8  O           1     -34.960  -1.544 -16.572  0.00  0.00    -0.647 OA
HETATM    9  O           1     -36.917  -0.773 -17.085  0.00  0.00    -0.647 OA
ENDBRANCH   6   7
ENDBRANCH   4   6
ENDBRANCH   1   2
BRANCH   1  10
HETATM   10  N           1     -35.196  -1.432 -10.686  0.00  0.00    -0.067 N 
HETATM   11  H           1     -34.559  -1.825  -9.957  0.00  0.00     0.275 HD
HETATM   12  H           1     -35.401  -0.432 -10.469  0.00  0.00     0.275 HD
HETATM   13  H           1     -36.088  -1.976 -10.699  0.00  0.00     0.275 HD
ENDBRANCH   1  10
BRANCH   1  14
HETATM   14  C           1     -34.223  -2.985 -12.340  0.00  0.00     0.044 C 
BRANCH  14  15
HETATM   15  C           1     -33.273  -3.537 -11.287  0.00  0.00     0.030 C 
BRANCH  15  16
HETATM   16  C           1     -33.509  -5.034 -11.122  0.00  0.00     0.230 C 
BRANCH  16  17
HETATM   17  N           1     -34.504  -5.498 -12.144  0.00  0.00    -0.079 N 
HETATM   18  H           1     -34.881  -6.431 -11.864  0.00  0.00     0.274 HD
HETATM   19  H           1     -35.288  -4.810 -12.205  0.00  0.00     0.274 HD
HETATM   20  H           1     -34.036  -5.576 -13.075  0.00  0.00     0.274 HD
ENDBRANCH  16  17
ENDBRANCH  15  16
ENDBRANCH  14  15
ENDBRANCH   1  14
TORSDOF 8
ENDMDL
MODEL 3
REMARK VINA RESULT:      -5.5      9.283     10.785
REMARK  8 active torsions:
REMARK  status: ('A' for Active; 'I' for Inactive)
REMARK    1  A    between atoms: C_2  and  C_17 
REMARK    2  A    between atoms: C_2  and  C_10 
REMARK       I    between atoms: C_9  and  N_13 
REMARK    3  A    between atoms: C_9  and  C_16 
REMARK    4  A    between atoms: C_10  and  N_11 
REMARK    5  A    between atoms: C_12  and  C_18 
REMARK    6  A    between atoms: C_12  and  N_13 
REMARK    7  A    between atoms: N_14  and  C_16 
REMARK    8  A    between atoms: C_16  and  C_17 
ROOT
HETATM    1  C           1     -34.473  -4.184 -12.221  0.00  0.00     0.274 C 
ENDROOT
BRANCH   1   2
HETATM    2  C           1     -35.065  -2.809 -12.031  0.00  0.00     0.248 C 
HETATM    3  O           1     -35.863  -2.613 -11.145  0.00  0.00    -0.271 OA
HETATM    4  N           1     -34.698  -1.784 -12.861  0.00  0.00    -0.349 N 
HETATM    5  H           1     -34.030  -1.949 -13.602  0.00  0.00     0.163 HD
BRANCH   4   6
HETATM    6  C           1     -35.268  -0.463 -12.677  0.00  0.00     0.235 C 
BRANCH   6   7
HETATM    7  C           1     -36.302  -0.208 -13.746  0.00  0.00     0.191 C 
HETATM    8  O           1     -36.033   0.542 -14.709  0.00  0.00    -0.647 OA
HETATM    9  O           1     -37.427  -0.747 -13.668  0.00  0.00    -0.647 OA
ENDBRANCH   6   7
ENDBRANCH   4   6
ENDBRANCH   1   2
BRANCH   1  10
HETATM   10  N           1     -33.363  -4.114 -13.229  0.00  0.00    -0.067 N 
HETATM   11  H           1     -32.591  -3.518 -12.853  0.00  0.00     0.275 HD
HETATM   12  H           1     -33.002  -5.075 -13.416  0.00  0.00     0.275 HD
HETATM   13  H           1     -33.724  -3.698 -14.116  0.00  0.00     0.275 HD
ENDBRANCH   1  10
BRANCH   1  14
HETATM   14  C           1     -33.921  -4.688 -10.894  0.00  0.00     0.044 C 
BRANCH  14  15
HETATM   15  C           1     -33.903  -6.211 -10.897  0.00  0.00     0.030 C 
BRANCH  15  16
HETATM   16  C           1     -34.852  -6.734  -9.827  0.00  0.00     0.230 C 
BRANCH  16  17
HETATM   17  N           1     -34.654  -8.212  -9.662  0.00  0.00    -0.079 N 
HETATM   18  H           1     -33.692  -8.396  -9.299  0.00  0.00     0.274 HD
HETATM   19  H           1     -35.358  -8.584  -8.986  0.00  0.00     0.274 HD
HETATM   20  H           1     -34.774  -8.684 -10.586  0.00  0.00     0.274 HD
ENDBRANCH  16  17
ENDBRANCH  15  16
ENDBRANCH  14  15
ENDBRANCH   1  14
TORSDOF 8
ENDMDL
MODEL 4
REMARK VINA RESULT:      -5.5      8.846     11.091
REMARK  8 active torsions:
REMARK  status: ('A' for Active; 'I' for Inactive)
REMARK    1  A    between atoms: C_2  and  C_17 
REMARK    2  A    between atoms: C_2  and  C_10 
REMARK       I    between atoms: C_9  and  N_13 
REMARK    3  A    between atoms: C_9  and  C_16 
REMARK    4  A    between atoms: C_10  and  N_11 
REMARK    5  A    between atoms: C_12  and  C_18 
REMARK    6  A    between atoms: C_12  and  N_13 
REMARK    7  A    between atoms: N_14  and  C_16 
REMARK    8  A    between atoms: C_16  and  C_17 
ROOT
HETATM    1  C           1     -34.274  -3.786 -12.770  0.00  0.00     0.274 C 
ENDROOT
BRANCH   1   2
HETATM    2  C           1     -34.848  -2.398 -12.918  0.00  0.00     0.248 C 
HETATM    3  O           1     -34.969  -1.908 -14.016  0.00  0.00    -0.271 OA
HETATM    4  N           1     -35.232  -1.695 -11.808  0.00  0.00    -0.349 N 
HETATM    5  H           1     -35.131  -2.106 -10.889  0.00  0.00     0.163 HD
BRANCH   4   6
HETATM    6  C           1     -35.784  -0.361 -11.950  0.00  0.00     0.235 C 
BRANCH   6   7
HETATM    7  C           1     -36.874  -0.157 -10.928  0.00  0.00     0.191 C 
HETATM    8  O           1     -37.946  -0.794 -11.022  0.00  0.00    -0.647 OA
HETATM    9  O           1     -36.707   0.648  -9.986  0.00  0.00    -0.647 OA
ENDBRANCH   6   7
ENDBRANCH   4   6
ENDBRANCH   1   2
BRANCH   1  10
HETATM   10  N           1     -33.550  -4.163 -14.029  0.00  0.00    -0.067 N 
HETATM   11  H           1     -34.209  -4.108 -14.838  0.00  0.00     0.275 HD
HETATM   12  H           1     -32.753  -3.505 -14.183  0.00  0.00     0.275 HD
HETATM   13  H           1     -33.184  -5.138 -13.943  0.00  0.00     0.275 HD
ENDBRANCH   1  10
BRANCH   1  14
HETATM   14  C           1     -33.301  -3.813 -11.598  0.00  0.00     0.044 C 
BRANCH  14  15
HETATM   15  C           1     -33.873  -4.676 -10.483  0.00  0.00     0.030 C 
BRANCH  15  16
HETATM   16  C           1     -34.345  -6.006 -11.059  0.00  0.00     0.230 C 
BRANCH  16  17
HETATM   17  N           1     -34.768  -6.913  -9.942  0.00  0.00    -0.079 N 
HETATM   18  H           1     -34.535  -7.901 -10.188  0.00  0.00     0.274 HD
HETATM   19  H           1     -34.265  -6.645  -9.066  0.00  0.00     0.274 HD
HETATM   20  H           1     -35.798  -6.824  -9.793  0.00  0.00     0.274 HD
ENDBRANCH  16  17
ENDBRANCH  15  16
ENDBRANCH  14  15
ENDBRANCH   1  14
TORSDOF 8
ENDMDL
MODEL 5
REMARK VINA RESULT:      -5.4      2.246      2.615
REMARK  8 active torsions:
REMARK  status: ('A' for Active; 'I' for Inactive)
REMARK    1  A    between atoms: C_2  and  C_17 
REMARK    2  A    between atoms: C_2  and  C_10 
REMARK       I    between atoms: C_9  and  N_13 
REMARK    3  A    between atoms: C_9  and  C_16 
REMARK    4  A    between atoms: C_10  and  N_11 
REMARK    5  A    between atoms: C_12  and  C_18 
REMARK    6  A    between atoms: C_12  and  N_13 
REMARK    7  A    between atoms: N_14  and  C_16 
REMARK    8  A    between atoms: C_16  and  C_17 
ROOT
HETATM    1  C           1     -29.810  -7.038 -18.432  0.00  0.00     0.274 C 
ENDROOT
BRANCH   1   2
HETATM    2  C           1     -28.468  -6.397 -18.175  0.00  0.00     0.248 C 
HETATM    3  O           1     -27.784  -6.038 -19.104  0.00  0.00    -0.271 OA
HETATM    4  N           1     -28.027  -6.224 -16.891  0.00  0.00    -0.349 N 
HETATM    5  H           1     -28.600  -6.526 -16.114  0.00  0.00     0.163 HD
BRANCH   4   6
HETATM    6  C           1     -26.737  -5.609 -16.645  0.00  0.00     0.235 C 
BRANCH   6   7
HETATM    7  C           1     -25.719  -6.679 -16.338  0.00  0.00     0.191 C 
HETATM    8  O           1     -25.866  -7.412 -15.335  0.00  0.00    -0.647 OA
HETATM    9  O           1     -24.729  -6.835 -17.085  0.00  0.00    -0.647 OA
ENDBRANCH   6   7
ENDBRANCH   4   6
ENDBRANCH   1   2
BRANCH   1  10
HETATM   10  N           1     -29.615  -8.484 -18.781  0.00  0.00    -0.067 N 
HETATM   11  H           1     -28.668  -8.613 -19.205  0.00  0.00     0.275 HD
HETATM   12  H           1     -29.693  -9.065 -17.917  0.00  0.00     0.275 HD
HETATM   13  H           1     -30.346  -8.779 -19.466  0.00  0.00     0.275 HD
ENDBRANCH   1  10
BRANCH   1  14
HETATM   14  C           1     -30.673  -6.931 -17.180  0.00  0.00     0.044 C 
BRANCH  14  15
HETATM   15  C           1     -31.721  -5.845 -17.378  0.00  0.00     0.030 C 
BRANCH  15  16
HETATM   16  C           1     -31.263  -4.564 -16.691  0.00  0.00     0.230 C 
BRANCH  16  17
HETATM   17  N           1     -31.765  -3.379 -17.461  0.00  0.00    -0.079 N 
HETATM   18  H           1     -31.192  -2.539 -17.220  0.00  0.00     0.274 HD
HETATM   19  H           1     -31.689  -3.570 -18.485  0.00  0.00     0.274 HD
HETATM   20  H           1     -32.765  -3.201 -17.213  0.00  0.00     0.274 HD
ENDBRANCH  16  17
ENDBRANCH  15  16
ENDBRANCH  14  15
ENDBRANCH   1  14
TORSDOF 8
ENDMDL
MODEL 6
REMARK VINA RESULT:      -5.4      2.929      3.410
REMARK  8 active torsions:
REMARK  status: ('A' for Active; 'I' for Inactive)
REMARK    1  A    between atoms: C_2  and  C_17 
REMARK    2  A    between atoms: C_2  and  C_10 
REMARK       I    between atoms: C_9  and  N_13 
REMARK    3  A    between atoms: C_9  and  C_16 
REMARK    4  A    between atoms: C_10  and  N_11 
REMARK    5  A    between atoms: C_12  and  C_18 
REMARK    6  A    between atoms: C_12  and  N_13 
REMARK    7  A    between atoms: N_14  and  C_16 
REMARK    8  A    between atoms: C_16  and  C_17 
ROOT
HETATM    1  C           1     -28.160  -6.068 -17.554  0.00  0.00     0.274 C 
ENDROOT
BRANCH   1   2
HETATM    2  C           1     -26.843  -6.308 -18.252  0.00  0.00     0.248 C 
HETATM    3  O           1     -25.807  -6.189 -17.643  0.00  0.00    -0.271 OA
HETATM    4  N           1     -26.825  -6.660 -19.574  0.00  0.00    -0.349 N 
HETATM    5  H           1     -27.693  -6.760 -20.084  0.00  0.00     0.163 HD
BRANCH   4   6
HETATM    6  C           1     -25.559  -6.891 -20.245  0.00  0.00     0.235 C 
BRANCH   6   7
HETATM    7  C           1     -25.727  -7.981 -21.275  0.00  0.00     0.191 C 
HETATM    8  O           1     -26.785  -8.647 -21.313  0.00  0.00    -0.647 OA
HETATM    9  O           1     -24.810  -8.218 -22.090  0.00  0.00    -0.647 OA
ENDBRANCH   6   7
ENDBRANCH   4   6
ENDBRANCH   1   2
BRANCH   1  10
HETATM   10  N           1     -27.904  -5.497 -16.190  0.00  0.00    -0.067 N 
HETATM   11  H           1     -27.255  -6.127 -15.666  0.00  0.00     0.275 HD
HETATM   12  H           1     -27.473  -4.551 -16.284  0.00  0.00     0.275 HD
HETATM   13  H           1     -28.807  -5.418 -15.670  0.00  0.00     0.275 HD
ENDBRANCH   1  10
BRANCH   1  14
HETATM   14  C           1     -28.995  -5.086 -18.366  0.00  0.00     0.044 C 
BRANCH  14  15
HETATM   15  C           1     -29.553  -4.011 -17.445  0.00  0.00     0.030 C 
BRANCH  15  16
HETATM   16  C           1     -31.035  -4.267 -17.201  0.00  0.00     0.230 C 
BRANCH  16  17
HETATM   17  N           1     -31.824  -3.056 -17.602  0.00  0.00    -0.079 N 
HETATM   18  H           1     -31.559  -2.250 -16.992  0.00  0.00     0.274 HD
HETATM   19  H           1     -31.618  -2.820 -18.599  0.00  0.00     0.274 HD
HETATM   20  H           1     -32.844  -3.253 -17.494  0.00  0.00     0.274 HD
ENDBRANCH  16  17
ENDBRANCH  15  16
ENDBRANCH  14  15
ENDBRANCH   1  14
TORSDOF 8
ENDMDL
MODEL 7
REMARK VINA RESULT:      -5.3      8.833     10.619
REMARK  8 active torsions:
REMARK  status: ('A' for Active; 'I' for Inactive)
REMARK    1  A    between atoms: C_2  and  C_17 
REMARK    2  A    between atoms: C_2  and  C_10 
REMARK       I    between atoms: C_9  and  N_13 
REMARK    3  A    between atoms: C_9  and  C_16 
REMARK    4  A    between atoms: C_10  and  N_11 
REMARK    5  A    between atoms: C_12  and  C_18 
REMARK    6  A    between atoms: C_12  and  N_13 
REMARK    7  A    between atoms: N_14  and  C_16 
REMARK    8  A    between atoms: C_16  and  C_17 
ROOT
HETATM    1  C           1     -20.990  -4.310  -7.037  0.00  0.00     0.274 C 
ENDROOT
BRANCH   1   2
HETATM    2  C           1     -22.450  -4.231  -7.413  0.00  0.00     0.248 C 
HETATM    3  O           1     -23.287  -4.707  -6.683  0.00  0.00    -0.271 OA
HETATM    4  N           1     -22.824  -3.620  -8.579  0.00  0.00    -0.349 N 
HETATM    5  H           1     -22.122  -3.222  -9.189  0.00  0.00     0.163 HD
BRANCH   4   6
HETATM    6  C           1     -24.227  -3.544  -8.940  0.00  0.00     0.235 C 
BRANCH   6   7
HETATM    7  C           1     -24.365  -3.616 -10.440  0.00  0.00     0.191 C 
HETATM    8  O           1     -25.379  -3.143 -10.998  0.00  0.00    -0.647 OA
HETATM    9  O           1     -23.466  -4.149 -11.126  0.00  0.00    -0.647 OA
ENDBRANCH   6   7
ENDBRANCH   4   6
ENDBRANCH   1   2
BRANCH   1  10
HETATM   10  N           1     -20.854  -4.983  -5.703  0.00  0.00    -0.067 N 
HETATM   11  H           1     -21.710  -4.799  -5.133  0.00  0.00     0.275 HD
HETATM   12  H           1     -20.742  -6.012  -5.842  0.00  0.00     0.275 HD
HETATM   13  H           1     -20.017  -4.606  -5.206  0.00  0.00     0.275 HD
ENDBRANCH   1  10
BRANCH   1  14
HETATM   14  C           1     -20.237  -5.114  -8.089  0.00  0.00     0.044 C 
BRANCH  14  15
HETATM   15  C           1     -19.686  -4.171  -9.150  0.00  0.00     0.030 C 
BRANCH  15  16
HETATM   16  C           1     -20.087  -4.670 -10.533  0.00  0.00     0.230 C 
BRANCH  16  17
HETATM   17  N           1     -20.454  -3.502 -11.399  0.00  0.00    -0.079 N 
HETATM   18  H           1     -21.262  -2.994 -10.975  0.00  0.00     0.274 HD
HETATM   19  H           1     -19.637  -2.855 -11.475  0.00  0.00     0.274 HD
HETATM   20  H           1     -20.717  -3.843 -12.351  0.00  0.00     0.274 HD
ENDBRANCH  16  17
ENDBRANCH  15  16
ENDBRANCH  14  15
ENDBRANCH   1  14
TORSDOF 8
ENDMDL
MODEL 8
REMARK VINA RESULT:      -5.3      9.808     11.773
REMARK  8 active torsions:
REMARK  status: ('A' for Active; 'I' for Inactive)
REMARK    1  A    between atoms: C_2  and  C_17 
REMARK    2  A    between atoms: C_2  and  C_10 
REMARK       I    between atoms: C_9  and  N_13 
REMARK    3  A    between atoms: C_9  and  C_16 
REMARK    4  A    between atoms: C_10  and  N_11 
REMARK    5  A    between atoms: C_12  and  C_18 
REMARK    6  A    between atoms: C_12  and  N_13 
REMARK    7  A    between atoms: N_14  and  C_16 
REMARK    8  A    between atoms: C_16  and  C_17 
ROOT
HETATM    1  C           1     -20.710  -5.233  -7.347  0.00  0.00     0.274 C 
ENDROOT
BRANCH   1   2
HETATM    2  C           1     -22.109  -4.705  -7.552  0.00  0.00     0.248 C 
HETATM    3  O           1     -22.885  -4.677  -6.627  0.00  0.00    -0.271 OA
HETATM    4  N           1     -22.498  -4.259  -8.786  0.00  0.00    -0.349 N 
HETATM    5  H           1     -21.847  -4.283  -9.561  0.00  0.00     0.163 HD
BRANCH   4   6
HETATM    6  C           1     -23.843  -3.752  -8.983  0.00  0.00     0.235 C 
BRANCH   6   7
HETATM    7  C           1     -24.148  -3.696 -10.459  0.00  0.00     0.191 C 
HETATM    8  O           1     -23.329  -4.156 -11.285  0.00  0.00    -0.647 OA
HETATM    9  O           1     -25.219  -3.190 -10.858  0.00  0.00    -0.647 OA
ENDBRANCH   6   7
ENDBRANCH   4   6
ENDBRANCH   1   2
BRANCH   1  10
HETATM   10  N           1     -19.717  -4.220  -7.837  0.00  0.00    -0.067 N 
HETATM   11  H           1     -19.944  -3.961  -8.824  0.00  0.00     0.275 HD
HETATM   12  H           1     -19.762  -3.368  -7.234  0.00  0.00     0.275 HD
HETATM   13  H           1     -18.756  -4.625  -7.796  0.00  0.00     0.275 HD
ENDBRANCH   1  10
BRANCH   1  14
HETATM   14  C           1     -20.477  -5.494  -5.865  0.00  0.00     0.044 C 
BRANCH  14  15
HETATM   15  C           1     -20.397  -6.995  -5.620  0.00  0.00     0.030 C 
BRANCH  15  16
HETATM   16  C           1     -21.410  -7.392  -4.553  0.00  0.00     0.230 C 
BRANCH  16  17
HETATM   17  N           1     -22.132  -6.169  -4.070  0.00  0.00    -0.079 N 
HETATM   18  H           1     -22.497  -5.633  -4.890  0.00  0.00     0.274 HD
HETATM   19  H           1     -22.930  -6.454  -3.458  0.00  0.00     0.274 HD
HETATM   20  H           1     -21.473  -5.568  -3.526  0.00  0.00     0.274 HD
ENDBRANCH  16  17
ENDBRANCH  15  16
ENDBRANCH  14  15
ENDBRANCH   1  14
TORSDOF 8
ENDMDL
MODEL 9
REMARK VINA RESULT:      -5.1     11.578     13.007
REMARK  8 active torsions:
REMARK  status: ('A' for Active; 'I' for Inactive)
REMARK    1  A    between atoms: C_2  and  C_17 
REMARK    2  A    between atoms: C_2  and  C_10 
REMARK       I    between atoms: C_9  and  N_13 
REMARK    3  A    between atoms: C_9  and  C_16 
REMARK    4  A    between atoms: C_10  and  N_11 
REMARK    5  A    between atoms: C_12  and  C_18 
REMARK    6  A    between atoms: C_12  and  N_13 
REMARK    7  A    between atoms: N_14  and  C_16 
REMARK    8  A    between atoms: C_16  and  C_17 
ROOT
HETATM    1  C           1     -20.464  -5.005  -6.569  0.00  0.00     0.274 C 
ENDROOT
BRANCH   1   2
HETATM    2  C           1     -21.362  -5.799  -5.651  0.00  0.00     0.248 C 
HETATM    3  O           1     -22.558  -5.628  -5.680  0.00  0.00    -0.271 OA
HETATM    4  N           1     -20.821  -6.713  -4.787  0.00  0.00    -0.349 N 
HETATM    5  H           1     -19.820  -6.855  -4.763  0.00  0.00     0.163 HD
BRANCH   4   6
HETATM    6  C           1     -21.684  -7.476  -3.905  0.00  0.00     0.235 C 
BRANCH   6   7
HETATM    7  C           1     -21.627  -6.891  -2.516  0.00  0.00     0.191 C 
HETATM    8  O           1     -22.340  -5.907  -2.222  0.00  0.00    -0.647 OA
HETATM    9  O           1     -20.866  -7.389  -1.658  0.00  0.00    -0.647 OA
ENDBRANCH   6   7
ENDBRANCH   4   6
ENDBRANCH   1   2
BRANCH   1  10
HETATM   10  N           1     -19.955  -5.897  -7.663  0.00  0.00    -0.067 N 
HETATM   11  H           1     -20.722  -6.075  -8.350  0.00  0.00     0.275 HD
HETATM   12  H           1     -19.154  -5.433  -8.145  0.00  0.00     0.275 HD
HETATM   13  H           1     -19.637  -6.804  -7.253  0.00  0.00     0.275 HD
ENDBRANCH   1  10
BRANCH   1  14
HETATM   14  C           1     -21.252  -3.854  -7.179  0.00  0.00     0.044 C 
BRANCH  14  15
HETATM   15  C           1     -21.453  -4.108  -8.667  0.00  0.00     0.030 C 
BRANCH  15  16
HETATM   16  C           1     -22.866  -3.701  -9.067  0.00  0.00     0.230 C 
BRANCH  16  17
HETATM   17  N           1     -23.825  -4.089  -7.981  0.00  0.00    -0.079 N 
HETATM   18  H           1     -24.120  -3.235  -7.456  0.00  0.00     0.274 HD
HETATM   19  H           1     -24.664  -4.545  -8.403  0.00  0.00     0.274 HD
HETATM   20  H           1     -23.357  -4.756  -7.326  0.00  0.00     0.274 HD
ENDBRANCH  16  17
ENDBRANCH  15  16
ENDBRANCH  14  15
ENDBRANCH   1  14
TORSDOF 8
ENDMDL
