MODEL 1
REMARK VINA RESULT:      -6.3      0.000      0.000
REMARK  8 active torsions:
REMARK  status: ('A' for Active; 'I' for Inactive)
REMARK    1  A    between atoms: C_2  and  C_4 
REMARK    2  A    between atoms: C_4  and  C_5 
REMARK    3  A    between atoms: C_4  and  N_12 
REMARK    4  A    between atoms: C_5  and  C_18 
REMARK    5  A    between atoms: N_7  and  C_10 
REMARK    6  A    between atoms: Se_8  and  C_9 
REMARK    7  A    between atoms: C_9  and  C_10 
REMARK    8  A    between atoms: C_10  and  C_11 
REMARK       I    between atoms: C_11  and  N_12 
ROOT
HETATM    1  O           1     -20.847  -5.877  -3.894  0.00  0.00    -0.271 OA
HETATM    2  C           1     -21.600  -6.401  -4.681  0.00  0.00     0.249 C 
HETATM    3  N           1     -22.202  -5.650  -5.654  0.00  0.00    -0.344 N 
HETATM    4  H           1     -23.098  -5.214  -5.475  0.00  0.00     0.163 HD
ENDROOT
BRANCH   3   5
HETATM    5  C           1     -21.558  -5.482  -6.942  0.00  0.00     0.189 C 
BRANCH   5   6
HETATM    6  C           1     -20.061  -5.561  -6.769  0.00  0.00     0.197 C 
HETATM    7  O           1     -19.459  -6.631  -7.006  0.00  0.00    -0.646 OA
HETATM    8  O           1     -19.421  -4.557  -6.387  0.00  0.00    -0.646 OA
ENDBRANCH   5   6
BRANCH   5   9
HETATM    9  C           1     -21.931  -4.125  -7.522  0.00  0.00     0.074 C 
BRANCH   9  10
HETATM   10  C           1     -21.888  -4.191  -9.017  0.00  0.00    -0.056 A 
HETATM   11  C           1     -23.039  -4.514  -9.736  0.00  0.00     0.007 A 
HETATM   12  C           1     -22.998  -4.575 -11.128  0.00  0.00     0.001 A 
HETATM   13  C           1     -21.806  -4.314 -11.804  0.00  0.00     0.000 A 
HETATM   14  C           1     -20.655  -3.990 -11.085  0.00  0.00     0.001 A 
HETATM   15  C           1     -20.695  -3.929  -9.692  0.00  0.00     0.007 A 
ENDBRANCH   9  10
ENDBRANCH   5   9
ENDBRANCH   3   5
BRANCH   2  16
HETATM   16  C           1     -21.877  -7.882  -4.588  0.00  0.00     0.274 C 
BRANCH  16  17
HETATM   17  N           1     -21.079  -8.603  -5.634  0.00  0.00    -0.067 N 
HETATM   18  H           1     -20.394  -9.243  -5.170  0.00  0.00     0.275 HD
HETATM   19  H           1     -21.722  -9.163  -6.238  0.00  0.00     0.275 HD
HETATM   20  H           1     -20.565  -7.908  -6.221  0.00  0.00     0.275 HD
ENDBRANCH  16  17
BRANCH  16  21
HETATM   21  C           1     -21.480  -8.388  -3.209  0.00  0.00     0.045 C 
BRANCH  21  22
HETATM   22 Se           1     -19.910  -9.533  -3.361  0.00  0.00     0.000 Se
HETATM   23  H           1     -19.000  -8.433  -3.719  0.00  0.00     0.000 HD
ENDBRANCH  21  22
ENDBRANCH  16  21
ENDBRANCH   2  16
TORSDOF 8
ENDMDL
MODEL 2
REMARK VINA RESULT:      -6.2      4.057      7.000
REMARK  8 active torsions:
REMARK  status: ('A' for Active; 'I' for Inactive)
REMARK    1  A    between atoms: C_2  and  C_4 
REMARK    2  A    between atoms: C_4  and  C_5 
REMARK    3  A    between atoms: C_4  and  N_12 
REMARK    4  A    between atoms: C_5  and  C_18 
REMARK    5  A    between atoms: N_7  and  C_10 
REMARK    6  A    between atoms: Se_8  and  C_9 
REMARK    7  A    between atoms: C_9  and  C_10 
REMARK    8  A    between atoms: C_10  and  C_11 
REMARK       I    between atoms: C_11  and  N_12 
ROOT
HETATM    1  O           1     -19.487  -9.943  -5.924  0.00  0.00    -0.271 OA
HETATM    2  C           1     -19.370  -9.498  -4.806  0.00  0.00     0.249 C 
HETATM    3  N           1     -19.695  -8.193  -4.551  0.00  0.00    -0.344 N 
HETATM    4  H           1     -18.993  -7.470  -4.640  0.00  0.00     0.163 HD
ENDROOT
BRANCH   3   5
HETATM    5  C           1     -21.046  -7.848  -4.153  0.00  0.00     0.189 C 
BRANCH   5   6
HETATM    6  C           1     -21.687  -7.005  -5.228  0.00  0.00     0.197 C 
HETATM    7  O           1     -21.236  -7.030  -6.395  0.00  0.00    -0.646 OA
HETATM    8  O           1     -22.668  -6.281  -4.953  0.00  0.00    -0.646 OA
ENDBRANCH   5   6
BRANCH   5   9
HETATM    9  C           1     -21.006  -7.064  -2.849  0.00  0.00     0.074 C 
BRANCH   9  10
HETATM   10  C           1     -21.746  -7.819  -1.789  0.00  0.00    -0.056 A 
HETATM   11  C           1     -21.872  -9.205  -1.878  0.00  0.00     0.007 A 
HETATM   12  C           1     -22.561  -9.907  -0.890  0.00  0.00     0.001 A 
HETATM   13  C           1     -23.124  -9.225   0.189  0.00  0.00     0.000 A 
HETATM   14  C           1     -22.996  -7.839   0.279  0.00  0.00     0.001 A 
HETATM   15  C           1     -22.307  -7.135  -0.710  0.00  0.00     0.007 A 
ENDBRANCH   9  10
ENDBRANCH   5   9
ENDBRANCH   3   5
BRANCH   2  16
HETATM   16  C           1     -18.862 -10.382  -3.693  0.00  0.00     0.274 C 
BRANCH  16  17
HETATM   17  N           1     -17.973 -11.445  -4.267  0.00  0.00    -0.067 N 
HETATM   18  H           1     -17.110 -11.530  -3.683  0.00  0.00     0.275 HD
HETATM   19  H           1     -18.480 -12.358  -4.272  0.00  0.00     0.275 HD
HETATM   20  H           1     -17.708 -11.187  -5.245  0.00  0.00     0.275 HD
ENDBRANCH  16  17
BRANCH  16  21
HETATM   21  C           1     -18.074  -9.544  -2.697  0.00  0.00     0.045 C 
BRANCH  21  22
HETATM   22 Se           1     -16.172  -9.666  -3.105  0.00  0.00     0.000 Se
HETATM   23  H           1     -15.746  -9.578  -1.699  0.00  0.00     0.000 HD
ENDBRANCH  21  22
ENDBRANCH  16  21
ENDBRANCH   2  16
TORSDOF 8
ENDMDL
MODEL 3
REMARK VINA RESULT:      -6.2      2.161      2.912
REMARK  8 active torsions:
REMARK  status: ('A' for Active; 'I' for Inactive)
REMARK    1  A    between atoms: C_2  and  C_4 
REMARK    2  A    between atoms: C_4  and  C_5 
REMARK    3  A    between atoms: C_4  and  N_12 
REMARK    4  A    between atoms: C_5  and  C_18 
REMARK    5  A    between atoms: N_7  and  C_10 
REMARK    6  A    between atoms: Se_8  and  C_9 
REMARK    7  A    between atoms: C_9  and  C_10 
REMARK    8  A    between atoms: C_10  and  C_11 
REMARK       I    between atoms: C_11  and  N_12 
ROOT
HETATM    1  O           1     -21.516  -5.344  -2.330  0.00  0.00    -0.271 OA
HETATM    2  C           1     -21.903  -6.410  -2.746  0.00  0.00     0.249 C 
HETATM    3  N           1     -22.526  -6.484  -3.963  0.00  0.00    -0.344 N 
HETATM    4  H           1     -23.531  -6.382  -4.023  0.00  0.00     0.163 HD
ENDROOT
BRANCH   3   5
HETATM    5  C           1     -21.746  -6.710  -5.164  0.00  0.00     0.189 C 
BRANCH   5   6
HETATM    6  C           1     -20.954  -7.985  -5.017  0.00  0.00     0.197 C 
HETATM    7  O           1     -21.538  -9.091  -5.035  0.00  0.00    -0.646 OA
HETATM    8  O           1     -19.713  -7.938  -4.875  0.00  0.00    -0.646 OA
ENDBRANCH   5   6
BRANCH   5   9
HETATM    9  C           1     -20.794  -5.541  -5.378  0.00  0.00     0.074 C 
BRANCH   9  10
HETATM   10  C           1     -20.935  -5.030  -6.778  0.00  0.00    -0.056 A 
HETATM   11  C           1     -22.161  -4.532  -7.219  0.00  0.00     0.007 A 
HETATM   12  C           1     -22.291  -4.056  -8.523  0.00  0.00     0.001 A 
HETATM   13  C           1     -21.196  -4.078  -9.387  0.00  0.00     0.000 A 
HETATM   14  C           1     -19.971  -4.575  -8.946  0.00  0.00     0.001 A 
HETATM   15  C           1     -19.839  -5.052  -7.641  0.00  0.00     0.007 A 
ENDBRANCH   9  10
ENDBRANCH   5   9
ENDBRANCH   3   5
BRANCH   2  16
HETATM   16  C           1     -21.699  -7.659  -1.924  0.00  0.00     0.274 C 
BRANCH  16  17
HETATM   17  N           1     -20.230  -7.895  -1.732  0.00  0.00    -0.067 N 
HETATM   18  H           1     -19.886  -7.319  -0.931  0.00  0.00     0.275 HD
HETATM   19  H           1     -20.064  -8.906  -1.529  0.00  0.00     0.275 HD
HETATM   20  H           1     -19.718  -7.624  -2.601  0.00  0.00     0.275 HD
ENDBRANCH  16  17
BRANCH  16  21
HETATM   21  C           1     -22.367  -7.490  -0.567  0.00  0.00     0.045 C 
BRANCH  21  22
HETATM   22 Se           1     -21.452  -8.594   0.752  0.00  0.00     0.000 Se
HETATM   23  H           1     -21.665  -9.852   0.018  0.00  0.00     0.000 HD
ENDBRANCH  21  22
ENDBRANCH  16  21
ENDBRANCH   2  16
TORSDOF 8
ENDMDL
MODEL 4
REMARK VINA RESULT:      -6.1      6.234      8.599
REMARK  8 active torsions:
REMARK  status: ('A' for Active; 'I' for Inactive)
REMARK    1  A    between atoms: C_2  and  C_4 
REMARK    2  A    between atoms: C_4  and  C_5 
REMARK    3  A    between atoms: C_4  and  N_12 
REMARK    4  A    between atoms: C_5  and  C_18 
REMARK    5  A    between atoms: N_7  and  C_10 
REMARK    6  A    between atoms: Se_8  and  C_9 
REMARK    7  A    between atoms: C_9  and  C_10 
REMARK    8  A    between atoms: C_10  and  C_11 
REMARK       I    between atoms: C_11  and  N_12 
ROOT
HETATM    1  O           1     -19.469  -8.793  -4.137  0.00  0.00    -0.271 OA
HETATM    2  C           1     -19.428  -9.113  -2.972  0.00  0.00     0.249 C 
HETATM    3  N           1     -19.867  -8.245  -2.009  0.00  0.00    -0.344 N 
HETATM    4  H           1     -19.222  -7.588  -1.589  0.00  0.00     0.163 HD
ENDROOT
BRANCH   3   5
HETATM    5  C           1     -21.255  -8.269  -1.589  0.00  0.00     0.189 C 
BRANCH   5   6
HETATM    6  C           1     -21.873  -6.912  -1.821  0.00  0.00     0.197 C 
HETATM    7  O           1     -22.681  -6.442  -0.990  0.00  0.00    -0.646 OA
HETATM    8  O           1     -21.579  -6.258  -2.844  0.00  0.00    -0.646 OA
ENDBRANCH   5   6
BRANCH   5   9
HETATM    9  C           1     -21.332  -8.616  -0.109  0.00  0.00     0.074 C 
BRANCH   9  10
HETATM   10  C           1     -22.048  -9.919   0.062  0.00  0.00    -0.056 A 
HETATM   11  C           1     -21.363 -11.035   0.544  0.00  0.00     0.007 A 
HETATM   12  C           1     -22.031 -12.248   0.703  0.00  0.00     0.001 A 
HETATM   13  C           1     -23.385 -12.348   0.383  0.00  0.00     0.000 A 
HETATM   14  C           1     -24.070 -11.232  -0.097  0.00  0.00     0.001 A 
HETATM   15  C           1     -23.403 -10.017  -0.258  0.00  0.00     0.007 A 
ENDBRANCH   9  10
ENDBRANCH   5   9
ENDBRANCH   3   5
BRANCH   2  16
HETATM   16  C           1     -18.893 -10.469  -2.581  0.00  0.00     0.274 C 
BRANCH  16  17
HETATM   17  N           1     -19.960 -11.503  -2.783  0.00  0.00    -0.067 N 
HETATM   18  H           1     -19.974 -12.154  -1.965  0.00  0.00     0.275 HD
HETATM   19  H           1     -20.889 -11.033  -2.868  0.00  0.00     0.275 HD
HETATM   20  H           1     -19.761 -12.043  -3.655  0.00  0.00     0.275 HD
ENDBRANCH  16  17
BRANCH  16  21
HETATM   21  C           1     -17.687 -10.808  -3.446  0.00  0.00     0.045 C 
BRANCH  21  22
HETATM   22 Se           1     -16.173  -9.701  -2.917  0.00  0.00     0.000 Se
HETATM   23  H           1     -15.160 -10.685  -3.332  0.00  0.00     0.000 HD
ENDBRANCH  21  22
ENDBRANCH  16  21
ENDBRANCH   2  16
TORSDOF 8
ENDMDL
MODEL 5
REMARK VINA RESULT:      -6.1      4.903      7.417
REMARK  8 active torsions:
REMARK  status: ('A' for Active; 'I' for Inactive)
REMARK    1  A    between atoms: C_2  and  C_4 
REMARK    2  A    between atoms: C_4  and  C_5 
REMARK    3  A    between atoms: C_4  and  N_12 
REMARK    4  A    between atoms: C_5  and  C_18 
REMARK    5  A    between atoms: N_7  and  C_10 
REMARK    6  A    between atoms: Se_8  and  C_9 
REMARK    7  A    between atoms: C_9  and  C_10 
REMARK    8  A    between atoms: C_10  and  C_11 
REMARK       I    between atoms: C_11  and  N_12 
ROOT
HETATM    1  O           1     -19.818  -7.955  -5.883  0.00  0.00    -0.271 OA
HETATM    2  C           1     -19.696  -8.525  -4.824  0.00  0.00     0.249 C 
HETATM    3  N           1     -19.966  -7.864  -3.657  0.00  0.00    -0.344 N 
HETATM    4  H           1     -19.231  -7.358  -3.180  0.00  0.00     0.163 HD
ENDROOT
BRANCH   3   5
HETATM    5  C           1     -21.306  -7.891  -3.102  0.00  0.00     0.189 C 
BRANCH   5   6
HETATM    6  C           1     -21.919  -6.516  -3.204  0.00  0.00     0.197 C 
HETATM    7  O           1     -21.997  -5.946  -4.314  0.00  0.00    -0.646 OA
HETATM    8  O           1     -22.349  -5.946  -2.178  0.00  0.00    -0.646 OA
ENDBRANCH   5   6
BRANCH   5   9
HETATM    9  C           1     -21.241  -8.312  -1.640  0.00  0.00     0.074 C 
BRANCH   9  10
HETATM   10  C           1     -22.190  -9.445  -1.404  0.00  0.00    -0.056 A 
HETATM   11  C           1     -22.300 -10.471  -2.342  0.00  0.00     0.007 A 
HETATM   12  C           1     -23.184 -11.527  -2.121  0.00  0.00     0.001 A 
HETATM   13  C           1     -23.959 -11.558  -0.961  0.00  0.00     0.000 A 
HETATM   14  C           1     -23.848 -10.532  -0.023  0.00  0.00     0.001 A 
HETATM   15  C           1     -22.964  -9.476  -0.243  0.00  0.00     0.007 A 
ENDBRANCH   9  10
ENDBRANCH   5   9
ENDBRANCH   3   5
BRANCH   2  16
HETATM   16  C           1     -19.245  -9.965  -4.791  0.00  0.00     0.274 C 
BRANCH  16  17
HETATM   17  N           1     -19.748 -10.672  -6.015  0.00  0.00    -0.067 N 
HETATM   18  H           1     -19.239 -11.578  -6.128  0.00  0.00     0.275 HD
HETATM   19  H           1     -20.771 -10.859  -5.914  0.00  0.00     0.275 HD
HETATM   20  H           1     -19.583 -10.074  -6.855  0.00  0.00     0.275 HD
ENDBRANCH  16  17
BRANCH  16  21
HETATM   21  C           1     -17.724 -10.021  -4.762  0.00  0.00     0.045 C 
BRANCH  21  22
HETATM   22 Se           1     -17.114 -10.168  -2.916  0.00  0.00     0.000 Se
HETATM   23  H           1     -16.429 -11.454  -3.123  0.00  0.00     0.000 HD
ENDBRANCH  21  22
ENDBRANCH  16  21
ENDBRANCH   2  16
TORSDOF 8
ENDMDL
MODEL 6
REMARK VINA RESULT:      -5.9     11.077     12.884
REMARK  8 active torsions:
REMARK  status: ('A' for Active; 'I' for Inactive)
REMARK    1  A    between atoms: C_2  and  C_4 
REMARK    2  A    between atoms: C_4  and  C_5 
REMARK    3  A    between atoms: C_4  and  N_12 
REMARK    4  A    between atoms: C_5  and  C_18 
REMARK    5  A    between atoms: N_7  and  C_10 
REMARK    6  A    between atoms: Se_8  and  C_9 
REMARK    7  A    between atoms: C_9  and  C_10 
REMARK    8  A    between atoms: C_10  and  C_11 
REMARK       I    between atoms: C_11  and  N_12 
ROOT
HETATM    1  O           1     -29.510  -5.509 -14.946  0.00  0.00    -0.271 OA
HETATM    2  C           1     -29.133  -5.225 -16.059  0.00  0.00     0.249 C 
HETATM    3  N           1     -27.793  -5.160 -16.331  0.00  0.00    -0.344 N 
HETATM    4  H           1     -27.295  -4.287 -16.214  0.00  0.00     0.163 HD
ENDROOT
BRANCH   3   5
HETATM    5  C           1     -27.088  -6.342 -16.788  0.00  0.00     0.189 C 
BRANCH   5   6
HETATM    6  C           1     -26.765  -7.223 -15.606  0.00  0.00     0.197 C 
HETATM    7  O           1     -25.580  -7.354 -15.228  0.00  0.00    -0.646 OA
HETATM    8  O           1     -27.682  -7.823 -15.005  0.00  0.00    -0.646 OA
ENDBRANCH   5   6
BRANCH   5   9
HETATM    9  C           1     -25.797  -5.927 -17.480  0.00  0.00     0.074 C 
BRANCH   9  10
HETATM   10  C           1     -25.680  -6.640 -18.791  0.00  0.00    -0.056 A 
HETATM   11  C           1     -24.456  -7.180 -19.185  0.00  0.00     0.007 A 
HETATM   12  C           1     -24.348  -7.845 -20.406  0.00  0.00     0.001 A 
HETATM   13  C           1     -25.464  -7.971 -21.234  0.00  0.00     0.000 A 
HETATM   14  C           1     -26.688  -7.432 -20.838  0.00  0.00     0.001 A 
HETATM   15  C           1     -26.797  -6.767 -19.617  0.00  0.00     0.007 A 
ENDBRANCH   9  10
ENDBRANCH   5   9
ENDBRANCH   3   5
BRANCH   2  16
HETATM   16  C           1     -30.140  -4.942 -17.147  0.00  0.00     0.274 C 
BRANCH  16  17
HETATM   17  N           1     -29.422  -4.727 -18.446  0.00  0.00    -0.067 N 
HETATM   18  H           1     -28.391  -4.710 -18.276  0.00  0.00     0.275 HD
HETATM   19  H           1     -29.653  -5.505 -19.104  0.00  0.00     0.275 HD
HETATM   20  H           1     -29.721  -3.817 -18.863  0.00  0.00     0.275 HD
ENDBRANCH  16  17
BRANCH  16  21
HETATM   21  C           1     -31.089  -6.124 -17.281  0.00  0.00     0.045 C 
BRANCH  21  22
HETATM   22 Se           1     -30.213  -7.554 -18.275  0.00  0.00     0.000 Se
HETATM   23  H           1     -29.122  -6.698 -18.770  0.00  0.00     0.000 HD
ENDBRANCH  21  22
ENDBRANCH  16  21
ENDBRANCH   2  16
TORSDOF 8
ENDMDL
MODEL 7
REMARK VINA RESULT:      -5.9      4.683      8.957
REMARK  8 active torsions:
REMARK  status: ('A' for Active; 'I' for Inactive)
REMARK    1  A    between atoms: C_2  and  C_4 
REMARK    2  A    between atoms: C_4  and  C_5 
REMARK    3  A    between atoms: C_4  and  N_12 
REMARK    4  A    between atoms: C_5  and  C_18 
REMARK    5  A    between atoms: N_7  and  C_10 
REMARK    6  A    between atoms: Se_8  and  C_9 
REMARK    7  A    between atoms: C_9  and  C_10 
REMARK    8  A    between atoms: C_10  and  C_11 
REMARK       I    between atoms: C_11  and  N_12 
ROOT
HETATM    1  O           1     -22.272  -5.797  -2.309  0.00  0.00    -0.271 OA
HETATM    2  C           1     -21.751  -6.832  -2.653  0.00  0.00     0.249 C 
HETATM    3  N           1     -21.125  -7.623  -1.729  0.00  0.00    -0.344 N 
HETATM    4  H           1     -20.142  -7.489  -1.530  0.00  0.00     0.163 HD
ENDROOT
BRANCH   3   5
HETATM    5  C           1     -21.870  -8.655  -1.034  0.00  0.00     0.189 C 
BRANCH   5   6
HETATM    6  C           1     -22.228  -8.170   0.350  0.00  0.00     0.197 C 
HETATM    7  O           1     -21.349  -8.102   1.236  0.00  0.00    -0.646 OA
HETATM    8  O           1     -23.404  -7.838   0.611  0.00  0.00    -0.646 OA
ENDBRANCH   5   6
BRANCH   5   9
HETATM    9  C           1     -21.019  -9.912  -0.927  0.00  0.00     0.074 C 
BRANCH   9  10
HETATM   10  C           1     -21.857 -11.043  -0.418  0.00  0.00    -0.056 A 
HETATM   11  C           1     -21.394 -11.839   0.629  0.00  0.00     0.007 A 
HETATM   12  C           1     -22.175 -12.892   1.102  0.00  0.00     0.001 A 
HETATM   13  C           1     -23.421 -13.150   0.530  0.00  0.00     0.000 A 
HETATM   14  C           1     -23.885 -12.352  -0.516  0.00  0.00     0.001 A 
HETATM   15  C           1     -23.103 -11.299  -0.991  0.00  0.00     0.007 A 
ENDBRANCH   9  10
ENDBRANCH   5   9
ENDBRANCH   3   5
BRANCH   2  16
HETATM   16  C           1     -21.791  -7.249  -4.103  0.00  0.00     0.274 C 
BRANCH  16  17
HETATM   17  N           1     -22.595  -6.254  -4.886  0.00  0.00    -0.067 N 
HETATM   18  H           1     -22.369  -6.347  -5.903  0.00  0.00     0.275 HD
HETATM   19  H           1     -23.613  -6.436  -4.739  0.00  0.00     0.275 HD
HETATM   20  H           1     -22.362  -5.288  -4.564  0.00  0.00     0.275 HD
ENDBRANCH  16  17
BRANCH  16  21
HETATM   21  C           1     -20.373  -7.304  -4.655  0.00  0.00     0.045 C 
BRANCH  21  22
HETATM   22 Se           1     -19.802  -9.162  -4.800  0.00  0.00     0.000 Se
HETATM   23  H           1     -19.823  -9.175  -6.272  0.00  0.00     0.000 HD
ENDBRANCH  21  22
ENDBRANCH  16  21
ENDBRANCH   2  16
TORSDOF 8
ENDMDL
MODEL 8
REMARK VINA RESULT:      -5.8      2.697      3.968
REMARK  8 active torsions:
REMARK  status: ('A' for Active; 'I' for Inactive)
REMARK    1  A    between atoms: C_2  and  C_4 
REMARK    2  A    between atoms: C_4  and  C_5 
REMARK    3  A    between atoms: C_4  and  N_12 
REMARK    4  A    between atoms: C_5  and  C_18 
REMARK    5  A    between atoms: N_7  and  C_10 
REMARK    6  A    between atoms: Se_8  and  C_9 
REMARK    7  A    between atoms: C_9  and  C_10 
REMARK    8  A    between atoms: C_10  and  C_11 
REMARK       I    between atoms: C_11  and  N_12 
ROOT
HETATM    1  O           1     -20.939  -9.608  -5.647  0.00  0.00    -0.271 OA
HETATM    2  C           1     -21.076  -9.316  -4.482  0.00  0.00     0.249 C 
HETATM    3  N           1     -20.369  -8.270  -3.952  0.00  0.00    -0.344 N 
HETATM    4  H           1     -19.458  -8.431  -3.542  0.00  0.00     0.163 HD
ENDROOT
BRANCH   3   5
HETATM    5  C           1     -20.928  -6.932  -3.976  0.00  0.00     0.189 C 
BRANCH   5   6
HETATM    6  C           1     -21.627  -6.655  -2.668  0.00  0.00     0.197 C 
HETATM    7  O           1     -22.650  -5.936  -2.645  0.00  0.00    -0.646 OA
HETATM    8  O           1     -21.185  -7.145  -1.607  0.00  0.00    -0.646 OA
ENDBRANCH   5   6
BRANCH   5   9
HETATM    9  C           1     -21.926  -6.819  -5.120  0.00  0.00     0.074 C 
BRANCH   9  10
HETATM   10  C           1     -21.436  -5.812  -6.114  0.00  0.00    -0.056 A 
HETATM   11  C           1     -20.074  -5.717  -6.398  0.00  0.00     0.007 A 
HETATM   12  C           1     -19.619  -4.779  -7.324  0.00  0.00     0.001 A 
HETATM   13  C           1     -20.525  -3.936  -7.967  0.00  0.00     0.000 A 
HETATM   14  C           1     -21.888  -4.032  -7.684  0.00  0.00     0.001 A 
HETATM   15  C           1     -22.344  -4.970  -6.758  0.00  0.00     0.007 A 
ENDBRANCH   9  10
ENDBRANCH   5   9
ENDBRANCH   3   5
BRANCH   2  16
HETATM   16  C           1     -22.024 -10.104  -3.613  0.00  0.00     0.274 C 
BRANCH  16  17
HETATM   17  N           1     -22.414 -11.369  -4.321  0.00  0.00    -0.067 N 
HETATM   18  H           1     -21.904 -11.429  -5.232  0.00  0.00     0.275 HD
HETATM   19  H           1     -22.163 -12.191  -3.728  0.00  0.00     0.275 HD
HETATM   20  H           1     -23.444 -11.366  -4.497  0.00  0.00     0.275 HD
ENDBRANCH  16  17
BRANCH  16  21
HETATM   21  C           1     -21.342 -10.450  -2.297  0.00  0.00     0.045 C 
BRANCH  21  22
HETATM   22 Se           1     -22.651 -10.408  -0.854  0.00  0.00     0.000 Se
HETATM   23  H           1     -23.165 -11.760  -1.125  0.00  0.00     0.000 HD
ENDBRANCH  21  22
ENDBRANCH  16  21
ENDBRANCH   2  16
TORSDOF 8
ENDMDL
MODEL 9
REMARK VINA RESULT:      -5.8      4.049      7.057
REMARK  8 active torsions:
REMARK  status: ('A' for Active; 'I' for Inactive)
REMARK    1  A    between atoms: C_2  and  C_4 
REMARK    2  A    between atoms: C_4  and  C_5 
REMARK    3  A    between atoms: C_4  and  N_12 
REMARK    4  A    between atoms: C_5  and  C_18 
REMARK    5  A    between atoms: N_7  and  C_10 
REMARK    6  A    between atoms: Se_8  and  C_9 
REMARK    7  A    between atoms: C_9  and  C_10 
REMARK    8  A    between atoms: C_10  and  C_11 
REMARK       I    between atoms: C_11  and  N_12 
ROOT
HETATM    1  O           1     -21.295 -10.758  -6.519  0.00  0.00    -0.271 OA
HETATM    2  C           1     -20.702 -10.475  -5.505  0.00  0.00     0.249 C 
HETATM    3  N           1     -20.389  -9.169  -5.237  0.00  0.00    -0.344 N 
HETATM    4  H           1     -19.511  -8.783  -5.557  0.00  0.00     0.163 HD
ENDROOT
BRANCH   3   5
HETATM    5  C           1     -21.317  -8.341  -4.492  0.00  0.00     0.189 C 
BRANCH   5   6
HETATM    6  C           1     -21.710  -7.149  -5.329  0.00  0.00     0.197 C 
HETATM    7  O           1     -22.534  -6.318  -4.888  0.00  0.00    -0.646 OA
HETATM    8  O           1     -21.213  -6.992  -6.465  0.00  0.00    -0.646 OA
ENDBRANCH   5   6
BRANCH   5   9
HETATM    9  C           1     -20.653  -7.863  -3.208  0.00  0.00     0.074 C 
BRANCH   9  10
HETATM   10  C           1     -21.510  -8.226  -2.036  0.00  0.00    -0.056 A 
HETATM   11  C           1     -21.980  -7.231  -1.179  0.00  0.00     0.007 A 
HETATM   12  C           1     -22.778  -7.571  -0.087  0.00  0.00     0.001 A 
HETATM   13  C           1     -23.107  -8.906   0.149  0.00  0.00     0.000 A 
HETATM   14  C           1     -22.638  -9.901  -0.709  0.00  0.00     0.001 A 
HETATM   15  C           1     -21.839  -9.562  -1.801  0.00  0.00     0.007 A 
ENDBRANCH   9  10
ENDBRANCH   5   9
ENDBRANCH   3   5
BRANCH   2  16
HETATM   16  C           1     -20.305 -11.562  -4.536  0.00  0.00     0.274 C 
BRANCH  16  17
HETATM   17  N           1     -20.514 -12.902  -5.177  0.00  0.00    -0.067 N 
HETATM   18  H           1     -19.589 -13.360  -5.338  0.00  0.00     0.275 HD
HETATM   19  H           1     -21.094 -13.502  -4.548  0.00  0.00     0.275 HD
HETATM   20  H           1     -21.005 -12.777  -6.091  0.00  0.00     0.275 HD
ENDBRANCH  16  17
BRANCH  16  21
HETATM   21  C           1     -18.838 -11.401  -4.164  0.00  0.00     0.045 C 
BRANCH  21  22
HETATM   22 Se           1     -17.726 -11.787  -5.718  0.00  0.00     0.000 Se
HETATM   23  H           1     -18.100 -10.557  -6.435  0.00  0.00     0.000 HD
ENDBRANCH  21  22
ENDBRANCH  16  21
ENDBRANCH   2  16
TORSDOF 8
ENDMDL
