MODEL 1
REMARK VINA RESULT:      -6.4      0.000      0.000
REMARK  8 active torsions:
REMARK  status: ('A' for Active; 'I' for Inactive)
REMARK    1  A    between atoms: N_2  and  C_18 
REMARK       I    between atoms: N_2  and  C_3 
REMARK    2  A    between atoms: C_3  and  C_4 
REMARK    3  A    between atoms: C_4  and  C_5 
REMARK    4  A    between atoms: C_4  and  N_14 
REMARK    5  A    between atoms: C_5  and  C_9 
REMARK    6  A    between atoms: C_17  and  C_18 
REMARK    7  A    between atoms: C_18  and  C_20 
REMARK    8  A    between atoms: O_19  and  C_20 
ROOT
HETATM    1  N           1     -22.122  -4.784  -9.057  0.00  0.00    -0.343 N 
HETATM    2  C           1     -21.688  -4.527  -7.785  0.00  0.00     0.249 C 
HETATM    3  H           1     -22.125  -5.734  -9.408  0.00  0.00     0.163 HD
HETATM    4  O           1     -21.684  -3.394  -7.365  0.00  0.00    -0.271 OA
ENDROOT
BRANCH   2   5
HETATM    5  C           1     -21.217  -5.659  -6.905  0.00  0.00     0.284 C 
BRANCH   5   6
HETATM    6  C           1     -20.927  -5.129  -5.506  0.00  0.00     0.155 C 
BRANCH   6   7
HETATM    7  C           1     -21.173  -6.220  -4.493  0.00  0.00     0.175 C 
HETATM    8  O           1     -20.579  -7.315  -4.597  0.00  0.00    -0.648 OA
HETATM    9  O           1     -21.971  -6.028  -3.550  0.00  0.00    -0.648 OA
ENDBRANCH   6   7
ENDBRANCH   5   6
BRANCH   5  10
HETATM   10  N           1     -19.967  -6.252  -7.482  0.00  0.00    -0.066 N 
HETATM   11  H           1     -20.185  -6.700  -8.400  0.00  0.00     0.275 HD
HETATM   12  H           1     -19.256  -5.499  -7.622  0.00  0.00     0.275 HD
HETATM   13  H           1     -19.588  -6.973  -6.825  0.00  0.00     0.275 HD
ENDBRANCH   5  10
ENDBRANCH   2   5
BRANCH   1  14
HETATM   14  C           1     -22.574  -3.697  -9.903  0.00  0.00     0.214 C 
BRANCH  14  15
HETATM   15  C           1     -24.037  -3.884 -10.222  0.00  0.00     0.199 C 
HETATM   16  O           1     -24.602  -4.966  -9.954  0.00  0.00    -0.646 OA
HETATM   17  O           1     -24.685  -2.956 -10.754  0.00  0.00    -0.646 OA
ENDBRANCH  14  15
BRANCH  14  18
HETATM   18  C           1     -21.769  -3.691 -11.195  0.00  0.00     0.147 C 
HETATM   19  C           1     -20.407  -4.326 -10.947  0.00  0.00     0.042 C 
BRANCH  18  20
HETATM   20  O           1     -22.454  -4.422 -12.176  0.00  0.00    -0.393 OA
HETATM   21  H           1     -21.855  -5.072 -12.502  0.00  0.00     0.210 HD
ENDBRANCH  18  20
ENDBRANCH  14  18
ENDBRANCH   1  14
TORSDOF 8
ENDMDL
MODEL 2
REMARK VINA RESULT:      -6.1     12.654     14.504
REMARK  8 active torsions:
REMARK  status: ('A' for Active; 'I' for Inactive)
REMARK    1  A    between atoms: N_2  and  C_18 
REMARK       I    between atoms: N_2  and  C_3 
REMARK    2  A    between atoms: C_3  and  C_4 
REMARK    3  A    between atoms: C_4  and  C_5 
REMARK    4  A    between atoms: C_4  and  N_14 
REMARK    5  A    between atoms: C_5  and  C_9 
REMARK    6  A    between atoms: C_17  and  C_18 
REMARK    7  A    between atoms: C_18  and  C_20 
REMARK    8  A    between atoms: O_19  and  C_20 
ROOT
HETATM    1  N           1     -35.416  -1.852 -11.582  0.00  0.00    -0.343 N 
HETATM    2  C           1     -34.262  -2.281 -10.983  0.00  0.00     0.249 C 
HETATM    3  H           1     -36.051  -2.523 -11.995  0.00  0.00     0.163 HD
HETATM    4  O           1     -33.504  -1.481 -10.489  0.00  0.00    -0.271 OA
ENDROOT
BRANCH   2   5
HETATM    5  C           1     -33.938  -3.754 -10.939  0.00  0.00     0.284 C 
BRANCH   5   6
HETATM    6  C           1     -33.252  -4.164 -12.236  0.00  0.00     0.155 C 
BRANCH   6   7
HETATM    7  C           1     -34.270  -4.221 -13.348  0.00  0.00     0.175 C 
HETATM    8  O           1     -34.390  -3.258 -14.136  0.00  0.00    -0.648 OA
HETATM    9  O           1     -34.993  -5.232 -13.482  0.00  0.00    -0.648 OA
ENDBRANCH   6   7
ENDBRANCH   5   6
BRANCH   5  10
HETATM   10  N           1     -35.205  -4.539 -10.776  0.00  0.00    -0.066 N 
HETATM   11  H           1     -35.180  -5.058  -9.869  0.00  0.00     0.275 HD
HETATM   12  H           1     -36.022  -3.887 -10.781  0.00  0.00     0.275 HD
HETATM   13  H           1     -35.297  -5.220 -11.564  0.00  0.00     0.275 HD
ENDBRANCH   5  10
ENDBRANCH   2   5
BRANCH   1  14
HETATM   14  C           1     -35.727  -0.436 -11.624  0.00  0.00     0.214 C 
BRANCH  14  15
HETATM   15  C           1     -36.906  -0.154 -10.726  0.00  0.00     0.199 C 
HETATM   16  O           1     -36.801   0.680  -9.801  0.00  0.00    -0.646 OA
HETATM   17  O           1     -37.988  -0.754 -10.906  0.00  0.00    -0.646 OA
ENDBRANCH  14  15
BRANCH  14  18
HETATM   18  C           1     -36.070  -0.036 -13.053  0.00  0.00     0.147 C 
HETATM   19  C           1     -34.822   0.500 -13.743  0.00  0.00     0.042 C 
BRANCH  18  20
HETATM   20  O           1     -36.545  -1.155 -13.751  0.00  0.00    -0.393 OA
HETATM   21  H           1     -36.338  -1.020 -14.660  0.00  0.00     0.210 HD
ENDBRANCH  18  20
ENDBRANCH  14  18
ENDBRANCH   1  14
TORSDOF 8
ENDMDL
MODEL 3
REMARK VINA RESULT:      -6.1     13.054     14.813
REMARK  8 active torsions:
REMARK  status: ('A' for Active; 'I' for Inactive)
REMARK    1  A    between atoms: N_2  and  C_18 
REMARK       I    between atoms: N_2  and  C_3 
REMARK    2  A    between atoms: C_3  and  C_4 
REMARK    3  A    between atoms: C_4  and  C_5 
REMARK    4  A    between atoms: C_4  and  N_14 
REMARK    5  A    between atoms: C_5  and  C_9 
REMARK    6  A    between atoms: C_17  and  C_18 
REMARK    7  A    between atoms: C_18  and  C_20 
REMARK    8  A    between atoms: O_19  and  C_20 
ROOT
HETATM    1  N           1     -35.050  -1.284 -13.975  0.00  0.00    -0.343 N 
HETATM    2  C           1     -35.369  -1.747 -12.727  0.00  0.00     0.249 C 
HETATM    3  H           1     -34.120  -1.432 -14.346  0.00  0.00     0.163 HD
HETATM    4  O           1     -36.479  -1.573 -12.284  0.00  0.00    -0.271 OA
ENDROOT
BRANCH   2   5
HETATM    5  C           1     -34.335  -2.477 -11.905  0.00  0.00     0.284 C 
BRANCH   5   6
HETATM    6  C           1     -34.989  -3.654 -11.193  0.00  0.00     0.155 C 
BRANCH   6   7
HETATM    7  C           1     -34.594  -4.940 -11.876  0.00  0.00     0.175 C 
HETATM    8  O           1     -35.134  -5.266 -12.955  0.00  0.00    -0.648 OA
HETATM    9  O           1     -33.727  -5.680 -11.362  0.00  0.00    -0.648 OA
ENDBRANCH   6   7
ENDBRANCH   5   6
BRANCH   5  10
HETATM   10  N           1     -33.752  -1.541 -10.890  0.00  0.00    -0.066 N 
HETATM   11  H           1     -34.524  -1.073 -10.364  0.00  0.00     0.275 HD
HETATM   12  H           1     -33.153  -2.079 -10.224  0.00  0.00     0.275 HD
HETATM   13  H           1     -33.173  -0.817 -11.375  0.00  0.00     0.275 HD
ENDBRANCH   5  10
ENDBRANCH   2   5
BRANCH   1  14
HETATM   14  C           1     -36.044  -0.583 -14.764  0.00  0.00     0.214 C 
BRANCH  14  15
HETATM   15  C           1     -35.876  -0.945 -16.219  0.00  0.00     0.199 C 
HETATM   16  O           1     -36.832  -0.806 -17.012  0.00  0.00    -0.646 OA
HETATM   17  O           1     -34.780  -1.383 -16.632  0.00  0.00    -0.646 OA
ENDBRANCH  14  15
BRANCH  14  18
HETATM   18  C           1     -35.862   0.919 -14.589  0.00  0.00     0.147 C 
HETATM   19  C           1     -34.483   1.198 -14.006  0.00  0.00     0.042 C 
BRANCH  18  20
HETATM   20  O           1     -35.981   1.552 -15.833  0.00  0.00    -0.393 OA
HETATM   21  H           1     -36.877   1.830 -15.916  0.00  0.00     0.210 HD
ENDBRANCH  18  20
ENDBRANCH  14  18
ENDBRANCH   1  14
TORSDOF 8
ENDMDL
MODEL 4
REMARK VINA RESULT:      -6.0     12.658     15.469
REMARK  8 active torsions:
REMARK  status: ('A' for Active; 'I' for Inactive)
REMARK    1  A    between atoms: N_2  and  C_18 
REMARK       I    between atoms: N_2  and  C_3 
REMARK    2  A    between atoms: C_3  and  C_4 
REMARK    3  A    between atoms: C_4  and  C_5 
REMARK    4  A    between atoms: C_4  and  N_14 
REMARK    5  A    between atoms: C_5  and  C_9 
REMARK    6  A    between atoms: C_17  and  C_18 
REMARK    7  A    between atoms: C_18  and  C_20 
REMARK    8  A    between atoms: O_19  and  C_20 
ROOT
HETATM    1  N           1     -34.742  -1.530 -13.109  0.00  0.00    -0.343 N 
HETATM    2  C           1     -35.885  -0.789 -13.244  0.00  0.00     0.249 C 
HETATM    3  H           1     -33.918  -1.290 -13.645  0.00  0.00     0.163 HD
HETATM    4  O           1     -36.869  -1.076 -12.604  0.00  0.00    -0.271 OA
ENDROOT
BRANCH   2   5
HETATM    5  C           1     -35.916   0.386 -14.190  0.00  0.00     0.284 C 
BRANCH   5   6
HETATM    6  C           1     -36.857   0.082 -15.349  0.00  0.00     0.155 C 
BRANCH   6   7
HETATM    7  C           1     -36.184  -0.869 -16.308  0.00  0.00     0.175 C 
HETATM    8  O           1     -35.410  -1.750 -15.874  0.00  0.00    -0.648 OA
HETATM    9  O           1     -36.400  -0.776 -17.536  0.00  0.00    -0.648 OA
ENDBRANCH   6   7
ENDBRANCH   5   6
BRANCH   5  10
HETATM   10  N           1     -34.536   0.636 -14.720  0.00  0.00    -0.066 N 
HETATM   11  H           1     -34.507   0.406 -15.739  0.00  0.00     0.275 HD
HETATM   12  H           1     -34.288   1.642 -14.583  0.00  0.00     0.275 HD
HETATM   13  H           1     -33.851   0.035 -14.207  0.00  0.00     0.275 HD
ENDBRANCH   5  10
ENDBRANCH   2   5
BRANCH   1  14
HETATM   14  C           1     -34.713  -2.659 -12.200  0.00  0.00     0.214 C 
BRANCH  14  15
HETATM   15  C           1     -33.862  -2.318 -11.002  0.00  0.00     0.199 C 
HETATM   16  O           1     -34.334  -1.621 -10.078  0.00  0.00    -0.646 OA
HETATM   17  O           1     -32.684  -2.733 -10.933  0.00  0.00    -0.646 OA
ENDBRANCH  14  15
BRANCH  14  18
HETATM   18  C           1     -34.124  -3.869 -12.914  0.00  0.00     0.147 C 
HETATM   19  C           1     -34.812  -5.134 -12.421  0.00  0.00     0.042 C 
BRANCH  18  20
HETATM   20  O           1     -34.321  -3.737 -14.296  0.00  0.00    -0.393 OA
HETATM   21  H           1     -34.576  -2.844 -14.453  0.00  0.00     0.210 HD
ENDBRANCH  18  20
ENDBRANCH  14  18
ENDBRANCH   1  14
TORSDOF 8
ENDMDL
MODEL 5
REMARK VINA RESULT:      -5.7     13.551     15.268
REMARK  8 active torsions:
REMARK  status: ('A' for Active; 'I' for Inactive)
REMARK    1  A    between atoms: N_2  and  C_18 
REMARK       I    between atoms: N_2  and  C_3 
REMARK    2  A    between atoms: C_3  and  C_4 
REMARK    3  A    between atoms: C_4  and  C_5 
REMARK    4  A    between atoms: C_4  and  N_14 
REMARK    5  A    between atoms: C_5  and  C_9 
REMARK    6  A    between atoms: C_17  and  C_18 
REMARK    7  A    between atoms: C_18  and  C_20 
REMARK    8  A    between atoms: O_19  and  C_20 
ROOT
HETATM    1  N           1     -35.692  -0.993 -10.754  0.00  0.00    -0.343 N 
HETATM    2  C           1     -36.816  -0.717 -10.023  0.00  0.00     0.249 C 
HETATM    3  H           1     -34.787  -0.675 -10.431  0.00  0.00     0.163 HD
HETATM    4  O           1     -37.896  -1.097 -10.408  0.00  0.00    -0.271 OA
ENDROOT
BRANCH   2   5
HETATM    5  C           1     -36.706   0.061  -8.734  0.00  0.00     0.284 C 
BRANCH   5   6
HETATM    6  C           1     -37.917  -0.233  -7.858  0.00  0.00     0.155 C 
BRANCH   6   7
HETATM    7  C           1     -37.651   0.251  -6.453  0.00  0.00     0.175 C 
HETATM    8  O           1     -38.073  -0.404  -5.476  0.00  0.00    -0.648 OA
HETATM    9  O           1     -37.009   1.308  -6.267  0.00  0.00    -0.648 OA
ENDBRANCH   6   7
ENDBRANCH   5   6
BRANCH   5  10
HETATM   10  N           1     -36.654   1.527  -9.039  0.00  0.00    -0.066 N 
HETATM   11  H           1     -37.529   1.986  -8.698  0.00  0.00     0.275 HD
HETATM   12  H           1     -35.829   1.954  -8.561  0.00  0.00     0.275 HD
HETATM   13  H           1     -36.569   1.666 -10.072  0.00  0.00     0.275 HD
ENDBRANCH   5  10
ENDBRANCH   2   5
BRANCH   1  14
HETATM   14  C           1     -35.798  -1.740 -11.992  0.00  0.00     0.214 C 
BRANCH  14  15
HETATM   15  C           1     -34.687  -2.759 -12.061  0.00  0.00     0.199 C 
HETATM   16  O           1     -34.884  -3.862 -12.613  0.00  0.00    -0.646 OA
HETATM   17  O           1     -33.569  -2.499 -11.566  0.00  0.00    -0.646 OA
ENDBRANCH  14  15
BRANCH  14  18
HETATM   18  C           1     -35.685  -0.784 -13.172  0.00  0.00     0.147 C 
HETATM   19  C           1     -34.846   0.421 -12.769  0.00  0.00     0.042 C 
BRANCH  18  20
HETATM   20  O           1     -35.075  -1.441 -14.249  0.00  0.00    -0.393 OA
HETATM   21  H           1     -35.268  -0.939 -15.022  0.00  0.00     0.210 HD
ENDBRANCH  18  20
ENDBRANCH  14  18
ENDBRANCH   1  14
TORSDOF 8
ENDMDL
MODEL 6
REMARK VINA RESULT:      -5.5      1.719      5.969
REMARK  8 active torsions:
REMARK  status: ('A' for Active; 'I' for Inactive)
REMARK    1  A    between atoms: N_2  and  C_18 
REMARK       I    between atoms: N_2  and  C_3 
REMARK    2  A    between atoms: C_3  and  C_4 
REMARK    3  A    between atoms: C_4  and  C_5 
REMARK    4  A    between atoms: C_4  and  N_14 
REMARK    5  A    between atoms: C_5  and  C_9 
REMARK    6  A    between atoms: C_17  and  C_18 
REMARK    7  A    between atoms: C_18  and  C_20 
REMARK    8  A    between atoms: O_19  and  C_20 
ROOT
HETATM    1  N           1     -22.018  -5.414  -7.044  0.00  0.00    -0.343 N 
HETATM    2  C           1     -21.767  -4.169  -7.557  0.00  0.00     0.249 C 
HETATM    3  H           1     -22.679  -6.027  -7.506  0.00  0.00     0.163 HD
HETATM    4  O           1     -20.978  -3.438  -7.007  0.00  0.00    -0.271 OA
ENDROOT
BRANCH   2   5
HETATM    5  C           1     -22.474  -3.712  -8.809  0.00  0.00     0.284 C 
BRANCH   5   6
HETATM    6  C           1     -23.948  -4.087  -8.727  0.00  0.00     0.155 C 
BRANCH   6   7
HETATM    7  C           1     -24.712  -3.370  -9.813  0.00  0.00     0.175 C 
HETATM    8  O           1     -25.952  -3.242  -9.725  0.00  0.00    -0.648 OA
HETATM    9  O           1     -24.103  -2.903 -10.801  0.00  0.00    -0.648 OA
ENDBRANCH   6   7
ENDBRANCH   5   6
BRANCH   5  10
HETATM   10  N           1     -21.856  -4.376 -10.002  0.00  0.00    -0.066 N 
HETATM   11  H           1     -22.144  -3.872 -10.871  0.00  0.00     0.275 HD
HETATM   12  H           1     -20.814  -4.350  -9.914  0.00  0.00     0.275 HD
HETATM   13  H           1     -22.177  -5.370 -10.053  0.00  0.00     0.275 HD
ENDBRANCH   5  10
ENDBRANCH   2   5
BRANCH   1  14
HETATM   14  C           1     -21.339  -5.853  -5.841  0.00  0.00     0.214 C 
BRANCH  14  15
HETATM   15  C           1     -20.251  -6.832  -6.208  0.00  0.00     0.199 C 
HETATM   16  O           1     -19.355  -6.498  -7.013  0.00  0.00    -0.646 OA
HETATM   17  O           1     -20.244  -7.977  -5.705  0.00  0.00    -0.646 OA
ENDBRANCH  14  15
BRANCH  14  18
HETATM   18  C           1     -22.340  -6.530  -4.913  0.00  0.00     0.147 C 
HETATM   19  C           1     -21.929  -6.293  -3.466  0.00  0.00     0.042 C 
BRANCH  18  20
HETATM   20  O           1     -23.616  -5.993  -5.131  0.00  0.00    -0.393 OA
HETATM   21  H           1     -23.534  -5.057  -5.069  0.00  0.00     0.210 HD
ENDBRANCH  18  20
ENDBRANCH  14  18
ENDBRANCH   1  14
TORSDOF 8
ENDMDL
MODEL 7
REMARK VINA RESULT:      -5.1      1.616      5.941
REMARK  8 active torsions:
REMARK  status: ('A' for Active; 'I' for Inactive)
REMARK    1  A    between atoms: N_2  and  C_18 
REMARK       I    between atoms: N_2  and  C_3 
REMARK    2  A    between atoms: C_3  and  C_4 
REMARK    3  A    between atoms: C_4  and  C_5 
REMARK    4  A    between atoms: C_4  and  N_14 
REMARK    5  A    between atoms: C_5  and  C_9 
REMARK    6  A    between atoms: C_17  and  C_18 
REMARK    7  A    between atoms: C_18  and  C_20 
REMARK    8  A    between atoms: O_19  and  C_20 
ROOT
HETATM    1  N           1     -22.161  -5.395  -7.207  0.00  0.00    -0.343 N 
HETATM    2  C           1     -22.301  -4.221  -7.896  0.00  0.00     0.249 C 
HETATM    3  H           1     -22.669  -6.219  -7.504  0.00  0.00     0.163 HD
HETATM    4  O           1     -21.694  -3.238  -7.542  0.00  0.00    -0.271 OA
ENDROOT
BRANCH   2   5
HETATM    5  C           1     -23.210  -4.154  -9.098  0.00  0.00     0.284 C 
BRANCH   5   6
HETATM    6  C           1     -22.551  -3.318 -10.189  0.00  0.00     0.155 C 
BRANCH   6   7
HETATM    7  C           1     -22.075  -4.223 -11.299  0.00  0.00     0.175 C 
HETATM    8  O           1     -22.863  -4.567 -12.206  0.00  0.00    -0.648 OA
HETATM    9  O           1     -20.893  -4.630 -11.310  0.00  0.00    -0.648 OA
ENDBRANCH   6   7
ENDBRANCH   5   6
BRANCH   5  10
HETATM   10  N           1     -24.512  -3.524  -8.705  0.00  0.00    -0.066 N 
HETATM   11  H           1     -25.300  -4.160  -8.964  0.00  0.00     0.275 HD
HETATM   12  H           1     -24.522  -3.361  -7.673  0.00  0.00     0.275 HD
HETATM   13  H           1     -24.623  -2.612  -9.204  0.00  0.00     0.275 HD
ENDBRANCH   5  10
ENDBRANCH   2   5
BRANCH   1  14
HETATM   14  C           1     -21.287  -5.459  -6.052  0.00  0.00     0.214 C 
BRANCH  14  15
HETATM   15  C           1     -19.942  -6.001  -6.469  0.00  0.00     0.199 C 
HETATM   16  O           1     -19.701  -7.223  -6.368  0.00  0.00    -0.646 OA
HETATM   17  O           1     -19.068  -5.226  -6.916  0.00  0.00    -0.646 OA
ENDBRANCH  14  15
BRANCH  14  18
HETATM   18  C           1     -21.902  -6.376  -5.002  0.00  0.00     0.147 C 
HETATM   19  C           1     -21.320  -6.043  -3.635  0.00  0.00     0.042 C 
BRANCH  18  20
HETATM   20  O           1     -23.291  -6.193  -4.978  0.00  0.00    -0.393 OA
HETATM   21  H           1     -23.504  -5.820  -4.140  0.00  0.00     0.210 HD
ENDBRANCH  18  20
ENDBRANCH  14  18
ENDBRANCH   1  14
TORSDOF 8
ENDMDL
MODEL 8
REMARK VINA RESULT:      -5.1      2.196      3.483
REMARK  8 active torsions:
REMARK  status: ('A' for Active; 'I' for Inactive)
REMARK    1  A    between atoms: N_2  and  C_18 
REMARK       I    between atoms: N_2  and  C_3 
REMARK    2  A    between atoms: C_3  and  C_4 
REMARK    3  A    between atoms: C_4  and  C_5 
REMARK    4  A    between atoms: C_4  and  N_14 
REMARK    5  A    between atoms: C_5  and  C_9 
REMARK    6  A    between atoms: C_17  and  C_18 
REMARK    7  A    between atoms: C_18  and  C_20 
REMARK    8  A    between atoms: O_19  and  C_20 
ROOT
HETATM    1  N           1     -21.525  -5.041  -6.759  0.00  0.00    -0.343 N 
HETATM    2  C           1     -21.219  -6.215  -6.125  0.00  0.00     0.249 C 
HETATM    3  H           1     -21.673  -4.198  -6.219  0.00  0.00     0.163 HD
HETATM    4  O           1     -21.041  -7.221  -6.770  0.00  0.00    -0.271 OA
ENDROOT
BRANCH   2   5
HETATM    5  C           1     -21.100  -6.251  -4.621  0.00  0.00     0.284 C 
BRANCH   5   6
HETATM    6  C           1     -20.373  -7.522  -4.199  0.00  0.00     0.155 C 
BRANCH   6   7
HETATM    7  C           1     -21.327  -8.426  -3.458  0.00  0.00     0.175 C 
HETATM    8  O           1     -21.969  -9.300  -4.079  0.00  0.00    -0.648 OA
HETATM    9  O           1     -21.476  -8.300  -2.223  0.00  0.00    -0.648 OA
ENDBRANCH   6   7
ENDBRANCH   5   6
BRANCH   5  10
HETATM   10  N           1     -22.470  -6.235  -4.012  0.00  0.00    -0.066 N 
HETATM   11  H           1     -22.507  -5.515  -3.256  0.00  0.00     0.275 HD
HETATM   12  H           1     -23.175  -6.003  -4.748  0.00  0.00     0.275 HD
HETATM   13  H           1     -22.683  -7.175  -3.608  0.00  0.00     0.275 HD
ENDBRANCH   5  10
ENDBRANCH   2   5
BRANCH   1  14
HETATM   14  C           1     -21.639  -5.006  -8.205  0.00  0.00     0.214 C 
BRANCH  14  15
HETATM   15  C           1     -20.364  -4.455  -8.795  0.00  0.00     0.199 C 
HETATM   16  O           1     -20.031  -4.762  -9.960  0.00  0.00    -0.646 OA
HETATM   17  O           1     -19.641  -3.691  -8.120  0.00  0.00    -0.646 OA
ENDBRANCH  14  15
BRANCH  14  18
HETATM   18  C           1     -22.809  -4.114  -8.599  0.00  0.00     0.147 C 
HETATM   19  C           1     -23.413  -4.617  -9.903  0.00  0.00     0.042 C 
BRANCH  18  20
HETATM   20  O           1     -23.781  -4.146  -7.590  0.00  0.00    -0.393 OA
HETATM   21  H           1     -24.299  -4.921  -7.732  0.00  0.00     0.210 HD
ENDBRANCH  18  20
ENDBRANCH  14  18
ENDBRANCH   1  14
TORSDOF 8
ENDMDL
MODEL 9
REMARK VINA RESULT:      -5.0      1.658      2.510
REMARK  8 active torsions:
REMARK  status: ('A' for Active; 'I' for Inactive)
REMARK    1  A    between atoms: N_2  and  C_18 
REMARK       I    between atoms: N_2  and  C_3 
REMARK    2  A    between atoms: C_3  and  C_4 
REMARK    3  A    between atoms: C_4  and  C_5 
REMARK    4  A    between atoms: C_4  and  N_14 
REMARK    5  A    between atoms: C_5  and  C_9 
REMARK    6  A    between atoms: C_17  and  C_18 
REMARK    7  A    between atoms: C_18  and  C_20 
REMARK    8  A    between atoms: O_19  and  C_20 
ROOT
HETATM    1  N           1     -22.244  -4.198  -9.019  0.00  0.00    -0.343 N 
HETATM    2  C           1     -21.304  -4.769  -8.203  0.00  0.00     0.249 C 
HETATM    3  H           1     -22.963  -3.605  -8.624  0.00  0.00     0.163 HD
HETATM    4  O           1     -20.446  -5.476  -8.674  0.00  0.00    -0.271 OA
ENDROOT
BRANCH   2   5
HETATM    5  C           1     -21.340  -4.513  -6.717  0.00  0.00     0.284 C 
BRANCH   5   6
HETATM    6  C           1     -20.177  -5.235  -6.049  0.00  0.00     0.155 C 
BRANCH   6   7
HETATM    7  C           1     -20.682  -6.485  -5.372  0.00  0.00     0.175 C 
HETATM    8  O           1     -20.979  -6.462  -4.158  0.00  0.00    -0.648 OA
HETATM    9  O           1     -20.803  -7.544  -6.025  0.00  0.00    -0.648 OA
ENDBRANCH   6   7
ENDBRANCH   5   6
BRANCH   5  10
HETATM   10  N           1     -22.633  -5.022  -6.154  0.00  0.00    -0.066 N 
HETATM   11  H           1     -23.159  -5.534  -6.897  0.00  0.00     0.275 HD
HETATM   12  H           1     -22.434  -5.670  -5.358  0.00  0.00     0.275 HD
HETATM   13  H           1     -23.206  -4.216  -5.814  0.00  0.00     0.275 HD
ENDBRANCH   5  10
ENDBRANCH   2   5
BRANCH   1  14
HETATM   14  C           1     -22.210  -4.444 -10.448  0.00  0.00     0.214 C 
BRANCH  14  15
HETATM   15  C           1     -21.385  -3.376 -11.122  0.00  0.00     0.199 C 
HETATM   16  O           1     -20.147  -3.515 -11.228  0.00  0.00    -0.646 OA
HETATM   17  O           1     -21.939  -2.350 -11.575  0.00  0.00    -0.646 OA
ENDBRANCH  14  15
BRANCH  14  18
HETATM   18  C           1     -23.629  -4.415 -11.001  0.00  0.00     0.147 C 
HETATM   19  C           1     -23.710  -5.303 -12.235  0.00  0.00     0.042 C 
BRANCH  18  20
HETATM   20  O           1     -24.519  -4.885 -10.026  0.00  0.00    -0.393 OA
HETATM   21  H           1     -25.246  -4.286 -10.006  0.00  0.00     0.210 HD
ENDBRANCH  18  20
ENDBRANCH  14  18
ENDBRANCH   1  14
TORSDOF 8
ENDMDL
