MODEL 1
REMARK VINA RESULT:      -5.8      0.000      0.000
REMARK  7 active torsions:
REMARK  status: ('A' for Active; 'I' for Inactive)
REMARK    1  A    between atoms: C_3  and  C_15 
REMARK       I    between atoms: C_6  and  N_22 
REMARK    2  A    between atoms: C_6  and  C_15 
REMARK       I    between atoms: C_11  and  N_12 
REMARK    3  A    between atoms: C_11  and  C_13 
REMARK    4  A    between atoms: C_13  and  C_14 
REMARK    5  A    between atoms: C_14  and  C_19 
REMARK    6  A    between atoms: C_14  and  N_22 
REMARK    7  A    between atoms: C_15  and  N_16 
ROOT
HETATM    1  C           1     -21.455  -6.441  -4.246  0.00  0.00     0.249 C 
HETATM    2  O           1     -22.053  -7.309  -4.836  0.00  0.00    -0.271 OA
HETATM    3  H           1     -20.419  -4.659  -4.441  0.00  0.00     0.163 HD
HETATM    4  N           1     -20.921  -5.386  -4.936  0.00  0.00    -0.344 N 
ENDROOT
BRANCH   4   5
HETATM    5  C           1     -21.075  -5.310  -6.376  0.00  0.00     0.194 C 
BRANCH   5   6
HETATM    6  C           1     -21.470  -3.892  -6.768  0.00  0.00     0.138 C 
BRANCH   6   7
HETATM    7  C           1     -22.411  -3.940  -7.948  0.00  0.00     0.217 C 
HETATM    8  O           1     -21.988  -3.760  -9.065  0.00  0.00    -0.274 OA
HETATM    9  N           1     -23.743  -4.188  -7.751  0.00  0.00    -0.370 N 
HETATM   10  H           1     -24.097  -4.340  -6.815  0.00  0.00     0.159 HD
HETATM   11  H           1     -24.373  -4.221  -8.542  0.00  0.00     0.159 HD
ENDBRANCH   6   7
ENDBRANCH   5   6
BRANCH   5  12
HETATM   12  C           1     -19.770  -5.672  -7.041  0.00  0.00     0.197 C 
HETATM   13  O           1     -19.060  -4.780  -7.552  0.00  0.00    -0.646 OA
HETATM   14  O           1     -19.399  -6.865  -7.081  0.00  0.00    -0.646 OA
ENDBRANCH   5  12
ENDBRANCH   4   5
BRANCH   1  15
HETATM   15  C           1     -21.295  -6.520  -2.747  0.00  0.00     0.278 C 
BRANCH  15  16
HETATM   16  C           1     -21.362  -7.976  -2.305  0.00  0.00     0.017 C 
HETATM   17  C           1     -19.953  -8.545  -2.214  0.00  0.00     0.012 C 
HETATM   18  C           1     -22.033  -8.061  -0.941  0.00  0.00     0.012 C 
ENDBRANCH  15  16
BRANCH  15  19
HETATM   19  N           1     -22.396  -5.746  -2.086  0.00  0.00    -0.066 N 
HETATM   20  H           1     -22.074  -4.769  -1.903  0.00  0.00     0.275 HD
HETATM   21  H           1     -22.650  -6.207  -1.182  0.00  0.00     0.275 HD
HETATM   22  H           1     -23.233  -5.725  -2.712  0.00  0.00     0.275 HD
ENDBRANCH  15  19
ENDBRANCH   1  15
TORSDOF 7
ENDMDL
MODEL 2
REMARK VINA RESULT:      -5.4      2.147      5.562
REMARK  7 active torsions:
REMARK  status: ('A' for Active; 'I' for Inactive)
REMARK    1  A    between atoms: C_3  and  C_15 
REMARK       I    between atoms: C_6  and  N_22 
REMARK    2  A    between atoms: C_6  and  C_15 
REMARK       I    between atoms: C_11  and  N_12 
REMARK    3  A    between atoms: C_11  and  C_13 
REMARK    4  A    between atoms: C_13  and  C_14 
REMARK    5  A    between atoms: C_14  and  C_19 
REMARK    6  A    between atoms: C_14  and  N_22 
REMARK    7  A    between atoms: C_15  and  N_16 
ROOT
HETATM    1  C           1     -20.964  -5.734  -6.212  0.00  0.00     0.249 C 
HETATM    2  O           1     -20.812  -5.012  -5.256  0.00  0.00    -0.271 OA
HETATM    3  H           1     -20.847  -7.682  -6.904  0.00  0.00     0.163 HD
HETATM    4  N           1     -20.720  -7.077  -6.103  0.00  0.00    -0.344 N 
ENDROOT
BRANCH   4   5
HETATM    5  C           1     -20.278  -7.632  -4.838  0.00  0.00     0.194 C 
BRANCH   5   6
HETATM    6  C           1     -21.493  -8.005  -3.997  0.00  0.00     0.138 C 
BRANCH   6   7
HETATM    7  C           1     -21.475  -7.217  -2.710  0.00  0.00     0.217 C 
HETATM    8  O           1     -20.818  -7.605  -1.773  0.00  0.00    -0.274 OA
HETATM    9  N           1     -22.204  -6.063  -2.604  0.00  0.00    -0.370 N 
HETATM   10  H           1     -22.755  -5.738  -3.388  0.00  0.00     0.159 HD
HETATM   11  H           1     -22.192  -5.535  -1.741  0.00  0.00     0.159 HD
ENDBRANCH   6   7
ENDBRANCH   5   6
BRANCH   5  12
HETATM   12  C           1     -19.444  -8.863  -5.093  0.00  0.00     0.197 C 
HETATM   13  O           1     -19.495  -9.828  -4.299  0.00  0.00    -0.646 OA
HETATM   14  O           1     -18.702  -8.918  -6.097  0.00  0.00    -0.646 OA
ENDBRANCH   5  12
ENDBRANCH   4   5
BRANCH   1  15
HETATM   15  C           1     -21.424  -5.157  -7.528  0.00  0.00     0.278 C 
BRANCH  15  16
HETATM   16  C           1     -20.240  -5.061  -8.482  0.00  0.00     0.017 C 
HETATM   17  C           1     -20.683  -4.394  -9.777  0.00  0.00     0.012 C 
HETATM   18  C           1     -19.136  -4.233  -7.837  0.00  0.00     0.012 C 
ENDBRANCH  15  16
BRANCH  15  19
HETATM   19  N           1     -21.994  -3.788  -7.301  0.00  0.00    -0.066 N 
HETATM   20  H           1     -21.320  -3.218  -6.742  0.00  0.00     0.275 HD
HETATM   21  H           1     -22.899  -3.870  -6.783  0.00  0.00     0.275 HD
HETATM   22  H           1     -22.163  -3.323  -8.222  0.00  0.00     0.275 HD
ENDBRANCH  15  19
ENDBRANCH   1  15
TORSDOF 7
ENDMDL
MODEL 3
REMARK VINA RESULT:      -5.4      2.656      3.642
REMARK  7 active torsions:
REMARK  status: ('A' for Active; 'I' for Inactive)
REMARK    1  A    between atoms: C_3  and  C_15 
REMARK       I    between atoms: C_6  and  N_22 
REMARK    2  A    between atoms: C_6  and  C_15 
REMARK       I    between atoms: C_11  and  N_12 
REMARK    3  A    between atoms: C_11  and  C_13 
REMARK    4  A    between atoms: C_13  and  C_14 
REMARK    5  A    between atoms: C_14  and  C_19 
REMARK    6  A    between atoms: C_14  and  N_22 
REMARK    7  A    between atoms: C_15  and  N_16 
ROOT
HETATM    1  C           1     -21.301  -8.599  -2.125  0.00  0.00     0.249 C 
HETATM    2  O           1     -21.714  -9.733  -2.175  0.00  0.00    -0.271 OA
HETATM    3  H           1     -20.394  -7.075  -3.193  0.00  0.00     0.163 HD
HETATM    4  N           1     -20.742  -8.025  -3.235  0.00  0.00    -0.344 N 
ENDROOT
BRANCH   4   5
HETATM    5  C           1     -20.648  -8.778  -4.471  0.00  0.00     0.194 C 
BRANCH   5   6
HETATM    6  C           1     -21.383  -8.031  -5.576  0.00  0.00     0.138 C 
BRANCH   6   7
HETATM    7  C           1     -21.331  -6.547  -5.300  0.00  0.00     0.217 C 
HETATM    8  O           1     -22.187  -6.029  -4.622  0.00  0.00    -0.274 OA
HETATM    9  N           1     -20.315  -5.790  -5.819  0.00  0.00    -0.370 N 
HETATM   10  H           1     -19.599  -6.224  -6.387  0.00  0.00     0.159 HD
HETATM   11  H           1     -20.281  -4.796  -5.634  0.00  0.00     0.159 HD
ENDBRANCH   6   7
ENDBRANCH   5   6
BRANCH   5  12
HETATM   12  C           1     -19.196  -8.940  -4.851  0.00  0.00     0.197 C 
HETATM   13  O           1     -18.354  -9.254  -3.983  0.00  0.00    -0.646 OA
HETATM   14  O           1     -18.836  -8.761  -6.034  0.00  0.00    -0.646 OA
ENDBRANCH   5  12
ENDBRANCH   4   5
BRANCH   1  15
HETATM   15  C           1     -21.399  -7.816  -0.839  0.00  0.00     0.278 C 
BRANCH  15  16
HETATM   16  C           1     -21.977  -8.704   0.254  0.00  0.00     0.017 C 
HETATM   17  C           1     -21.041  -8.709   1.454  0.00  0.00     0.012 C 
HETATM   18  C           1     -23.339  -8.167   0.675  0.00  0.00     0.012 C 
ENDBRANCH  15  16
BRANCH  15  19
HETATM   19  N           1     -22.294  -6.629  -1.044  0.00  0.00    -0.066 N 
HETATM   20  H           1     -22.033  -5.876  -0.369  0.00  0.00     0.275 HD
HETATM   21  H           1     -23.288  -6.912  -0.886  0.00  0.00     0.275 HD
HETATM   22  H           1     -22.185  -6.275  -2.021  0.00  0.00     0.275 HD
ENDBRANCH  15  19
ENDBRANCH   1  15
TORSDOF 7
ENDMDL
MODEL 4
REMARK VINA RESULT:      -5.3      2.890      6.120
REMARK  7 active torsions:
REMARK  status: ('A' for Active; 'I' for Inactive)
REMARK    1  A    between atoms: C_3  and  C_15 
REMARK       I    between atoms: C_6  and  N_22 
REMARK    2  A    between atoms: C_6  and  C_15 
REMARK       I    between atoms: C_11  and  N_12 
REMARK    3  A    between atoms: C_11  and  C_13 
REMARK    4  A    between atoms: C_13  and  C_14 
REMARK    5  A    between atoms: C_14  and  C_19 
REMARK    6  A    between atoms: C_14  and  N_22 
REMARK    7  A    between atoms: C_15  and  N_16 
ROOT
HETATM    1  C           1     -20.893  -7.859  -4.274  0.00  0.00     0.249 C 
HETATM    2  O           1     -19.772  -8.299  -4.370  0.00  0.00    -0.271 OA
HETATM    3  H           1     -22.567  -7.729  -3.063  0.00  0.00     0.163 HD
HETATM    4  N           1     -21.628  -8.097  -3.143  0.00  0.00    -0.344 N 
ENDROOT
BRANCH   4   5
HETATM    5  C           1     -21.059  -8.877  -2.061  0.00  0.00     0.194 C 
BRANCH   5   6
HETATM    6  C           1     -21.033  -8.036  -0.791  0.00  0.00     0.138 C 
BRANCH   6   7
HETATM    7  C           1     -22.367  -7.353  -0.613  0.00  0.00     0.217 C 
HETATM    8  O           1     -22.608  -6.333  -1.212  0.00  0.00    -0.274 OA
HETATM    9  N           1     -23.304  -7.891   0.229  0.00  0.00    -0.370 N 
HETATM   10  H           1     -23.102  -8.746   0.731  0.00  0.00     0.159 HD
HETATM   11  H           1     -24.198  -7.433   0.349  0.00  0.00     0.159 HD
ENDBRANCH   6   7
ENDBRANCH   5   6
BRANCH   5  12
HETATM   12  C           1     -21.900 -10.109  -1.833  0.00  0.00     0.197 C 
HETATM   13  O           1     -21.961 -10.622  -0.695  0.00  0.00    -0.646 OA
HETATM   14  O           1     -22.535 -10.617  -2.783  0.00  0.00    -0.646 OA
ENDBRANCH   5  12
ENDBRANCH   4   5
BRANCH   1  15
HETATM   15  C           1     -21.484  -7.047  -5.400  0.00  0.00     0.278 C 
BRANCH  15  16
HETATM   16  C           1     -20.406  -6.160  -6.008  0.00  0.00     0.017 C 
HETATM   17  C           1     -20.771  -5.830  -7.448  0.00  0.00     0.012 C 
HETATM   18  C           1     -20.299  -4.871  -5.204  0.00  0.00     0.012 C 
ENDBRANCH  15  16
BRANCH  15  19
HETATM   19  N           1     -22.595  -6.190  -4.868  0.00  0.00    -0.066 N 
HETATM   20  H           1     -23.484  -6.423  -5.366  0.00  0.00     0.275 HD
HETATM   21  H           1     -22.361  -5.183  -5.022  0.00  0.00     0.275 HD
HETATM   22  H           1     -22.712  -6.367  -3.845  0.00  0.00     0.275 HD
ENDBRANCH  15  19
ENDBRANCH   1  15
TORSDOF 7
ENDMDL
MODEL 5
REMARK VINA RESULT:      -5.2      3.556      4.987
REMARK  7 active torsions:
REMARK  status: ('A' for Active; 'I' for Inactive)
REMARK    1  A    between atoms: C_3  and  C_15 
REMARK       I    between atoms: C_6  and  N_22 
REMARK    2  A    between atoms: C_6  and  C_15 
REMARK       I    between atoms: C_11  and  N_12 
REMARK    3  A    between atoms: C_11  and  C_13 
REMARK    4  A    between atoms: C_13  and  C_14 
REMARK    5  A    between atoms: C_14  and  C_19 
REMARK    6  A    between atoms: C_14  and  N_22 
REMARK    7  A    between atoms: C_15  and  N_16 
ROOT
HETATM    1  C           1     -21.073  -8.895  -1.518  0.00  0.00     0.249 C 
HETATM    2  O           1     -20.217  -8.184  -1.048  0.00  0.00    -0.271 OA
HETATM    3  H           1     -22.217  -9.291  -3.197  0.00  0.00     0.163 HD
HETATM    4  N           1     -21.500  -8.696  -2.803  0.00  0.00    -0.344 N 
ENDROOT
BRANCH   4   5
HETATM    5  C           1     -20.923  -7.630  -3.600  0.00  0.00     0.194 C 
BRANCH   5   6
HETATM    6  C           1     -20.601  -8.158  -4.993  0.00  0.00     0.138 C 
BRANCH   6   7
HETATM    7  C           1     -19.356  -9.009  -4.932  0.00  0.00     0.217 C 
HETATM    8  O           1     -18.633  -8.955  -3.965  0.00  0.00    -0.274 OA
HETATM    9  N           1     -19.045  -9.843  -5.973  0.00  0.00    -0.370 N 
HETATM   10  H           1     -19.651  -9.889  -6.783  0.00  0.00     0.159 HD
HETATM   11  H           1     -18.211 -10.414  -5.933  0.00  0.00     0.159 HD
ENDBRANCH   6   7
ENDBRANCH   5   6
BRANCH   5  12
HETATM   12  C           1     -21.909  -6.493  -3.708  0.00  0.00     0.197 C 
HETATM   13  O           1     -22.265  -6.079  -4.832  0.00  0.00    -0.646 OA
HETATM   14  O           1     -22.369  -5.965  -2.673  0.00  0.00    -0.646 OA
ENDBRANCH   5  12
ENDBRANCH   4   5
BRANCH   1  15
HETATM   15  C           1     -21.673 -10.004  -0.688  0.00  0.00     0.278 C 
BRANCH  15  16
HETATM   16  C           1     -23.161  -9.745  -0.494  0.00  0.00     0.017 C 
HETATM   17  C           1     -23.837 -11.014   0.006  0.00  0.00     0.012 C 
HETATM   18  C           1     -23.354  -8.631   0.526  0.00  0.00     0.012 C 
ENDBRANCH  15  16
BRANCH  15  19
HETATM   19  N           1     -20.996 -10.049   0.650  0.00  0.00    -0.066 N 
HETATM   20  H           1     -21.359 -10.862   1.197  0.00  0.00     0.275 HD
HETATM   21  H           1     -21.193  -9.162   1.169  0.00  0.00     0.275 HD
HETATM   22  H           1     -19.965 -10.151   0.516  0.00  0.00     0.275 HD
ENDBRANCH  15  19
ENDBRANCH   1  15
TORSDOF 7
ENDMDL
MODEL 6
REMARK VINA RESULT:      -5.1      2.433      5.712
REMARK  7 active torsions:
REMARK  status: ('A' for Active; 'I' for Inactive)
REMARK    1  A    between atoms: C_3  and  C_15 
REMARK       I    between atoms: C_6  and  N_22 
REMARK    2  A    between atoms: C_6  and  C_15 
REMARK       I    between atoms: C_11  and  N_12 
REMARK    3  A    between atoms: C_11  and  C_13 
REMARK    4  A    between atoms: C_13  and  C_14 
REMARK    5  A    between atoms: C_14  and  C_19 
REMARK    6  A    between atoms: C_14  and  N_22 
REMARK    7  A    between atoms: C_15  and  N_16 
ROOT
HETATM    1  C           1     -21.731  -5.733  -5.456  0.00  0.00     0.249 C 
HETATM    2  O           1     -22.919  -5.945  -5.508  0.00  0.00    -0.271 OA
HETATM    3  H           1     -19.952  -6.256  -4.535  0.00  0.00     0.163 HD
HETATM    4  N           1     -20.948  -6.435  -4.580  0.00  0.00    -0.344 N 
ENDROOT
BRANCH   4   5
HETATM    5  C           1     -21.545  -7.435  -3.715  0.00  0.00     0.194 C 
BRANCH   5   6
HETATM    6  C           1     -20.682  -8.690  -3.722  0.00  0.00     0.138 C 
BRANCH   6   7
HETATM    7  C           1     -21.114  -9.591  -4.852  0.00  0.00     0.217 C 
HETATM    8  O           1     -21.021  -9.213  -5.996  0.00  0.00    -0.274 OA
HETATM    9  N           1     -21.611 -10.838  -4.582  0.00  0.00    -0.370 N 
HETATM   10  H           1     -21.689 -11.155  -3.624  0.00  0.00     0.159 HD
HETATM   11  H           1     -21.901 -11.443  -5.340  0.00  0.00     0.159 HD
ENDBRANCH   6   7
ENDBRANCH   5   6
BRANCH   5  12
HETATM   12  C           1     -21.637  -6.893  -2.309  0.00  0.00     0.197 C 
HETATM   13  O           1     -21.108  -7.516  -1.364  0.00  0.00    -0.646 OA
HETATM   14  O           1     -22.243  -5.822  -2.091  0.00  0.00    -0.646 OA
ENDBRANCH   5  12
ENDBRANCH   4   5
BRANCH   1  15
HETATM   15  C           1     -21.110  -4.692  -6.355  0.00  0.00     0.278 C 
BRANCH  15  16
HETATM   16  C           1     -21.425  -5.023  -7.808  0.00  0.00     0.017 C 
HETATM   17  C           1     -22.425  -4.014  -8.354  0.00  0.00     0.012 C 
HETATM   18  C           1     -20.145  -4.965  -8.630  0.00  0.00     0.012 C 
ENDBRANCH  15  16
BRANCH  15  19
HETATM   19  N           1     -19.623  -4.684  -6.157  0.00  0.00    -0.066 N 
HETATM   20  H           1     -19.153  -4.998  -7.035  0.00  0.00     0.275 HD
HETATM   21  H           1     -19.373  -5.332  -5.375  0.00  0.00     0.275 HD
HETATM   22  H           1     -19.308  -3.716  -5.920  0.00  0.00     0.275 HD
ENDBRANCH  15  19
ENDBRANCH   1  15
TORSDOF 7
ENDMDL
MODEL 7
REMARK VINA RESULT:      -5.0      4.079      6.326
REMARK  7 active torsions:
REMARK  status: ('A' for Active; 'I' for Inactive)
REMARK    1  A    between atoms: C_3  and  C_15 
REMARK       I    between atoms: C_6  and  N_22 
REMARK    2  A    between atoms: C_6  and  C_15 
REMARK       I    between atoms: C_11  and  N_12 
REMARK    3  A    between atoms: C_11  and  C_13 
REMARK    4  A    between atoms: C_13  and  C_14 
REMARK    5  A    between atoms: C_14  and  C_19 
REMARK    6  A    between atoms: C_14  and  N_22 
REMARK    7  A    between atoms: C_15  and  N_16 
ROOT
HETATM    1  C           1     -19.786  -9.890  -2.261  0.00  0.00     0.249 C 
HETATM    2  O           1     -20.706 -10.673  -2.281  0.00  0.00    -0.271 OA
HETATM    3  H           1     -19.260  -7.894  -2.115  0.00  0.00     0.163 HD
HETATM    4  N           1     -20.031  -8.550  -2.131  0.00  0.00    -0.344 N 
ENDROOT
BRANCH   4   5
HETATM    5  C           1     -21.395  -8.070  -2.016  0.00  0.00     0.194 C 
BRANCH   5   6
HETATM    6  C           1     -21.670  -7.669  -0.572  0.00  0.00     0.138 C 
BRANCH   6   7
HETATM    7  C           1     -22.798  -8.508  -0.023  0.00  0.00     0.217 C 
HETATM    8  O           1     -23.514  -8.066   0.844  0.00  0.00    -0.274 OA
HETATM    9  N           1     -23.011  -9.771  -0.509  0.00  0.00    -0.370 N 
HETATM   10  H           1     -22.412 -10.141  -1.236  0.00  0.00     0.159 HD
HETATM   11  H           1     -23.767 -10.334  -0.141  0.00  0.00     0.159 HD
ENDBRANCH   6   7
ENDBRANCH   5   6
BRANCH   5  12
HETATM   12  C           1     -21.585  -6.874  -2.916  0.00  0.00     0.197 C 
HETATM   13  O           1     -22.357  -5.952  -2.576  0.00  0.00    -0.646 OA
HETATM   14  O           1     -20.970  -6.806  -4.002  0.00  0.00    -0.646 OA
ENDBRANCH   5  12
ENDBRANCH   4   5
BRANCH   1  15
HETATM   15  C           1     -18.367 -10.390  -2.381  0.00  0.00     0.278 C 
BRANCH  15  16
HETATM   16  C           1     -17.564  -9.433  -3.252  0.00  0.00     0.017 C 
HETATM   17  C           1     -16.088  -9.536  -2.893  0.00  0.00     0.012 C 
HETATM   18  C           1     -17.756  -9.799  -4.717  0.00  0.00     0.012 C 
ENDBRANCH  15  16
BRANCH  15  19
HETATM   19  N           1     -18.369 -11.753  -3.007  0.00  0.00    -0.066 N 
HETATM   20  H           1     -18.991 -11.750  -3.846  0.00  0.00     0.275 HD
HETATM   21  H           1     -18.718 -12.453  -2.314  0.00  0.00     0.275 HD
HETATM   22  H           1     -17.397 -12.005  -3.295  0.00  0.00     0.275 HD
ENDBRANCH  15  19
ENDBRANCH   1  15
TORSDOF 7
ENDMDL
MODEL 8
REMARK VINA RESULT:      -4.9      2.803      4.432
REMARK  7 active torsions:
REMARK  status: ('A' for Active; 'I' for Inactive)
REMARK    1  A    between atoms: C_3  and  C_15 
REMARK       I    between atoms: C_6  and  N_22 
REMARK    2  A    between atoms: C_6  and  C_15 
REMARK       I    between atoms: C_11  and  N_12 
REMARK    3  A    between atoms: C_11  and  C_13 
REMARK    4  A    between atoms: C_13  and  C_14 
REMARK    5  A    between atoms: C_14  and  C_19 
REMARK    6  A    between atoms: C_14  and  N_22 
REMARK    7  A    between atoms: C_15  and  N_16 
ROOT
HETATM    1  C           1     -20.702  -8.072  -2.047  0.00  0.00     0.249 C 
HETATM    2  O           1     -19.565  -8.466  -2.155  0.00  0.00    -0.271 OA
HETATM    3  H           1     -22.380  -7.429  -3.074  0.00  0.00     0.163 HD
HETATM    4  N           1     -21.428  -7.759  -3.165  0.00  0.00    -0.344 N 
ENDROOT
BRANCH   4   5
HETATM    5  C           1     -20.831  -7.903  -4.479  0.00  0.00     0.194 C 
BRANCH   5   6
HETATM    6  C           1     -21.109  -9.303  -5.011  0.00  0.00     0.138 C 
BRANCH   6   7
HETATM    7  C           1     -19.805  -9.969  -5.379  0.00  0.00     0.217 C 
HETATM    8  O           1     -19.795 -10.879  -6.173  0.00  0.00    -0.274 OA
HETATM    9  N           1     -18.634  -9.540  -4.813  0.00  0.00    -0.370 N 
HETATM   10  H           1     -18.643  -8.777  -4.149  0.00  0.00     0.159 HD
HETATM   11  H           1     -17.760  -9.986  -5.060  0.00  0.00     0.159 HD
ENDBRANCH   6   7
ENDBRANCH   5   6
BRANCH   5  12
HETATM   12  C           1     -21.427  -6.880  -5.415  0.00  0.00     0.197 C 
HETATM   13  O           1     -21.077  -6.853  -6.615  0.00  0.00    -0.646 OA
HETATM   14  O           1     -22.270  -6.060  -4.991  0.00  0.00    -0.646 OA
ENDBRANCH   5  12
ENDBRANCH   4   5
BRANCH   1  15
HETATM   15  C           1     -21.322  -7.923  -0.679  0.00  0.00     0.278 C 
BRANCH  15  16
HETATM   16  C           1     -21.776  -9.287  -0.176  0.00  0.00     0.017 C 
HETATM   17  C           1     -20.992  -9.654   1.076  0.00  0.00     0.012 C 
HETATM   18  C           1     -23.262  -9.237   0.153  0.00  0.00     0.012 C 
ENDBRANCH  15  16
BRANCH  15  19
HETATM   19  N           1     -22.505  -7.004  -0.765  0.00  0.00    -0.066 N 
HETATM   20  H           1     -23.288  -7.389  -0.190  0.00  0.00     0.275 HD
HETATM   21  H           1     -22.809  -6.921  -1.761  0.00  0.00     0.275 HD
HETATM   22  H           1     -22.239  -6.060  -0.403  0.00  0.00     0.275 HD
ENDBRANCH  15  19
ENDBRANCH   1  15
TORSDOF 7
ENDMDL
MODEL 9
REMARK VINA RESULT:      -4.8      3.942      5.800
REMARK  7 active torsions:
REMARK  status: ('A' for Active; 'I' for Inactive)
REMARK    1  A    between atoms: C_3  and  C_15 
REMARK       I    between atoms: C_6  and  N_22 
REMARK    2  A    between atoms: C_6  and  C_15 
REMARK       I    between atoms: C_11  and  N_12 
REMARK    3  A    between atoms: C_11  and  C_13 
REMARK    4  A    between atoms: C_13  and  C_14 
REMARK    5  A    between atoms: C_14  and  C_19 
REMARK    6  A    between atoms: C_14  and  N_22 
REMARK    7  A    between atoms: C_15  and  N_16 
ROOT
HETATM    1  C           1     -21.278 -10.272  -1.448  0.00  0.00     0.249 C 
HETATM    2  O           1     -20.160 -10.088  -1.028  0.00  0.00    -0.271 OA
HETATM    3  H           1     -22.836  -9.458  -2.542  0.00  0.00     0.163 HD
HETATM    4  N           1     -21.899  -9.304  -2.191  0.00  0.00    -0.344 N 
ENDROOT
BRANCH   4   5
HETATM    5  C           1     -21.214  -8.057  -2.473  0.00  0.00     0.194 C 
BRANCH   5   6
HETATM    6  C           1     -21.158  -7.841  -3.980  0.00  0.00     0.138 C 
BRANCH   6   7
HETATM    7  C           1     -19.875  -8.421  -4.524  0.00  0.00     0.217 C 
HETATM    8  O           1     -19.678  -8.440  -5.716  0.00  0.00    -0.274 OA
HETATM    9  N           1     -18.934  -8.926  -3.666  0.00  0.00    -0.370 N 
HETATM   10  H           1     -19.099  -8.910  -2.668  0.00  0.00     0.159 HD
HETATM   11  H           1     -18.075  -9.315  -4.031  0.00  0.00     0.159 HD
ENDBRANCH   6   7
ENDBRANCH   5   6
BRANCH   5  12
HETATM   12  C           1     -21.960  -6.916  -1.827  0.00  0.00     0.197 C 
HETATM   13  O           1     -22.224  -6.953  -0.606  0.00  0.00    -0.646 OA
HETATM   14  O           1     -22.316  -5.934  -2.514  0.00  0.00    -0.646 OA
ENDBRANCH   5  12
ENDBRANCH   4   5
BRANCH   1  15
HETATM   15  C           1     -21.990 -11.570  -1.154  0.00  0.00     0.278 C 
BRANCH  15  16
HETATM   16  C           1     -22.734 -11.452   0.169  0.00  0.00     0.017 C 
HETATM   17  C           1     -24.157 -10.977  -0.088  0.00  0.00     0.012 C 
HETATM   18  C           1     -22.770 -12.812   0.853  0.00  0.00     0.012 C 
ENDBRANCH  15  16
BRANCH  15  19
HETATM   19  N           1     -20.987 -12.682  -1.066  0.00  0.00    -0.066 N 
HETATM   20  H           1     -21.096 -13.177  -0.153  0.00  0.00     0.275 HD
HETATM   21  H           1     -20.022 -12.285  -1.136  0.00  0.00     0.275 HD
HETATM   22  H           1     -21.144 -13.356  -1.849  0.00  0.00     0.275 HD
ENDBRANCH  15  19
ENDBRANCH   1  15
TORSDOF 7
ENDMDL
