MODEL 1
REMARK VINA RESULT:      -6.4      0.000      0.000
REMARK  10 active torsions:
REMARK  status: ('A' for Active; 'I' for Inactive)
REMARK    1  A    between atoms: C_1  and  C_20 
REMARK    2  A    between atoms: N_4  and  C_20 
REMARK       I    between atoms: N_4  and  C_5 
REMARK    3  A    between atoms: C_5  and  C_11 
REMARK       I    between atoms: N_6  and  C_16 
REMARK    4  A    between atoms: N_7  and  C_11 
REMARK    5  A    between atoms: C_10  and  C_18 
REMARK    6  A    between atoms: C_11  and  C_12 
REMARK    7  A    between atoms: C_12  and  C_13 
REMARK    8  A    between atoms: C_13  and  C_14 
REMARK    9  A    between atoms: C_14  and  N_17 
REMARK       I    between atoms: N_15  and  C_16 
REMARK   10  A    between atoms: C_18  and  C_20 
ROOT
HETATM    1  C           1     -20.575  -5.290  -6.233  0.00  0.00     0.274 C 
ENDROOT
BRANCH   1   2
HETATM    2  C           1     -21.413  -6.097  -5.272  0.00  0.00     0.249 C 
HETATM    3  N           1     -20.808  -6.906  -4.349  0.00  0.00    -0.344 N 
HETATM    4  H           1     -19.798  -6.964  -4.311  0.00  0.00     0.163 HD
HETATM    5  O           1     -22.618  -6.029  -5.317  0.00  0.00    -0.271 OA
BRANCH   3   6
HETATM    6  C           1     -21.612  -7.683  -3.426  0.00  0.00     0.189 C 
BRANCH   6   7
HETATM    7  C           1     -21.676  -6.973  -2.096  0.00  0.00     0.197 C 
HETATM    8  O           1     -21.164  -7.495  -1.083  0.00  0.00    -0.646 OA
HETATM    9  O           1     -22.240  -5.861  -2.007  0.00  0.00    -0.646 OA
ENDBRANCH   6   7
BRANCH   6  10
HETATM   10  C           1     -20.984  -9.058  -3.238  0.00  0.00     0.014 C 
HETATM   11  C           1     -21.891 -10.116  -3.852  0.00  0.00     0.012 C 
BRANCH  10  12
HETATM   12  C           1     -19.625  -9.092  -3.924  0.00  0.00     0.002 C 
HETATM   13  C           1     -18.536  -9.327  -2.885  0.00  0.00     0.005 C 
ENDBRANCH  10  12
ENDBRANCH   6  10
ENDBRANCH   3   6
ENDBRANCH   1   2
BRANCH   1  14
HETATM   14  N           1     -19.886  -6.215  -7.193  0.00  0.00    -0.067 N 
HETATM   15  H           1     -19.659  -7.112  -6.709  0.00  0.00     0.275 HD
HETATM   16  H           1     -20.515  -6.406  -8.004  0.00  0.00     0.275 HD
HETATM   17  H           1     -19.004  -5.769  -7.531  0.00  0.00     0.275 HD
ENDBRANCH   1  14
BRANCH   1  18
HETATM   18  C           1     -21.470  -4.331  -7.006  0.00  0.00     0.044 C 
BRANCH  18  19
HETATM   19  C           1     -21.738  -4.895  -8.396  0.00  0.00     0.023 C 
BRANCH  19  20
HETATM   20  C           1     -22.205  -3.776  -9.316  0.00  0.00     0.138 C 
BRANCH  20  21
HETATM   21  N           1     -23.610  -3.453  -9.024  0.00  0.00    -0.227 N 
HETATM   22  C           1     -24.519  -3.786  -9.839  0.00  0.00     0.665 C 
HETATM   23  N           1     -24.212  -4.414 -10.935  0.00  0.00    -0.235 N 
HETATM   24  N           1     -25.728  -3.508  -9.587  0.00  0.00    -0.235 N 
HETATM   25  H           1     -24.962  -4.689 -11.609  0.00  0.00     0.174 HD
HETATM   26  H           1     -23.213  -4.644 -11.143  0.00  0.00     0.174 HD
HETATM   27  H           1     -26.483  -3.784 -10.263  0.00  0.00     0.174 HD
HETATM   28  H           1     -25.977  -3.001  -8.701  0.00  0.00     0.174 HD
HETATM   29  H           1     -23.858  -2.946  -8.139  0.00  0.00     0.177 HD
ENDBRANCH  20  21
ENDBRANCH  19  20
ENDBRANCH  18  19
ENDBRANCH   1  18
TORSDOF 10
ENDMDL
MODEL 2
REMARK VINA RESULT:      -6.3      2.181      3.151
REMARK  10 active torsions:
REMARK  status: ('A' for Active; 'I' for Inactive)
REMARK    1  A    between atoms: C_1  and  C_20 
REMARK    2  A    between atoms: N_4  and  C_20 
REMARK       I    between atoms: N_4  and  C_5 
REMARK    3  A    between atoms: C_5  and  C_11 
REMARK       I    between atoms: N_6  and  C_16 
REMARK    4  A    between atoms: N_7  and  C_11 
REMARK    5  A    between atoms: C_10  and  C_18 
REMARK    6  A    between atoms: C_11  and  C_12 
REMARK    7  A    between atoms: C_12  and  C_13 
REMARK    8  A    between atoms: C_13  and  C_14 
REMARK    9  A    between atoms: C_14  and  N_17 
REMARK       I    between atoms: N_15  and  C_16 
REMARK   10  A    between atoms: C_18  and  C_20 
ROOT
HETATM    1  C           1     -21.411  -7.068  -5.632  0.00  0.00     0.274 C 
ENDROOT
BRANCH   1   2
HETATM    2  C           1     -20.752  -7.731  -4.449  0.00  0.00     0.249 C 
HETATM    3  N           1     -21.453  -7.910  -3.286  0.00  0.00    -0.344 N 
HETATM    4  H           1     -22.413  -7.597  -3.221  0.00  0.00     0.163 HD
HETATM    5  O           1     -19.606  -8.105  -4.526  0.00  0.00    -0.271 OA
BRANCH   3   6
HETATM    6  C           1     -20.819  -8.547  -2.148  0.00  0.00     0.189 C 
BRANCH   6   7
HETATM    7  C           1     -21.260  -9.988  -2.070  0.00  0.00     0.197 C 
HETATM    8  O           1     -20.482 -10.856  -1.620  0.00  0.00    -0.646 OA
HETATM    9  O           1     -22.404 -10.314  -2.456  0.00  0.00    -0.646 OA
ENDBRANCH   6   7
BRANCH   6  10
HETATM   10  C           1     -21.225  -7.822  -0.871  0.00  0.00     0.014 C 
HETATM   11  C           1     -22.201  -6.704  -1.212  0.00  0.00     0.012 C 
BRANCH  10  12
HETATM   12  C           1     -21.893  -8.807   0.080  0.00  0.00     0.002 C 
HETATM   13  C           1     -23.220  -8.233   0.559  0.00  0.00     0.005 C 
ENDBRANCH  10  12
ENDBRANCH   6  10
ENDBRANCH   3   6
ENDBRANCH   1   2
BRANCH   1  14
HETATM   14  N           1     -22.518  -6.176  -5.153  0.00  0.00    -0.067 N 
HETATM   15  H           1     -23.290  -6.171  -5.857  0.00  0.00     0.275 HD
HETATM   16  H           1     -22.881  -6.532  -4.240  0.00  0.00     0.275 HD
HETATM   17  H           1     -22.154  -5.205  -5.030  0.00  0.00     0.275 HD
ENDBRANCH   1  14
BRANCH   1  18
HETATM   18  C           1     -20.382  -6.238  -6.388  0.00  0.00     0.044 C 
BRANCH  18  19
HETATM   19  C           1     -20.585  -4.762  -6.066  0.00  0.00     0.023 C 
BRANCH  19  20
HETATM   20  C           1     -20.803  -3.986  -7.358  0.00  0.00     0.138 C 
BRANCH  20  21
HETATM   21  N           1     -22.225  -3.632  -7.484  0.00  0.00    -0.227 N 
HETATM   22  C           1     -22.891  -4.035  -8.482  0.00  0.00     0.665 C 
HETATM   23  N           1     -22.320  -4.762  -9.395  0.00  0.00    -0.235 N 
HETATM   24  N           1     -24.116  -3.730  -8.590  0.00  0.00    -0.235 N 
HETATM   25  H           1     -22.871  -5.096 -10.219  0.00  0.00     0.174 HD
HETATM   26  H           1     -21.309  -5.015  -9.305  0.00  0.00     0.174 HD
HETATM   27  H           1     -24.669  -4.064  -9.417  0.00  0.00     0.174 HD
HETATM   28  H           1     -24.578  -3.142  -7.852  0.00  0.00     0.174 HD
HETATM   29  H           1     -22.686  -3.045  -6.747  0.00  0.00     0.177 HD
ENDBRANCH  20  21
ENDBRANCH  19  20
ENDBRANCH  18  19
ENDBRANCH   1  18
TORSDOF 10
ENDMDL
MODEL 3
REMARK VINA RESULT:      -6.2      1.994      2.708
REMARK  10 active torsions:
REMARK  status: ('A' for Active; 'I' for Inactive)
REMARK    1  A    between atoms: C_1  and  C_20 
REMARK    2  A    between atoms: N_4  and  C_20 
REMARK       I    between atoms: N_4  and  C_5 
REMARK    3  A    between atoms: C_5  and  C_11 
REMARK       I    between atoms: N_6  and  C_16 
REMARK    4  A    between atoms: N_7  and  C_11 
REMARK    5  A    between atoms: C_10  and  C_18 
REMARK    6  A    between atoms: C_11  and  C_12 
REMARK    7  A    between atoms: C_12  and  C_13 
REMARK    8  A    between atoms: C_13  and  C_14 
REMARK    9  A    between atoms: C_14  and  N_17 
REMARK       I    between atoms: N_15  and  C_16 
REMARK   10  A    between atoms: C_18  and  C_20 
ROOT
HETATM    1  C           1     -21.619  -5.760  -6.847  0.00  0.00     0.274 C 
ENDROOT
BRANCH   1   2
HETATM    2  C           1     -20.878  -6.811  -6.058  0.00  0.00     0.249 C 
HETATM    3  N           1     -21.496  -7.445  -5.014  0.00  0.00    -0.344 N 
HETATM    4  H           1     -22.449  -7.208  -4.770  0.00  0.00     0.163 HD
HETATM    5  O           1     -19.740  -7.095  -6.348  0.00  0.00    -0.271 OA
BRANCH   3   6
HETATM    6  C           1     -20.785  -8.456  -4.255  0.00  0.00     0.189 C 
BRANCH   6   7
HETATM    7  C           1     -21.188  -9.826  -4.742  0.00  0.00     0.197 C 
HETATM    8  O           1     -20.647 -10.312  -5.758  0.00  0.00    -0.646 OA
HETATM    9  O           1     -22.064 -10.474  -4.130  0.00  0.00    -0.646 OA
ENDBRANCH   6   7
BRANCH   6  10
HETATM   10  C           1     -21.132  -8.319  -2.778  0.00  0.00     0.014 C 
HETATM   11  C           1     -19.926  -8.713  -1.936  0.00  0.00     0.012 C 
BRANCH  10  12
HETATM   12  C           1     -21.512  -6.875  -2.478  0.00  0.00     0.002 C 
HETATM   13  C           1     -22.289  -6.814  -1.170  0.00  0.00     0.005 C 
ENDBRANCH  10  12
ENDBRANCH   6  10
ENDBRANCH   3   6
ENDBRANCH   1   2
BRANCH   1  14
HETATM   14  N           1     -22.752  -5.224  -6.023  0.00  0.00    -0.067 N 
HETATM   15  H           1     -22.577  -5.430  -5.014  0.00  0.00     0.275 HD
HETATM   16  H           1     -22.823  -4.190  -6.160  0.00  0.00     0.275 HD
HETATM   17  H           1     -23.643  -5.678  -6.321  0.00  0.00     0.275 HD
ENDBRANCH   1  14
BRANCH   1  18
HETATM   18  C           1     -20.666  -4.625  -7.200  0.00  0.00     0.044 C 
BRANCH  18  19
HETATM   19  C           1     -21.469  -3.414  -7.661  0.00  0.00     0.023 C 
BRANCH  19  20
HETATM   20  C           1     -22.142  -3.727  -8.990  0.00  0.00     0.138 C 
BRANCH  20  21
HETATM   21  N           1     -23.579  -3.427  -8.895  0.00  0.00    -0.227 N 
HETATM   22  C           1     -24.372  -3.842  -9.790  0.00  0.00     0.665 C 
HETATM   23  N           1     -23.918  -4.533 -10.792  0.00  0.00    -0.235 N 
HETATM   24  N           1     -25.609  -3.584  -9.708  0.00  0.00    -0.235 N 
HETATM   25  H           1     -24.573  -4.876 -11.532  0.00  0.00     0.174 HD
HETATM   26  H           1     -22.896  -4.747 -10.860  0.00  0.00     0.174 HD
HETATM   27  H           1     -26.268  -3.928 -10.450  0.00  0.00     0.174 HD
HETATM   28  H           1     -25.977  -3.025  -8.898  0.00  0.00     0.174 HD
HETATM   29  H           1     -23.946  -2.869  -8.086  0.00  0.00     0.177 HD
ENDBRANCH  20  21
ENDBRANCH  19  20
ENDBRANCH  18  19
ENDBRANCH   1  18
TORSDOF 10
ENDMDL
MODEL 4
REMARK VINA RESULT:      -5.7      2.419      3.727
REMARK  10 active torsions:
REMARK  status: ('A' for Active; 'I' for Inactive)
REMARK    1  A    between atoms: C_1  and  C_20 
REMARK    2  A    between atoms: N_4  and  C_20 
REMARK       I    between atoms: N_4  and  C_5 
REMARK    3  A    between atoms: C_5  and  C_11 
REMARK       I    between atoms: N_6  and  C_16 
REMARK    4  A    between atoms: N_7  and  C_11 
REMARK    5  A    between atoms: C_10  and  C_18 
REMARK    6  A    between atoms: C_11  and  C_12 
REMARK    7  A    between atoms: C_12  and  C_13 
REMARK    8  A    between atoms: C_13  and  C_14 
REMARK    9  A    between atoms: C_14  and  N_17 
REMARK       I    between atoms: N_15  and  C_16 
REMARK   10  A    between atoms: C_18  and  C_20 
ROOT
HETATM    1  C           1     -20.767  -7.331  -3.495  0.00  0.00     0.274 C 
ENDROOT
BRANCH   1   2
HETATM    2  C           1     -21.551  -7.710  -2.263  0.00  0.00     0.249 C 
HETATM    3  N           1     -21.529  -9.001  -1.807  0.00  0.00    -0.344 N 
HETATM    4  H           1     -20.986  -9.701  -2.297  0.00  0.00     0.163 HD
HETATM    5  O           1     -22.199  -6.875  -1.679  0.00  0.00    -0.271 OA
BRANCH   3   6
HETATM    6  C           1     -22.283  -9.365  -0.624  0.00  0.00     0.189 C 
BRANCH   6   7
HETATM    7  C           1     -21.374  -9.333   0.580  0.00  0.00     0.197 C 
HETATM    8  O           1     -20.624 -10.302   0.824  0.00  0.00    -0.646 OA
HETATM    9  O           1     -21.371  -8.335   1.334  0.00  0.00    -0.646 OA
ENDBRANCH   6   7
BRANCH   6  10
HETATM   10  C           1     -22.848 -10.769  -0.795  0.00  0.00     0.014 C 
HETATM   11  C           1     -24.143 -10.893  -0.004  0.00  0.00     0.012 C 
BRANCH  10  12
HETATM   12  C           1     -23.127 -11.027  -2.271  0.00  0.00     0.002 C 
HETATM   13  C           1     -22.612 -12.408  -2.652  0.00  0.00     0.005 C 
ENDBRANCH  10  12
ENDBRANCH   6  10
ENDBRANCH   3   6
ENDBRANCH   1   2
BRANCH   1  14
HETATM   14  N           1     -20.584  -8.542  -4.362  0.00  0.00    -0.067 N 
HETATM   15  H           1     -20.819  -9.401  -3.815  0.00  0.00     0.275 HD
HETATM   16  H           1     -21.213  -8.474  -5.193  0.00  0.00     0.275 HD
HETATM   17  H           1     -19.590  -8.594  -4.680  0.00  0.00     0.275 HD
ENDBRANCH   1  14
BRANCH   1  18
HETATM   18  C           1     -21.524  -6.262  -4.271  0.00  0.00     0.044 C 
BRANCH  18  19
HETATM   19  C           1     -20.532  -5.282  -4.885  0.00  0.00     0.023 C 
BRANCH  19  20
HETATM   20  C           1     -20.705  -5.265  -6.398  0.00  0.00     0.138 C 
BRANCH  20  21
HETATM   21  N           1     -22.138  -5.268  -6.727  0.00  0.00    -0.227 N 
HETATM   22  C           1     -22.642  -4.299  -7.368  0.00  0.00     0.665 C 
HETATM   23  N           1     -21.893  -3.302  -7.735  0.00  0.00    -0.235 N 
HETATM   24  N           1     -23.876  -4.302  -7.652  0.00  0.00    -0.235 N 
HETATM   25  H           1     -22.309  -2.502  -8.264  0.00  0.00     0.174 HD
HETATM   26  H           1     -20.874  -3.300  -7.501  0.00  0.00     0.174 HD
HETATM   27  H           1     -24.295  -3.499  -8.183  0.00  0.00     0.174 HD
HETATM   28  H           1     -24.481  -5.108  -7.356  0.00  0.00     0.174 HD
HETATM   29  H           1     -22.743  -6.073  -6.431  0.00  0.00     0.177 HD
ENDBRANCH  20  21
ENDBRANCH  19  20
ENDBRANCH  18  19
ENDBRANCH   1  18
TORSDOF 10
ENDMDL
MODEL 5
REMARK VINA RESULT:      -5.6      2.845      3.736
REMARK  10 active torsions:
REMARK  status: ('A' for Active; 'I' for Inactive)
REMARK    1  A    between atoms: C_1  and  C_20 
REMARK    2  A    between atoms: N_4  and  C_20 
REMARK       I    between atoms: N_4  and  C_5 
REMARK    3  A    between atoms: C_5  and  C_11 
REMARK       I    between atoms: N_6  and  C_16 
REMARK    4  A    between atoms: N_7  and  C_11 
REMARK    5  A    between atoms: C_10  and  C_18 
REMARK    6  A    between atoms: C_11  and  C_12 
REMARK    7  A    between atoms: C_12  and  C_13 
REMARK    8  A    between atoms: C_13  and  C_14 
REMARK    9  A    between atoms: C_14  and  N_17 
REMARK       I    between atoms: N_15  and  C_16 
REMARK   10  A    between atoms: C_18  and  C_20 
ROOT
HETATM    1  C           1     -21.435  -6.942  -5.792  0.00  0.00     0.274 C 
ENDROOT
BRANCH   1   2
HETATM    2  C           1     -20.863  -8.130  -5.060  0.00  0.00     0.249 C 
HETATM    3  N           1     -20.644  -9.305  -5.728  0.00  0.00    -0.344 N 
HETATM    4  H           1     -20.866  -9.376  -6.713  0.00  0.00     0.163 HD
HETATM    5  O           1     -20.598  -8.046  -3.884  0.00  0.00    -0.271 OA
BRANCH   3   6
HETATM    6  C           1     -20.095 -10.448  -5.025  0.00  0.00     0.189 C 
BRANCH   6   7
HETATM    7  C           1     -18.719 -10.755  -5.563  0.00  0.00     0.197 C 
HETATM    8  O           1     -18.094 -11.754  -5.148  0.00  0.00    -0.646 OA
HETATM    9  O           1     -18.205 -10.010  -6.425  0.00  0.00    -0.646 OA
ENDBRANCH   6   7
BRANCH   6  10
HETATM   10  C           1     -21.002 -11.654  -5.231  0.00  0.00     0.014 C 
HETATM   11  C           1     -22.208 -11.545  -4.307  0.00  0.00     0.012 C 
BRANCH  10  12
HETATM   12  C           1     -21.473 -11.692  -6.680  0.00  0.00     0.002 C 
HETATM   13  C           1     -20.982 -12.973  -7.341  0.00  0.00     0.005 C 
ENDBRANCH  10  12
ENDBRANCH   6  10
ENDBRANCH   3   6
ENDBRANCH   1   2
BRANCH   1  14
HETATM   14  N           1     -22.238  -6.107  -4.838  0.00  0.00    -0.067 N 
HETATM   15  H           1     -22.279  -5.123  -5.187  0.00  0.00     0.275 HD
HETATM   16  H           1     -23.206  -6.493  -4.768  0.00  0.00     0.275 HD
HETATM   17  H           1     -21.786  -6.123  -3.897  0.00  0.00     0.275 HD
ENDBRANCH   1  14
BRANCH   1  18
HETATM   18  C           1     -20.300  -6.105  -6.367  0.00  0.00     0.044 C 
BRANCH  18  19
HETATM   19  C           1     -20.671  -4.629  -6.297  0.00  0.00     0.023 C 
BRANCH  19  20
HETATM   20  C           1     -21.090  -4.145  -7.679  0.00  0.00     0.138 C 
BRANCH  20  21
HETATM   21  N           1     -22.544  -3.923  -7.702  0.00  0.00    -0.227 N 
HETATM   22  C           1     -23.142  -3.762  -8.806  0.00  0.00     0.665 C 
HETATM   23  N           1     -22.473  -3.794  -9.919  0.00  0.00    -0.235 N 
HETATM   24  N           1     -24.394  -3.571  -8.826  0.00  0.00    -0.235 N 
HETATM   25  H           1     -22.967  -3.662 -10.831  0.00  0.00     0.174 HD
HETATM   26  H           1     -21.439  -3.953  -9.903  0.00  0.00     0.174 HD
HETATM   27  H           1     -24.891  -3.438  -9.741  0.00  0.00     0.174 HD
HETATM   28  H           1     -24.935  -3.546  -7.925  0.00  0.00     0.174 HD
HETATM   29  H           1     -23.085  -3.897  -6.803  0.00  0.00     0.177 HD
ENDBRANCH  20  21
ENDBRANCH  19  20
ENDBRANCH  18  19
ENDBRANCH   1  18
TORSDOF 10
ENDMDL
MODEL 6
REMARK VINA RESULT:      -5.6     20.977     22.698
REMARK  10 active torsions:
REMARK  status: ('A' for Active; 'I' for Inactive)
REMARK    1  A    between atoms: C_1  and  C_20 
REMARK    2  A    between atoms: N_4  and  C_20 
REMARK       I    between atoms: N_4  and  C_5 
REMARK    3  A    between atoms: C_5  and  C_11 
REMARK       I    between atoms: N_6  and  C_16 
REMARK    4  A    between atoms: N_7  and  C_11 
REMARK    5  A    between atoms: C_10  and  C_18 
REMARK    6  A    between atoms: C_11  and  C_12 
REMARK    7  A    between atoms: C_12  and  C_13 
REMARK    8  A    between atoms: C_13  and  C_14 
REMARK    9  A    between atoms: C_14  and  N_17 
REMARK       I    between atoms: N_15  and  C_16 
REMARK   10  A    between atoms: C_18  and  C_20 
ROOT
HETATM    1  C           1     -13.282   5.441 -20.414  0.00  0.00     0.274 C 
ENDROOT
BRANCH   1   2
HETATM    2  C           1     -12.663   6.777 -20.739  0.00  0.00     0.249 C 
HETATM    3  N           1     -12.568   7.741 -19.771  0.00  0.00    -0.344 N 
HETATM    4  H           1     -12.915   7.557 -18.838  0.00  0.00     0.163 HD
HETATM    5  O           1     -12.250   6.998 -21.852  0.00  0.00    -0.271 OA
BRANCH   3   6
HETATM    6  C           1     -11.974   9.026 -20.083  0.00  0.00     0.189 C 
BRANCH   6   7
HETATM    7  C           1     -10.540   9.043 -19.613  0.00  0.00     0.197 C 
HETATM    8  O           1      -9.638   9.456 -20.373  0.00  0.00    -0.646 OA
HETATM    9  O           1     -10.254   8.642 -18.463  0.00  0.00    -0.646 OA
ENDBRANCH   6   7
BRANCH   6  10
HETATM   10  C           1     -12.752  10.130 -19.377  0.00  0.00     0.014 C 
HETATM   11  C           1     -13.525  10.942 -20.408  0.00  0.00     0.012 C 
BRANCH  10  12
HETATM   12  C           1     -13.726   9.508 -18.385  0.00  0.00     0.002 C 
HETATM   13  C           1     -14.549  10.606 -17.724  0.00  0.00     0.005 C 
ENDBRANCH  10  12
ENDBRANCH   6  10
ENDBRANCH   3   6
ENDBRANCH   1   2
BRANCH   1  14
HETATM   14  N           1     -14.769   5.596 -20.288  0.00  0.00    -0.067 N 
HETATM   15  H           1     -15.052   5.445 -19.293  0.00  0.00     0.275 HD
HETATM   16  H           1     -15.045   6.559 -20.586  0.00  0.00     0.275 HD
HETATM   17  H           1     -15.245   4.893 -20.895  0.00  0.00     0.275 HD
ENDBRANCH   1  14
BRANCH   1  18
HETATM   18  C           1     -12.968   4.451 -21.528  0.00  0.00     0.044 C 
BRANCH  18  19
HETATM   19  C           1     -12.077   3.341 -20.985  0.00  0.00     0.023 C 
BRANCH  19  20
HETATM   20  C           1     -10.636   3.831 -20.926  0.00  0.00     0.138 C 
BRANCH  20  21
HETATM   21  N           1     -10.302   4.206 -19.544  0.00  0.00    -0.227 N 
HETATM   22  C           1      -9.712   5.302 -19.311  0.00  0.00     0.665 C 
HETATM   23  N           1      -9.403   6.096 -20.293  0.00  0.00    -0.235 N 
HETATM   24  N           1      -9.424   5.627 -18.121  0.00  0.00    -0.235 N 
HETATM   25  H           1      -8.917   7.002 -20.101  0.00  0.00     0.174 HD
HETATM   26  H           1      -9.642   5.829 -21.276  0.00  0.00     0.174 HD
HETATM   27  H           1      -8.936   6.535 -17.928  0.00  0.00     0.174 HD
HETATM   28  H           1      -9.674   4.985 -17.328  0.00  0.00     0.174 HD
HETATM   29  H           1     -10.551   3.566 -18.751  0.00  0.00     0.177 HD
ENDBRANCH  20  21
ENDBRANCH  19  20
ENDBRANCH  18  19
ENDBRANCH   1  18
TORSDOF 10
ENDMDL
MODEL 7
REMARK VINA RESULT:      -5.6      2.460      3.671
REMARK  10 active torsions:
REMARK  status: ('A' for Active; 'I' for Inactive)
REMARK    1  A    between atoms: C_1  and  C_20 
REMARK    2  A    between atoms: N_4  and  C_20 
REMARK       I    between atoms: N_4  and  C_5 
REMARK    3  A    between atoms: C_5  and  C_11 
REMARK       I    between atoms: N_6  and  C_16 
REMARK    4  A    between atoms: N_7  and  C_11 
REMARK    5  A    between atoms: C_10  and  C_18 
REMARK    6  A    between atoms: C_11  and  C_12 
REMARK    7  A    between atoms: C_12  and  C_13 
REMARK    8  A    between atoms: C_13  and  C_14 
REMARK    9  A    between atoms: C_14  and  N_17 
REMARK       I    between atoms: N_15  and  C_16 
REMARK   10  A    between atoms: C_18  and  C_20 
ROOT
HETATM    1  C           1     -20.709  -8.785  -4.727  0.00  0.00     0.274 C 
ENDROOT
BRANCH   1   2
HETATM    2  C           1     -21.437  -9.123  -3.450  0.00  0.00     0.249 C 
HETATM    3  N           1     -21.275  -8.338  -2.341  0.00  0.00    -0.344 N 
HETATM    4  H           1     -20.665  -7.530  -2.377  0.00  0.00     0.163 HD
HETATM    5  O           1     -22.164 -10.087  -3.406  0.00  0.00    -0.271 OA
BRANCH   3   6
HETATM    6  C           1     -21.974  -8.663  -1.113  0.00  0.00     0.189 C 
BRANCH   6   7
HETATM    7  C           1     -22.649  -7.424  -0.577  0.00  0.00     0.197 C 
HETATM    8  O           1     -23.548  -7.524   0.285  0.00  0.00    -0.646 OA
HETATM    9  O           1     -22.308  -6.296  -0.996  0.00  0.00    -0.646 OA
ENDBRANCH   6   7
BRANCH   6  10
HETATM   10  C           1     -20.979  -9.184  -0.085  0.00  0.00     0.014 C 
HETATM   11  C           1     -21.250  -8.525   1.261  0.00  0.00     0.012 C 
BRANCH  10  12
HETATM   12  C           1     -21.131 -10.694   0.048  0.00  0.00     0.002 C 
HETATM   13  C           1     -22.607 -11.064  -0.017  0.00  0.00     0.005 C 
ENDBRANCH  10  12
ENDBRANCH   6  10
ENDBRANCH   3   6
ENDBRANCH   1   2
BRANCH   1  14
HETATM   14  N           1     -21.029  -9.813  -5.772  0.00  0.00    -0.067 N 
HETATM   15  H           1     -20.778  -9.440  -6.715  0.00  0.00     0.275 HD
HETATM   16  H           1     -20.482 -10.683  -5.584  0.00  0.00     0.275 HD
HETATM   17  H           1     -22.050 -10.029  -5.745  0.00  0.00     0.275 HD
ENDBRANCH   1  14
BRANCH   1  18
HETATM   18  C           1     -21.148  -7.411  -5.215  0.00  0.00     0.044 C 
BRANCH  18  19
HETATM   19  C           1     -19.976  -6.715  -5.895  0.00  0.00     0.023 C 
BRANCH  19  20
HETATM   20  C           1     -20.421  -5.349  -6.399  0.00  0.00     0.138 C 
BRANCH  20  21
HETATM   21  N           1     -21.865  -5.374  -6.679  0.00  0.00    -0.227 N 
HETATM   22  C           1     -22.436  -4.347  -7.149  0.00  0.00     0.665 C 
HETATM   23  N           1     -21.748  -3.271  -7.385  0.00  0.00    -0.235 N 
HETATM   24  N           1     -23.679  -4.369  -7.390  0.00  0.00    -0.235 N 
HETATM   25  H           1     -22.220  -2.422  -7.774  0.00  0.00     0.174 HD
HETATM   26  H           1     -20.721  -3.252  -7.187  0.00  0.00     0.174 HD
HETATM   27  H           1     -24.154  -3.518  -7.779  0.00  0.00     0.174 HD
HETATM   28  H           1     -24.236  -5.240  -7.198  0.00  0.00     0.174 HD
HETATM   29  H           1     -22.420  -6.243  -6.488  0.00  0.00     0.177 HD
ENDBRANCH  20  21
ENDBRANCH  19  20
ENDBRANCH  18  19
ENDBRANCH   1  18
TORSDOF 10
ENDMDL
MODEL 8
REMARK VINA RESULT:      -5.5      6.271      9.016
REMARK  10 active torsions:
REMARK  status: ('A' for Active; 'I' for Inactive)
REMARK    1  A    between atoms: C_1  and  C_20 
REMARK    2  A    between atoms: N_4  and  C_20 
REMARK       I    between atoms: N_4  and  C_5 
REMARK    3  A    between atoms: C_5  and  C_11 
REMARK       I    between atoms: N_6  and  C_16 
REMARK    4  A    between atoms: N_7  and  C_11 
REMARK    5  A    between atoms: C_10  and  C_18 
REMARK    6  A    between atoms: C_11  and  C_12 
REMARK    7  A    between atoms: C_12  and  C_13 
REMARK    8  A    between atoms: C_13  and  C_14 
REMARK    9  A    between atoms: C_14  and  N_17 
REMARK       I    between atoms: N_15  and  C_16 
REMARK   10  A    between atoms: C_18  and  C_20 
ROOT
HETATM    1  C           1     -19.097 -11.180  -2.503  0.00  0.00     0.274 C 
ENDROOT
BRANCH   1   2
HETATM    2  C           1     -20.068 -10.941  -1.373  0.00  0.00     0.249 C 
HETATM    3  N           1     -21.158 -10.135  -1.566  0.00  0.00    -0.344 N 
HETATM    4  H           1     -21.311  -9.698  -2.466  0.00  0.00     0.163 HD
HETATM    5  O           1     -19.886 -11.462  -0.299  0.00  0.00    -0.271 OA
BRANCH   3   6
HETATM    6  C           1     -22.091  -9.904  -0.480  0.00  0.00     0.189 C 
BRANCH   6   7
HETATM    7  C           1     -23.385 -10.625  -0.770  0.00  0.00     0.197 C 
HETATM    8  O           1     -23.592 -11.106  -1.905  0.00  0.00    -0.646 OA
HETATM    9  O           1     -24.250 -10.740   0.125  0.00  0.00    -0.646 OA
ENDBRANCH   6   7
BRANCH   6  10
HETATM   10  C           1     -22.359  -8.411  -0.350  0.00  0.00     0.014 C 
HETATM   11  C           1     -21.982  -7.949   1.051  0.00  0.00     0.012 C 
BRANCH  10  12
HETATM   12  C           1     -21.525  -7.655  -1.376  0.00  0.00     0.002 C 
HETATM   13  C           1     -22.210  -6.338  -1.718  0.00  0.00     0.005 C 
ENDBRANCH  10  12
ENDBRANCH   6  10
ENDBRANCH   3   6
ENDBRANCH   1   2
BRANCH   1  14
HETATM   14  N           1     -19.853 -11.583  -3.734  0.00  0.00    -0.067 N 
HETATM   15  H           1     -19.181 -11.745  -4.518  0.00  0.00     0.275 HD
HETATM   16  H           1     -20.385 -12.462  -3.544  0.00  0.00     0.275 HD
HETATM   17  H           1     -20.518 -10.823  -3.998  0.00  0.00     0.275 HD
ENDBRANCH   1  14
BRANCH   1  18
HETATM   18  C           1     -18.318  -9.902  -2.782  0.00  0.00     0.044 C 
BRANCH  18  19
HETATM   19  C           1     -16.836 -10.144  -2.521  0.00  0.00     0.023 C 
BRANCH  19  20
HETATM   20  C           1     -16.641 -11.549  -1.966  0.00  0.00     0.138 C 
BRANCH  20  21
HETATM   21  N           1     -16.020 -11.469  -0.635  0.00  0.00    -0.227 N 
HETATM   22  C           1     -16.464 -12.180   0.313  0.00  0.00     0.665 C 
HETATM   23  N           1     -17.468 -12.981   0.112  0.00  0.00    -0.235 N 
HETATM   24  N           1     -15.930 -12.113   1.459  0.00  0.00    -0.235 N 
HETATM   25  H           1     -17.835 -13.568   0.895  0.00  0.00     0.174 HD
HETATM   26  H           1     -17.910 -13.037  -0.835  0.00  0.00     0.174 HD
HETATM   27  H           1     -16.297 -12.702   2.246  0.00  0.00     0.174 HD
HETATM   28  H           1     -15.118 -11.466   1.622  0.00  0.00     0.174 HD
HETATM   29  H           1     -15.210 -10.823  -0.473  0.00  0.00     0.177 HD
ENDBRANCH  20  21
ENDBRANCH  19  20
ENDBRANCH  18  19
ENDBRANCH   1  18
TORSDOF 10
ENDMDL
MODEL 9
REMARK VINA RESULT:      -5.4      2.672      4.027
REMARK  10 active torsions:
REMARK  status: ('A' for Active; 'I' for Inactive)
REMARK    1  A    between atoms: C_1  and  C_20 
REMARK    2  A    between atoms: N_4  and  C_20 
REMARK       I    between atoms: N_4  and  C_5 
REMARK    3  A    between atoms: C_5  and  C_11 
REMARK       I    between atoms: N_6  and  C_16 
REMARK    4  A    between atoms: N_7  and  C_11 
REMARK    5  A    between atoms: C_10  and  C_18 
REMARK    6  A    between atoms: C_11  and  C_12 
REMARK    7  A    between atoms: C_12  and  C_13 
REMARK    8  A    between atoms: C_13  and  C_14 
REMARK    9  A    between atoms: C_14  and  N_17 
REMARK       I    between atoms: N_15  and  C_16 
REMARK   10  A    between atoms: C_18  and  C_20 
ROOT
HETATM    1  C           1     -19.897  -8.205  -4.436  0.00  0.00     0.274 C 
ENDROOT
BRANCH   1   2
HETATM    2  C           1     -20.145  -8.960  -3.154  0.00  0.00     0.249 C 
HETATM    3  N           1     -21.372  -9.518  -2.914  0.00  0.00    -0.344 N 
HETATM    4  H           1     -22.114  -9.422  -3.596  0.00  0.00     0.163 HD
HETATM    5  O           1     -19.261  -9.074  -2.339  0.00  0.00    -0.271 OA
BRANCH   3   6
HETATM    6  C           1     -21.611 -10.243  -1.681  0.00  0.00     0.189 C 
BRANCH   6   7
HETATM    7  C           1     -22.003 -11.664  -2.004  0.00  0.00     0.197 C 
HETATM    8  O           1     -22.871 -11.891  -2.874  0.00  0.00    -0.646 OA
HETATM    9  O           1     -21.460 -12.615  -1.400  0.00  0.00    -0.646 OA
ENDBRANCH   6   7
BRANCH   6  10
HETATM   10  C           1     -22.735  -9.570  -0.906  0.00  0.00     0.014 C 
HETATM   11  C           1     -23.450 -10.605  -0.049  0.00  0.00     0.012 C 
BRANCH  10  12
HETATM   12  C           1     -22.154  -8.483  -0.011  0.00  0.00     0.002 C 
HETATM   13  C           1     -22.415  -7.117  -0.633  0.00  0.00     0.005 C 
ENDBRANCH  10  12
ENDBRANCH   6  10
ENDBRANCH   3   6
ENDBRANCH   1   2
BRANCH   1  14
HETATM   14  N           1     -20.010  -9.145  -5.600  0.00  0.00    -0.067 N 
HETATM   15  H           1     -19.470 -10.016  -5.397  0.00  0.00     0.275 HD
HETATM   16  H           1     -21.015  -9.387  -5.755  0.00  0.00     0.275 HD
HETATM   17  H           1     -19.625  -8.688  -6.455  0.00  0.00     0.275 HD
ENDBRANCH   1  14
BRANCH   1  18
HETATM   18  C           1     -20.929  -7.094  -4.579  0.00  0.00     0.044 C 
BRANCH  18  19
HETATM   19  C           1     -21.035  -6.685  -6.043  0.00  0.00     0.023 C 
BRANCH  19  20
HETATM   20  C           1     -21.176  -5.172  -6.138  0.00  0.00     0.138 C 
BRANCH  20  21
HETATM   21  N           1     -22.536  -4.833  -6.583  0.00  0.00    -0.227 N 
HETATM   22  C           1     -22.717  -4.305  -7.719  0.00  0.00     0.665 C 
HETATM   23  N           1     -21.701  -4.064  -8.494  0.00  0.00    -0.235 N 
HETATM   24  N           1     -23.888  -4.014  -8.103  0.00  0.00    -0.235 N 
HETATM   25  H           1     -21.850  -3.629  -9.433  0.00  0.00     0.174 HD
HETATM   26  H           1     -20.734  -4.305  -8.178  0.00  0.00     0.174 HD
HETATM   27  H           1     -24.039  -3.577  -9.046  0.00  0.00     0.174 HD
HETATM   28  H           1     -24.709  -4.209  -7.477  0.00  0.00     0.174 HD
HETATM   29  H           1     -23.356  -5.028  -5.958  0.00  0.00     0.177 HD
ENDBRANCH  20  21
ENDBRANCH  19  20
ENDBRANCH  18  19
ENDBRANCH   1  18
TORSDOF 10
ENDMDL
