MODEL 1
REMARK VINA RESULT:      -7.0      0.000      0.000
REMARK  9 active torsions:
REMARK  status: ('A' for Active; 'I' for Inactive)
REMARK    1  A    between atoms: C_1  and  C_9 
REMARK    2  A    between atoms: C_1  and  C_18 
REMARK    3  A    between atoms: C_1  and  N_10 
REMARK    4  A    between atoms: C_3  and  C_8 
REMARK    5  A    between atoms: C_6  and  C_7 
REMARK    6  A    between atoms: C_6  and  C_8 
REMARK    7  A    between atoms: C_7  and  C_21 
REMARK    8  A    between atoms: C_8  and  N_12 
REMARK       I    between atoms: C_9  and  N_12 
REMARK    9  A    between atoms: C_18  and  C_25 
ROOT
HETATM    1  C           1     -21.043  -6.053  -5.767  0.00  0.00     0.249 C 
HETATM    2  N           1     -21.169  -7.364  -5.394  0.00  0.00    -0.345 N 
HETATM    3  O           1     -20.142  -5.382  -5.323  0.00  0.00    -0.271 OA
HETATM    4  H           1     -21.925  -7.926  -5.765  0.00  0.00     0.163 HD
ENDROOT
BRANCH   1   5
HETATM    5  C           1     -22.031  -5.445  -6.732  0.00  0.00     0.278 C 
BRANCH   5   6
HETATM    6  C           1     -21.468  -4.142  -7.283  0.00  0.00     0.081 C 
BRANCH   6   7
HETATM    7  C           1     -21.517  -4.169  -8.779  0.00  0.00    -0.056 A 
HETATM    8  C           1     -20.331  -4.181  -9.515  0.00  0.00     0.007 A 
HETATM    9  C           1     -20.376  -4.207 -10.909  0.00  0.00     0.001 A 
HETATM   10  C           1     -21.606  -4.221 -11.567  0.00  0.00     0.000 A 
HETATM   11  C           1     -22.790  -4.211 -10.831  0.00  0.00     0.001 A 
HETATM   12  C           1     -22.745  -4.185  -9.437  0.00  0.00     0.007 A 
ENDBRANCH   6   7
ENDBRANCH   5   6
BRANCH   5  13
HETATM   13  N           1     -23.322  -5.170  -6.020  0.00  0.00    -0.066 N 
HETATM   14  H           1     -23.986  -5.960  -6.183  0.00  0.00     0.275 HD
HETATM   15  H           1     -23.739  -4.284  -6.383  0.00  0.00     0.275 HD
HETATM   16  H           1     -23.140  -5.074  -4.995  0.00  0.00     0.275 HD
ENDBRANCH   5  13
ENDBRANCH   1   5
BRANCH   2  17
HETATM   17  C           1     -20.220  -7.948  -4.466  0.00  0.00     0.186 C 
BRANCH  17  18
HETATM   18  C           1     -19.537  -9.124  -5.119  0.00  0.00     0.196 C 
HETATM   19  O           1     -18.714  -8.935  -6.042  0.00  0.00    -0.646 OA
HETATM   20  O           1     -19.792 -10.287  -4.738  0.00  0.00    -0.646 OA
ENDBRANCH  17  18
BRANCH  17  21
HETATM   21  C           1     -20.954  -8.418  -3.217  0.00  0.00     0.046 C 
BRANCH  21  22
HETATM   22  C           1     -20.796  -7.380  -2.114  0.00  0.00     0.116 C 
BRANCH  22  23
HETATM   23  C           1     -22.100  -6.643  -1.925  0.00  0.00     0.172 C 
HETATM   24  O           1     -22.718  -6.732  -0.843  0.00  0.00    -0.648 OA
HETATM   25  O           1     -22.560  -5.941  -2.852  0.00  0.00    -0.648 OA
ENDBRANCH  22  23
ENDBRANCH  21  22
ENDBRANCH  17  21
ENDBRANCH   2  17
TORSDOF 9
ENDMDL
MODEL 2
REMARK VINA RESULT:      -7.0      3.033      7.475
REMARK  9 active torsions:
REMARK  status: ('A' for Active; 'I' for Inactive)
REMARK    1  A    between atoms: C_1  and  C_9 
REMARK    2  A    between atoms: C_1  and  C_18 
REMARK    3  A    between atoms: C_1  and  N_10 
REMARK    4  A    between atoms: C_3  and  C_8 
REMARK    5  A    between atoms: C_6  and  C_7 
REMARK    6  A    between atoms: C_6  and  C_8 
REMARK    7  A    between atoms: C_7  and  C_21 
REMARK    8  A    between atoms: C_8  and  N_12 
REMARK       I    between atoms: C_9  and  N_12 
REMARK    9  A    between atoms: C_18  and  C_25 
ROOT
HETATM    1  C           1     -21.054  -5.997  -6.397  0.00  0.00     0.249 C 
HETATM    2  N           1     -21.278  -4.808  -7.037  0.00  0.00    -0.345 N 
HETATM    3  O           1     -21.104  -7.034  -7.014  0.00  0.00    -0.271 OA
HETATM    4  H           1     -21.236  -3.939  -6.520  0.00  0.00     0.163 HD
ENDROOT
BRANCH   1   5
HETATM    5  C           1     -20.746  -6.013  -4.920  0.00  0.00     0.278 C 
BRANCH   5   6
HETATM    6  C           1     -22.032  -6.236  -4.134  0.00  0.00     0.081 C 
BRANCH   6   7
HETATM    7  C           1     -21.716  -6.927  -2.845  0.00  0.00    -0.056 A 
HETATM    8  C           1     -22.385  -6.563  -1.677  0.00  0.00     0.007 A 
HETATM    9  C           1     -22.092  -7.206  -0.474  0.00  0.00     0.001 A 
HETATM   10  C           1     -21.128  -8.215  -0.441  0.00  0.00     0.000 A 
HETATM   11  C           1     -20.459  -8.579  -1.609  0.00  0.00     0.001 A 
HETATM   12  C           1     -20.753  -7.935  -2.811  0.00  0.00     0.007 A 
ENDBRANCH   6   7
ENDBRANCH   5   6
BRANCH   5  13
HETATM   13  N           1     -20.139  -4.700  -4.522  0.00  0.00    -0.066 N 
HETATM   14  H           1     -20.265  -4.555  -3.495  0.00  0.00     0.275 HD
HETATM   15  H           1     -20.609  -3.926  -5.042  0.00  0.00     0.275 HD
HETATM   16  H           1     -19.120  -4.705  -4.751  0.00  0.00     0.275 HD
ENDBRANCH   5  13
ENDBRANCH   1   5
BRANCH   2  17
HETATM   17  C           1     -21.574  -4.793  -8.456  0.00  0.00     0.186 C 
BRANCH  17  18
HETATM   18  C           1     -20.332  -4.413  -9.225  0.00  0.00     0.196 C 
HETATM   19  O           1     -20.270  -4.625 -10.456  0.00  0.00    -0.646 OA
HETATM   20  O           1     -19.367  -3.886  -8.632  0.00  0.00    -0.646 OA
ENDBRANCH  17  18
BRANCH  17  21
HETATM   21  C           1     -22.673  -3.777  -8.735  0.00  0.00     0.046 C 
BRANCH  21  22
HETATM   22  C           1     -23.896  -4.491  -9.295  0.00  0.00     0.116 C 
BRANCH  22  23
HETATM   23  C           1     -24.171  -3.996 -10.694  0.00  0.00     0.172 C 
HETATM   24  O           1     -23.483  -4.412 -11.651  0.00  0.00    -0.648 OA
HETATM   25  O           1     -25.089  -3.172 -10.896  0.00  0.00    -0.648 OA
ENDBRANCH  22  23
ENDBRANCH  21  22
ENDBRANCH  17  21
ENDBRANCH   2  17
TORSDOF 9
ENDMDL
MODEL 3
REMARK VINA RESULT:      -6.9     13.633     14.990
REMARK  9 active torsions:
REMARK  status: ('A' for Active; 'I' for Inactive)
REMARK    1  A    between atoms: C_1  and  C_9 
REMARK    2  A    between atoms: C_1  and  C_18 
REMARK    3  A    between atoms: C_1  and  N_10 
REMARK    4  A    between atoms: C_3  and  C_8 
REMARK    5  A    between atoms: C_6  and  C_7 
REMARK    6  A    between atoms: C_6  and  C_8 
REMARK    7  A    between atoms: C_7  and  C_21 
REMARK    8  A    between atoms: C_8  and  N_12 
REMARK       I    between atoms: C_9  and  N_12 
REMARK    9  A    between atoms: C_18  and  C_25 
ROOT
HETATM    1  C           1     -33.805  -4.457 -15.416  0.00  0.00     0.249 C 
HETATM    2  N           1     -33.339  -4.055 -14.194  0.00  0.00    -0.345 N 
HETATM    3  O           1     -34.964  -4.771 -15.547  0.00  0.00    -0.271 OA
HETATM    4  H           1     -32.368  -3.792 -14.083  0.00  0.00     0.163 HD
ENDROOT
BRANCH   1   5
HETATM    5  C           1     -32.871  -4.510 -16.600  0.00  0.00     0.278 C 
BRANCH   5   6
HETATM    6  C           1     -31.431  -4.583 -16.108  0.00  0.00     0.081 C 
BRANCH   6   7
HETATM    7  C           1     -30.627  -5.434 -17.042  0.00  0.00    -0.056 A 
HETATM    8  C           1     -29.442  -4.941 -17.587  0.00  0.00     0.007 A 
HETATM    9  C           1     -28.693  -5.732 -18.458  0.00  0.00     0.001 A 
HETATM   10  C           1     -29.129  -7.018 -18.781  0.00  0.00     0.000 A 
HETATM   11  C           1     -30.313  -7.510 -18.234  0.00  0.00     0.001 A 
HETATM   12  C           1     -31.062  -6.718 -17.365  0.00  0.00     0.007 A 
ENDBRANCH   6   7
ENDBRANCH   5   6
BRANCH   5  13
HETATM   13  N           1     -33.051  -3.276 -17.434  0.00  0.00    -0.066 N 
HETATM   14  H           1     -33.737  -2.639 -16.970  0.00  0.00     0.275 HD
HETATM   15  H           1     -33.408  -3.543 -18.379  0.00  0.00     0.275 HD
HETATM   16  H           1     -32.133  -2.787 -17.534  0.00  0.00     0.275 HD
ENDBRANCH   5  13
ENDBRANCH   1   5
BRANCH   2  17
HETATM   17  C           1     -34.237  -4.005 -13.056  0.00  0.00     0.186 C 
BRANCH  17  18
HETATM   18  C           1     -34.570  -2.567 -12.741  0.00  0.00     0.196 C 
HETATM   19  O           1     -35.384  -1.943 -13.457  0.00  0.00    -0.646 OA
HETATM   20  O           1     -34.033  -2.000 -11.765  0.00  0.00    -0.646 OA
ENDBRANCH  17  18
BRANCH  17  21
HETATM   21  C           1     -33.565  -4.645 -11.849  0.00  0.00     0.046 C 
BRANCH  21  22
HETATM   22  C           1     -34.625  -5.079 -10.846  0.00  0.00     0.116 C 
BRANCH  22  23
HETATM   23  C           1     -34.349  -6.494 -10.401  0.00  0.00     0.172 C 
HETATM   24  O           1     -35.195  -7.111  -9.719  0.00  0.00    -0.648 OA
HETATM   25  O           1     -33.275  -7.050 -10.717  0.00  0.00    -0.648 OA
ENDBRANCH  22  23
ENDBRANCH  21  22
ENDBRANCH  17  21
ENDBRANCH   2  17
TORSDOF 9
ENDMDL
MODEL 4
REMARK VINA RESULT:      -6.9      1.405      2.030
REMARK  9 active torsions:
REMARK  status: ('A' for Active; 'I' for Inactive)
REMARK    1  A    between atoms: C_1  and  C_9 
REMARK    2  A    between atoms: C_1  and  C_18 
REMARK    3  A    between atoms: C_1  and  N_10 
REMARK    4  A    between atoms: C_3  and  C_8 
REMARK    5  A    between atoms: C_6  and  C_7 
REMARK    6  A    between atoms: C_6  and  C_8 
REMARK    7  A    between atoms: C_7  and  C_21 
REMARK    8  A    between atoms: C_8  and  N_12 
REMARK       I    between atoms: C_9  and  N_12 
REMARK    9  A    between atoms: C_18  and  C_25 
ROOT
HETATM    1  C           1     -21.529  -5.624  -5.548  0.00  0.00     0.249 C 
HETATM    2  N           1     -22.179  -6.260  -4.524  0.00  0.00    -0.345 N 
HETATM    3  O           1     -20.337  -5.440  -5.484  0.00  0.00    -0.271 OA
HETATM    4  H           1     -23.178  -6.414  -4.577  0.00  0.00     0.163 HD
ENDROOT
BRANCH   1   5
HETATM    5  C           1     -22.302  -5.153  -6.755  0.00  0.00     0.278 C 
BRANCH   5   6
HETATM    6  C           1     -21.645  -3.901  -7.322  0.00  0.00     0.081 C 
BRANCH   6   7
HETATM    7  C           1     -21.572  -4.009  -8.814  0.00  0.00    -0.056 A 
HETATM    8  C           1     -22.735  -3.908  -9.577  0.00  0.00     0.007 A 
HETATM    9  C           1     -22.669  -4.008 -10.967  0.00  0.00     0.001 A 
HETATM   10  C           1     -21.438  -4.208 -11.593  0.00  0.00     0.000 A 
HETATM   11  C           1     -20.275  -4.308 -10.829  0.00  0.00     0.001 A 
HETATM   12  C           1     -20.343  -4.208  -9.440  0.00  0.00     0.007 A 
ENDBRANCH   6   7
ENDBRANCH   5   6
BRANCH   5  13
HETATM   13  N           1     -23.712  -4.838  -6.353  0.00  0.00    -0.066 N 
HETATM   14  H           1     -23.733  -3.930  -5.836  0.00  0.00     0.275 HD
HETATM   15  H           1     -24.077  -5.598  -5.737  0.00  0.00     0.275 HD
HETATM   16  H           1     -24.309  -4.766  -7.208  0.00  0.00     0.275 HD
ENDBRANCH   5  13
ENDBRANCH   1   5
BRANCH   2  17
HETATM   17  C           1     -21.436  -6.713  -3.364  0.00  0.00     0.186 C 
BRANCH  17  18
HETATM   18  C           1     -20.988  -8.137  -3.579  0.00  0.00     0.196 C 
HETATM   19  O           1     -19.776  -8.432  -3.486  0.00  0.00    -0.646 OA
HETATM   20  O           1     -21.827  -9.023  -3.849  0.00  0.00    -0.646 OA
ENDBRANCH  17  18
BRANCH  17  21
HETATM   21  C           1     -22.328  -6.643  -2.131  0.00  0.00     0.046 C 
BRANCH  21  22
HETATM   22  C           1     -21.635  -7.332  -0.963  0.00  0.00     0.116 C 
BRANCH  22  23
HETATM   23  C           1     -22.598  -8.287  -0.299  0.00  0.00     0.172 C 
HETATM   24  O           1     -23.322  -7.892   0.640  0.00  0.00    -0.648 OA
HETATM   25  O           1     -22.671  -9.472  -0.689  0.00  0.00    -0.648 OA
ENDBRANCH  22  23
ENDBRANCH  21  22
ENDBRANCH  17  21
ENDBRANCH   2  17
TORSDOF 9
ENDMDL
MODEL 5
REMARK VINA RESULT:      -6.5      2.901      7.519
REMARK  9 active torsions:
REMARK  status: ('A' for Active; 'I' for Inactive)
REMARK    1  A    between atoms: C_1  and  C_9 
REMARK    2  A    between atoms: C_1  and  C_18 
REMARK    3  A    between atoms: C_1  and  N_10 
REMARK    4  A    between atoms: C_3  and  C_8 
REMARK    5  A    between atoms: C_6  and  C_7 
REMARK    6  A    between atoms: C_6  and  C_8 
REMARK    7  A    between atoms: C_7  and  C_21 
REMARK    8  A    between atoms: C_8  and  N_12 
REMARK       I    between atoms: C_9  and  N_12 
REMARK    9  A    between atoms: C_18  and  C_25 
ROOT
HETATM    1  C           1     -21.247  -6.348  -5.940  0.00  0.00     0.249 C 
HETATM    2  N           1     -21.420  -5.108  -6.493  0.00  0.00    -0.345 N 
HETATM    3  O           1     -21.209  -7.326  -6.649  0.00  0.00    -0.271 OA
HETATM    4  H           1     -21.453  -4.289  -5.900  0.00  0.00     0.163 HD
ENDROOT
BRANCH   1   5
HETATM    5  C           1     -21.105  -6.494  -4.445  0.00  0.00     0.278 C 
BRANCH   5   6
HETATM    6  C           1     -20.596  -7.892  -4.116  0.00  0.00     0.081 C 
BRANCH   6   7
HETATM    7  C           1     -21.138  -8.321  -2.788  0.00  0.00    -0.056 A 
HETATM    8  C           1     -21.852  -9.514  -2.680  0.00  0.00     0.007 A 
HETATM    9  C           1     -22.358  -9.915  -1.443  0.00  0.00     0.001 A 
HETATM   10  C           1     -22.149  -9.121  -0.314  0.00  0.00     0.000 A 
HETATM   11  C           1     -21.434  -7.928  -0.424  0.00  0.00     0.001 A 
HETATM   12  C           1     -20.929  -7.529  -1.661  0.00  0.00     0.007 A 
ENDBRANCH   6   7
ENDBRANCH   5   6
BRANCH   5  13
HETATM   13  N           1     -22.439  -6.282  -3.793  0.00  0.00    -0.066 N 
HETATM   14  H           1     -22.596  -7.022  -3.073  0.00  0.00     0.275 HD
HETATM   15  H           1     -23.192  -6.332  -4.515  0.00  0.00     0.275 HD
HETATM   16  H           1     -22.456  -5.342  -3.336  0.00  0.00     0.275 HD
ENDBRANCH   5  13
ENDBRANCH   1   5
BRANCH   2  17
HETATM   17  C           1     -21.557  -4.968  -7.930  0.00  0.00     0.186 C 
BRANCH  17  18
HETATM   18  C           1     -20.233  -4.552  -8.523  0.00  0.00     0.196 C 
HETATM   19  O           1     -19.341  -4.076  -7.787  0.00  0.00    -0.646 OA
HETATM   20  O           1     -20.027  -4.686  -9.749  0.00  0.00    -0.646 OA
ENDBRANCH  17  18
BRANCH  17  21
HETATM   21  C           1     -22.605  -3.908  -8.239  0.00  0.00     0.046 C 
BRANCH  21  22
HETATM   22  C           1     -23.650  -4.486  -9.185  0.00  0.00     0.116 C 
BRANCH  22  23
HETATM   23  C           1     -23.846  -3.550 -10.352  0.00  0.00     0.172 C 
HETATM   24  O           1     -22.856  -3.130 -10.990  0.00  0.00    -0.648 OA
HETATM   25  O           1     -24.998  -3.194 -10.682  0.00  0.00    -0.648 OA
ENDBRANCH  22  23
ENDBRANCH  21  22
ENDBRANCH  17  21
ENDBRANCH   2  17
TORSDOF 9
ENDMDL
MODEL 6
REMARK VINA RESULT:      -6.4      1.928      3.155
REMARK  9 active torsions:
REMARK  status: ('A' for Active; 'I' for Inactive)
REMARK    1  A    between atoms: C_1  and  C_9 
REMARK    2  A    between atoms: C_1  and  C_18 
REMARK    3  A    between atoms: C_1  and  N_10 
REMARK    4  A    between atoms: C_3  and  C_8 
REMARK    5  A    between atoms: C_6  and  C_7 
REMARK    6  A    between atoms: C_6  and  C_8 
REMARK    7  A    between atoms: C_7  and  C_21 
REMARK    8  A    between atoms: C_8  and  N_12 
REMARK       I    between atoms: C_9  and  N_12 
REMARK    9  A    between atoms: C_18  and  C_25 
ROOT
HETATM    1  C           1     -21.712  -5.928  -5.375  0.00  0.00     0.249 C 
HETATM    2  N           1     -20.986  -6.727  -4.532  0.00  0.00    -0.345 N 
HETATM    3  O           1     -22.918  -5.971  -5.358  0.00  0.00    -0.271 OA
HETATM    4  H           1     -19.975  -6.692  -4.547  0.00  0.00     0.163 HD
ENDROOT
BRANCH   1   5
HETATM    5  C           1     -21.003  -4.997  -6.327  0.00  0.00     0.278 C 
BRANCH   5   6
HETATM    6  C           1     -20.668  -5.742  -7.613  0.00  0.00     0.081 C 
BRANCH   6   7
HETATM    7  C           1     -21.068  -4.909  -8.791  0.00  0.00    -0.056 A 
HETATM    8  C           1     -22.365  -4.403  -8.878  0.00  0.00     0.007 A 
HETATM    9  C           1     -22.739  -3.626  -9.975  0.00  0.00     0.001 A 
HETATM   10  C           1     -21.815  -3.356 -10.985  0.00  0.00     0.000 A 
HETATM   11  C           1     -20.518  -3.862 -10.897  0.00  0.00     0.001 A 
HETATM   12  C           1     -20.145  -4.638  -9.800  0.00  0.00     0.007 A 
ENDBRANCH   6   7
ENDBRANCH   5   6
BRANCH   5  13
HETATM   13  N           1     -19.737  -4.502  -5.693  0.00  0.00    -0.066 N 
HETATM   14  H           1     -19.962  -3.739  -5.015  0.00  0.00     0.275 HD
HETATM   15  H           1     -19.097  -4.134  -6.432  0.00  0.00     0.275 HD
HETATM   16  H           1     -19.270  -5.289  -5.189  0.00  0.00     0.275 HD
ENDBRANCH   5  13
ENDBRANCH   1   5
BRANCH   2  17
HETATM   17  C           1     -21.667  -7.622  -3.617  0.00  0.00     0.186 C 
BRANCH  17  18
HETATM   18  C           1     -21.678  -7.017  -2.235  0.00  0.00     0.196 C 
HETATM   19  O           1     -22.385  -6.013  -1.998  0.00  0.00    -0.646 OA
HETATM   20  O           1     -20.981  -7.518  -1.327  0.00  0.00    -0.646 OA
ENDBRANCH  17  18
BRANCH  17  21
HETATM   21  C           1     -20.939  -8.959  -3.579  0.00  0.00     0.046 C 
BRANCH  21  22
HETATM   22  C           1     -21.941 -10.090  -3.768  0.00  0.00     0.116 C 
BRANCH  22  23
HETATM   23  C           1     -22.245 -10.722  -2.431  0.00  0.00     0.172 C 
HETATM   24  O           1     -21.350 -10.810  -1.563  0.00  0.00    -0.648 OA
HETATM   25  O           1     -23.393 -11.157  -2.192  0.00  0.00    -0.648 OA
ENDBRANCH  22  23
ENDBRANCH  21  22
ENDBRANCH  17  21
ENDBRANCH   2  17
TORSDOF 9
ENDMDL
MODEL 7
REMARK VINA RESULT:      -6.1      1.619      3.470
REMARK  9 active torsions:
REMARK  status: ('A' for Active; 'I' for Inactive)
REMARK    1  A    between atoms: C_1  and  C_9 
REMARK    2  A    between atoms: C_1  and  C_18 
REMARK    3  A    between atoms: C_1  and  N_10 
REMARK    4  A    between atoms: C_3  and  C_8 
REMARK    5  A    between atoms: C_6  and  C_7 
REMARK    6  A    between atoms: C_6  and  C_8 
REMARK    7  A    between atoms: C_7  and  C_21 
REMARK    8  A    between atoms: C_8  and  N_12 
REMARK       I    between atoms: C_9  and  N_12 
REMARK    9  A    between atoms: C_18  and  C_25 
ROOT
HETATM    1  C           1     -20.804  -6.961  -5.720  0.00  0.00     0.249 C 
HETATM    2  N           1     -20.322  -7.220  -4.466  0.00  0.00    -0.345 N 
HETATM    3  O           1     -21.248  -7.859  -6.394  0.00  0.00    -0.271 OA
HETATM    4  H           1     -19.949  -6.468  -3.900  0.00  0.00     0.163 HD
ENDROOT
BRANCH   1   5
HETATM    5  C           1     -20.780  -5.552  -6.260  0.00  0.00     0.278 C 
BRANCH   5   6
HETATM    6  C           1     -19.945  -5.510  -7.533  0.00  0.00     0.081 C 
BRANCH   6   7
HETATM    7  C           1     -20.719  -4.824  -8.616  0.00  0.00    -0.056 A 
HETATM    8  C           1     -20.134  -4.616  -9.865  0.00  0.00     0.007 A 
HETATM    9  C           1     -20.855  -3.977 -10.875  0.00  0.00     0.001 A 
HETATM   10  C           1     -22.160  -3.546 -10.634  0.00  0.00     0.000 A 
HETATM   11  C           1     -22.743  -3.755  -9.385  0.00  0.00     0.001 A 
HETATM   12  C           1     -22.023  -4.394  -8.376  0.00  0.00     0.007 A 
ENDBRANCH   6   7
ENDBRANCH   5   6
BRANCH   5  13
HETATM   13  N           1     -20.178  -4.634  -5.238  0.00  0.00    -0.066 N 
HETATM   14  H           1     -19.932  -5.180  -4.382  0.00  0.00     0.275 HD
HETATM   15  H           1     -20.867  -3.890  -4.989  0.00  0.00     0.275 HD
HETATM   16  H           1     -19.316  -4.194  -5.630  0.00  0.00     0.275 HD
ENDBRANCH   5  13
ENDBRANCH   1   5
BRANCH   2  17
HETATM   17  C           1     -20.345  -8.574  -3.946  0.00  0.00     0.186 C 
BRANCH  17  18
HETATM   18  C           1     -21.156  -8.611  -2.675  0.00  0.00     0.196 C 
HETATM   19  O           1     -21.908  -9.583  -2.441  0.00  0.00    -0.646 OA
HETATM   20  O           1     -21.077  -7.671  -1.854  0.00  0.00    -0.646 OA
ENDBRANCH  17  18
BRANCH  17  21
HETATM   21  C           1     -18.921  -9.029  -3.652  0.00  0.00     0.046 C 
BRANCH  21  22
HETATM   22  C           1     -18.692 -10.407  -4.258  0.00  0.00     0.116 C 
BRANCH  22  23
HETATM   23  C           1     -18.748 -10.310  -5.764  0.00  0.00     0.172 C 
HETATM   24  O           1     -19.535 -11.038  -6.408  0.00  0.00    -0.648 OA
HETATM   25  O           1     -18.009  -9.502  -6.366  0.00  0.00    -0.648 OA
ENDBRANCH  22  23
ENDBRANCH  21  22
ENDBRANCH  17  21
ENDBRANCH   2  17
TORSDOF 9
ENDMDL
MODEL 8
REMARK VINA RESULT:      -6.0      2.226      4.015
REMARK  9 active torsions:
REMARK  status: ('A' for Active; 'I' for Inactive)
REMARK    1  A    between atoms: C_1  and  C_9 
REMARK    2  A    between atoms: C_1  and  C_18 
REMARK    3  A    between atoms: C_1  and  N_10 
REMARK    4  A    between atoms: C_3  and  C_8 
REMARK    5  A    between atoms: C_6  and  C_7 
REMARK    6  A    between atoms: C_6  and  C_8 
REMARK    7  A    between atoms: C_7  and  C_21 
REMARK    8  A    between atoms: C_8  and  N_12 
REMARK       I    between atoms: C_9  and  N_12 
REMARK    9  A    between atoms: C_18  and  C_25 
ROOT
HETATM    1  C           1     -21.012  -7.795  -4.805  0.00  0.00     0.249 C 
HETATM    2  N           1     -20.361  -8.217  -3.678  0.00  0.00    -0.345 N 
HETATM    3  O           1     -21.071  -8.514  -5.774  0.00  0.00    -0.271 OA
HETATM    4  H           1     -20.309  -7.614  -2.866  0.00  0.00     0.163 HD
ENDROOT
BRANCH   1   5
HETATM    5  C           1     -21.653  -6.429  -4.839  0.00  0.00     0.278 C 
BRANCH   5   6
HETATM    6  C           1     -20.610  -5.387  -5.219  0.00  0.00     0.081 C 
BRANCH   6   7
HETATM    7  C           1     -20.838  -4.942  -6.630  0.00  0.00    -0.056 A 
HETATM    8  C           1     -22.133  -4.683  -7.077  0.00  0.00     0.007 A 
HETATM    9  C           1     -22.347  -4.269  -8.392  0.00  0.00     0.001 A 
HETATM   10  C           1     -21.265  -4.114  -9.259  0.00  0.00     0.000 A 
HETATM   11  C           1     -19.970  -4.373  -8.810  0.00  0.00     0.001 A 
HETATM   12  C           1     -19.757  -4.787  -7.496  0.00  0.00     0.007 A 
ENDBRANCH   6   7
ENDBRANCH   5   6
BRANCH   5  13
HETATM   13  N           1     -22.213  -6.106  -3.486  0.00  0.00    -0.066 N 
HETATM   14  H           1     -22.463  -6.992  -2.992  0.00  0.00     0.275 HD
HETATM   15  H           1     -23.068  -5.515  -3.594  0.00  0.00     0.275 HD
HETATM   16  H           1     -21.498  -5.586  -2.929  0.00  0.00     0.275 HD
ENDBRANCH   5  13
ENDBRANCH   1   5
BRANCH   2  17
HETATM   17  C           1     -19.744  -9.529  -3.645  0.00  0.00     0.186 C 
BRANCH  17  18
HETATM   18  C           1     -20.062 -10.201  -2.332  0.00  0.00     0.196 C 
HETATM   19  O           1     -19.149 -10.738  -1.668  0.00  0.00    -0.646 OA
HETATM   20  O           1     -21.238 -10.220  -1.907  0.00  0.00    -0.646 OA
ENDBRANCH  17  18
BRANCH  17  21
HETATM   21  C           1     -18.235  -9.384  -3.787  0.00  0.00     0.046 C 
BRANCH  21  22
HETATM   22  C           1     -17.703 -10.480  -4.701  0.00  0.00     0.116 C 
BRANCH  22  23
HETATM   23  C           1     -18.065 -10.163  -6.132  0.00  0.00     0.172 C 
HETATM   24  O           1     -18.556 -11.049  -6.864  0.00  0.00    -0.648 OA
HETATM   25  O           1     -17.874  -9.014  -6.585  0.00  0.00    -0.648 OA
ENDBRANCH  22  23
ENDBRANCH  21  22
ENDBRANCH  17  21
ENDBRANCH   2  17
TORSDOF 9
ENDMDL
MODEL 9
REMARK VINA RESULT:      -6.0     11.589     14.488
REMARK  9 active torsions:
REMARK  status: ('A' for Active; 'I' for Inactive)
REMARK    1  A    between atoms: C_1  and  C_9 
REMARK    2  A    between atoms: C_1  and  C_18 
REMARK    3  A    between atoms: C_1  and  N_10 
REMARK    4  A    between atoms: C_3  and  C_8 
REMARK    5  A    between atoms: C_6  and  C_7 
REMARK    6  A    between atoms: C_6  and  C_8 
REMARK    7  A    between atoms: C_7  and  C_21 
REMARK    8  A    between atoms: C_8  and  N_12 
REMARK       I    between atoms: C_9  and  N_12 
REMARK    9  A    between atoms: C_18  and  C_25 
ROOT
HETATM    1  C           1     -27.348  -6.462 -19.749  0.00  0.00     0.249 C 
HETATM    2  N           1     -26.250  -7.106 -19.245  0.00  0.00    -0.345 N 
HETATM    3  O           1     -27.213  -5.605 -20.589  0.00  0.00    -0.271 OA
HETATM    4  H           1     -26.363  -7.824 -18.540  0.00  0.00     0.163 HD
ENDROOT
BRANCH   1   5
HETATM    5  C           1     -28.727  -6.822 -19.254  0.00  0.00     0.278 C 
BRANCH   5   6
HETATM    6  C           1     -28.842  -6.478 -17.775  0.00  0.00     0.081 C 
BRANCH   6   7
HETATM    7  C           1     -29.985  -5.533 -17.570  0.00  0.00    -0.056 A 
HETATM    8  C           1     -31.198  -6.005 -17.068  0.00  0.00     0.007 A 
HETATM    9  C           1     -32.264  -5.126 -16.877  0.00  0.00     0.001 A 
HETATM   10  C           1     -32.116  -3.773 -17.187  0.00  0.00     0.000 A 
HETATM   11  C           1     -30.902  -3.302 -17.688  0.00  0.00     0.001 A 
HETATM   12  C           1     -29.838  -4.182 -17.879  0.00  0.00     0.007 A 
ENDBRANCH   6   7
ENDBRANCH   5   6
BRANCH   5  13
HETATM   13  N           1     -28.958  -8.292 -19.444  0.00  0.00    -0.066 N 
HETATM   14  H           1     -28.680  -8.804 -18.576  0.00  0.00     0.275 HD
HETATM   15  H           1     -28.387  -8.634 -20.249  0.00  0.00     0.275 HD
HETATM   16  H           1     -29.971  -8.462 -19.638  0.00  0.00     0.275 HD
ENDBRANCH   5  13
ENDBRANCH   1   5
BRANCH   2  17
HETATM   17  C           1     -24.924  -6.760 -19.721  0.00  0.00     0.186 C 
BRANCH  17  18
HETATM   18  C           1     -24.435  -7.828 -20.667  0.00  0.00     0.196 C 
HETATM   19  O           1     -23.227  -8.151 -20.674  0.00  0.00    -0.646 OA
HETATM   20  O           1     -25.237  -8.392 -21.442  0.00  0.00    -0.646 OA
ENDBRANCH  17  18
BRANCH  17  21
HETATM   21  C           1     -23.972  -6.656 -18.537  0.00  0.00     0.046 C 
BRANCH  21  22
HETATM   22  C           1     -24.413  -7.619 -17.443  0.00  0.00     0.116 C 
BRANCH  22  23
HETATM   23  C           1     -25.084  -6.847 -16.333  0.00  0.00     0.172 C 
HETATM   24  O           1     -25.091  -7.303 -15.170  0.00  0.00    -0.648 OA
HETATM   25  O           1     -25.633  -5.750 -16.578  0.00  0.00    -0.648 OA
ENDBRANCH  22  23
ENDBRANCH  21  22
ENDBRANCH  17  21
ENDBRANCH   2  17
TORSDOF 9
ENDMDL
