MODEL 1
REMARK VINA RESULT:      -6.1      0.000      0.000
REMARK  8 active torsions:
REMARK  status: ('A' for Active; 'I' for Inactive)
REMARK    1  A    between atoms: O_1  and  C_2 
REMARK    2  A    between atoms: C_2  and  C_3 
REMARK    3  A    between atoms: C_3  and  C_14 
REMARK    4  A    between atoms: C_3  and  N_5 
REMARK       I    between atoms: N_5  and  C_11 
REMARK    5  A    between atoms: C_8  and  C_9 
REMARK    6  A    between atoms: C_9  and  C_10 
REMARK    7  A    between atoms: C_10  and  C_11 
REMARK    8  A    between atoms: C_10  and  N_15 
ROOT
HETATM    1  N           1     -34.977  -0.500 -14.093  0.00  0.00    -0.343 N 
HETATM    2  C           1     -35.395  -1.127 -12.951  0.00  0.00     0.249 C 
HETATM    3  O           1     -36.575  -1.258 -12.729  0.00  0.00    -0.271 OA
HETATM    4  H           1     -33.988  -0.392 -14.279  0.00  0.00     0.163 HD
ENDROOT
BRANCH   2   5
HETATM    5  C           1     -34.381  -1.657 -11.967  0.00  0.00     0.284 C 
BRANCH   5   6
HETATM    6  C           1     -34.164  -3.145 -12.211  0.00  0.00     0.155 C 
BRANCH   6   7
HETATM    7  C           1     -34.726  -3.931 -11.052  0.00  0.00     0.175 C 
HETATM    8  O           1     -33.954  -4.501 -10.250  0.00  0.00    -0.648 OA
HETATM    9  O           1     -35.964  -4.014 -10.896  0.00  0.00    -0.648 OA
ENDBRANCH   6   7
ENDBRANCH   5   6
BRANCH   5  10
HETATM   10  N           1     -34.884  -1.448 -10.569  0.00  0.00    -0.066 N 
HETATM   11  H           1     -35.112  -2.372 -10.138  0.00  0.00     0.275 HD
HETATM   12  H           1     -34.147  -0.971 -10.002  0.00  0.00     0.275 HD
HETATM   13  H           1     -35.744  -0.854 -10.594  0.00  0.00     0.275 HD
ENDBRANCH   5  10
ENDBRANCH   2   5
BRANCH   1  14
HETATM   14  C           1     -35.953   0.009 -15.038  0.00  0.00     0.209 C 
BRANCH  14  15
HETATM   15  C           1     -35.633   1.463 -15.363  0.00  0.00     0.200 C 
BRANCH  15  16
HETATM   16  O           1     -36.657   2.001 -16.154  0.00  0.00    -0.398 OA
HETATM   17  H           1     -37.230   1.290 -16.381  0.00  0.00     0.209 HD
ENDBRANCH  15  16
ENDBRANCH  14  15
BRANCH  14  18
HETATM   18  C           1     -35.903  -0.812 -16.303  0.00  0.00     0.198 C 
HETATM   19  O           1     -34.903  -1.518 -16.552  0.00  0.00    -0.646 OA
HETATM   20  O           1     -36.865  -0.787 -17.102  0.00  0.00    -0.646 OA
ENDBRANCH  14  18
ENDBRANCH   1  14
TORSDOF 8
ENDMDL
MODEL 2
REMARK VINA RESULT:      -6.0     10.407     11.531
REMARK  8 active torsions:
REMARK  status: ('A' for Active; 'I' for Inactive)
REMARK    1  A    between atoms: O_1  and  C_2 
REMARK    2  A    between atoms: C_2  and  C_3 
REMARK    3  A    between atoms: C_3  and  C_14 
REMARK    4  A    between atoms: C_3  and  N_5 
REMARK       I    between atoms: N_5  and  C_11 
REMARK    5  A    between atoms: C_8  and  C_9 
REMARK    6  A    between atoms: C_9  and  C_10 
REMARK    7  A    between atoms: C_10  and  C_11 
REMARK    8  A    between atoms: C_10  and  N_15 
ROOT
HETATM    1  N           1     -27.488  -7.222 -19.108  0.00  0.00    -0.343 N 
HETATM    2  C           1     -28.344  -6.299 -18.571  0.00  0.00     0.249 C 
HETATM    3  O           1     -28.480  -5.221 -19.099  0.00  0.00    -0.271 OA
HETATM    4  H           1     -27.375  -8.126 -18.667  0.00  0.00     0.163 HD
ENDROOT
BRANCH   2   5
HETATM    5  C           1     -29.121  -6.629 -17.320  0.00  0.00     0.284 C 
BRANCH   5   6
HETATM    6  C           1     -28.474  -5.943 -16.124  0.00  0.00     0.155 C 
BRANCH   6   7
HETATM    7  C           1     -27.039  -6.391 -16.002  0.00  0.00     0.175 C 
HETATM    8  O           1     -26.124  -5.704 -16.504  0.00  0.00    -0.648 OA
HETATM    9  O           1     -26.766  -7.452 -15.398  0.00  0.00    -0.648 OA
ENDBRANCH   6   7
ENDBRANCH   5   6
BRANCH   5  10
HETATM   10  N           1     -29.117  -8.114 -17.106  0.00  0.00    -0.066 N 
HETATM   11  H           1     -30.092  -8.480 -17.186  0.00  0.00     0.275 HD
HETATM   12  H           1     -28.514  -8.567 -17.829  0.00  0.00     0.275 HD
HETATM   13  H           1     -28.742  -8.327 -16.154  0.00  0.00     0.275 HD
ENDBRANCH   5  10
ENDBRANCH   2   5
BRANCH   1  14
HETATM   14  C           1     -26.742  -6.905 -20.310  0.00  0.00     0.209 C 
BRANCH  14  15
HETATM   15  C           1     -25.345  -6.430 -19.930  0.00  0.00     0.200 C 
BRANCH  15  16
HETATM   16  O           1     -24.876  -7.179 -18.842  0.00  0.00    -0.398 OA
HETATM   17  H           1     -24.812  -8.072 -19.132  0.00  0.00     0.209 HD
ENDBRANCH  15  16
ENDBRANCH  14  15
BRANCH  14  18
HETATM   18  C           1     -26.636  -8.136 -21.177  0.00  0.00     0.198 C 
HETATM   19  O           1     -25.523  -8.500 -21.611  0.00  0.00    -0.646 OA
HETATM   20  O           1     -27.663  -8.792 -21.458  0.00  0.00    -0.646 OA
ENDBRANCH  14  18
ENDBRANCH   1  14
TORSDOF 8
ENDMDL
MODEL 3
REMARK VINA RESULT:      -5.8      9.502     11.173
REMARK  8 active torsions:
REMARK  status: ('A' for Active; 'I' for Inactive)
REMARK    1  A    between atoms: O_1  and  C_2 
REMARK    2  A    between atoms: C_2  and  C_3 
REMARK    3  A    between atoms: C_3  and  C_14 
REMARK    4  A    between atoms: C_3  and  N_5 
REMARK       I    between atoms: N_5  and  C_11 
REMARK    5  A    between atoms: C_8  and  C_9 
REMARK    6  A    between atoms: C_9  and  C_10 
REMARK    7  A    between atoms: C_10  and  C_11 
REMARK    8  A    between atoms: C_10  and  N_15 
ROOT
HETATM    1  N           1     -26.774  -6.482 -17.654  0.00  0.00    -0.343 N 
HETATM    2  C           1     -27.638  -5.611 -17.046  0.00  0.00     0.249 C 
HETATM    3  O           1     -27.220  -4.787 -16.269  0.00  0.00    -0.271 OA
HETATM    4  H           1     -27.125  -7.171 -18.307  0.00  0.00     0.163 HD
ENDROOT
BRANCH   2   5
HETATM    5  C           1     -29.115  -5.681 -17.348  0.00  0.00     0.284 C 
BRANCH   5   6
HETATM    6  C           1     -29.474  -4.619 -18.380  0.00  0.00     0.155 C 
BRANCH   6   7
HETATM    7  C           1     -30.038  -3.408 -17.680  0.00  0.00     0.175 C 
HETATM    8  O           1     -29.269  -2.529 -17.232  0.00  0.00    -0.648 OA
HETATM    9  O           1     -31.275  -3.283 -17.547  0.00  0.00    -0.648 OA
ENDBRANCH   6   7
ENDBRANCH   5   6
BRANCH   5  10
HETATM   10  N           1     -29.894  -5.437 -16.089  0.00  0.00    -0.066 N 
HETATM   11  H           1     -30.532  -6.246 -15.912  0.00  0.00     0.275 HD
HETATM   12  H           1     -29.233  -5.331 -15.287  0.00  0.00     0.275 HD
HETATM   13  H           1     -30.460  -4.564 -16.194  0.00  0.00     0.275 HD
ENDBRANCH   5  10
ENDBRANCH   2   5
BRANCH   1  14
HETATM   14  C           1     -25.355  -6.414 -17.363  0.00  0.00     0.209 C 
BRANCH  14  15
HETATM   15  C           1     -25.042  -7.295 -16.160  0.00  0.00     0.200 C 
BRANCH  15  16
HETATM   16  O           1     -24.259  -8.385 -16.568  0.00  0.00    -0.398 OA
HETATM   17  H           1     -23.840  -8.724 -15.797  0.00  0.00     0.209 HD
ENDBRANCH  15  16
ENDBRANCH  14  15
BRANCH  14  18
HETATM   18  C           1     -24.573  -6.900 -18.559  0.00  0.00     0.198 C 
HETATM   19  O           1     -23.327  -6.798 -18.574  0.00  0.00    -0.646 OA
HETATM   20  O           1     -25.171  -7.404 -19.534  0.00  0.00    -0.646 OA
ENDBRANCH  14  18
ENDBRANCH   1  14
TORSDOF 8
ENDMDL
MODEL 4
REMARK VINA RESULT:      -5.8     13.045     14.962
REMARK  8 active torsions:
REMARK  status: ('A' for Active; 'I' for Inactive)
REMARK    1  A    between atoms: O_1  and  C_2 
REMARK    2  A    between atoms: C_2  and  C_3 
REMARK    3  A    between atoms: C_3  and  C_14 
REMARK    4  A    between atoms: C_3  and  N_5 
REMARK       I    between atoms: N_5  and  C_11 
REMARK    5  A    between atoms: C_8  and  C_9 
REMARK    6  A    between atoms: C_9  and  C_10 
REMARK    7  A    between atoms: C_10  and  C_11 
REMARK    8  A    between atoms: C_10  and  N_15 
ROOT
HETATM    1  N           1     -22.109  -4.836  -9.096  0.00  0.00    -0.343 N 
HETATM    2  C           1     -21.650  -4.552  -7.838  0.00  0.00     0.249 C 
HETATM    3  O           1     -21.598  -3.408  -7.457  0.00  0.00    -0.271 OA
HETATM    4  H           1     -22.154  -5.795  -9.415  0.00  0.00     0.163 HD
ENDROOT
BRANCH   2   5
HETATM    5  C           1     -21.211  -5.671  -6.926  0.00  0.00     0.284 C 
BRANCH   5   6
HETATM    6  C           1     -20.936  -5.115  -5.535  0.00  0.00     0.155 C 
BRANCH   6   7
HETATM    7  C           1     -21.162  -6.197  -4.507  0.00  0.00     0.175 C 
HETATM    8  O           1     -21.956  -6.004  -3.561  0.00  0.00    -0.648 OA
HETATM    9  O           1     -20.555  -7.286  -4.603  0.00  0.00    -0.648 OA
ENDBRANCH   6   7
ENDBRANCH   5   6
BRANCH   5  10
HETATM   10  N           1     -19.960  -6.297  -7.470  0.00  0.00    -0.066 N 
HETATM   11  H           1     -19.188  -6.195  -6.774  0.00  0.00     0.275 HD
HETATM   12  H           1     -20.132  -7.311  -7.655  0.00  0.00     0.275 HD
HETATM   13  H           1     -19.692  -5.820  -8.360  0.00  0.00     0.275 HD
ENDBRANCH   5  10
ENDBRANCH   2   5
BRANCH   1  14
HETATM   14  C           1     -22.531  -3.760  -9.972  0.00  0.00     0.209 C 
BRANCH  14  15
HETATM   15  C           1     -21.764  -3.845 -11.286  0.00  0.00     0.200 C 
BRANCH  15  16
HETATM   16  O           1     -22.559  -4.476 -12.253  0.00  0.00    -0.398 OA
HETATM   17  H           1     -22.157  -5.307 -12.437  0.00  0.00     0.209 HD
ENDBRANCH  15  16
ENDBRANCH  14  15
BRANCH  14  18
HETATM   18  C           1     -24.011  -3.885 -10.245  0.00  0.00     0.198 C 
HETATM   19  O           1     -24.636  -2.926 -10.746  0.00  0.00    -0.646 OA
HETATM   20  O           1     -24.609  -4.947  -9.970  0.00  0.00    -0.646 OA
ENDBRANCH  14  18
ENDBRANCH   1  14
TORSDOF 8
ENDMDL
MODEL 5
REMARK VINA RESULT:      -5.5      8.564     10.320
REMARK  8 active torsions:
REMARK  status: ('A' for Active; 'I' for Inactive)
REMARK    1  A    between atoms: O_1  and  C_2 
REMARK    2  A    between atoms: C_2  and  C_3 
REMARK    3  A    between atoms: C_3  and  C_14 
REMARK    4  A    between atoms: C_3  and  N_5 
REMARK       I    between atoms: N_5  and  C_11 
REMARK    5  A    between atoms: C_8  and  C_9 
REMARK    6  A    between atoms: C_9  and  C_10 
REMARK    7  A    between atoms: C_10  and  C_11 
REMARK    8  A    between atoms: C_10  and  N_15 
ROOT
HETATM    1  N           1     -27.414  -5.624 -17.438  0.00  0.00    -0.343 N 
HETATM    2  C           1     -28.598  -5.712 -16.756  0.00  0.00     0.249 C 
HETATM    3  O           1     -28.851  -6.699 -16.109  0.00  0.00    -0.271 OA
HETATM    4  H           1     -27.202  -4.795 -17.979  0.00  0.00     0.163 HD
ENDROOT
BRANCH   2   5
HETATM    5  C           1     -29.587  -4.574 -16.812  0.00  0.00     0.284 C 
BRANCH   5   6
HETATM    6  C           1     -30.951  -5.105 -17.235  0.00  0.00     0.155 C 
BRANCH   6   7
HETATM    7  C           1     -31.988  -4.023 -17.062  0.00  0.00     0.175 C 
HETATM    8  O           1     -32.850  -4.121 -16.162  0.00  0.00    -0.648 OA
HETATM    9  O           1     -31.985  -3.028 -17.820  0.00  0.00    -0.648 OA
ENDBRANCH   6   7
ENDBRANCH   5   6
BRANCH   5  10
HETATM   10  N           1     -29.119  -3.553 -17.807  0.00  0.00    -0.066 N 
HETATM   11  H           1     -28.917  -4.021 -18.719  0.00  0.00     0.275 HD
HETATM   12  H           1     -29.863  -2.832 -17.941  0.00  0.00     0.275 HD
HETATM   13  H           1     -28.249  -3.095 -17.451  0.00  0.00     0.275 HD
ENDBRANCH   5  10
ENDBRANCH   2   5
BRANCH   1  14
HETATM   14  C           1     -26.464  -6.718 -17.383  0.00  0.00     0.209 C 
BRANCH  14  15
HETATM   15  C           1     -25.553  -6.659 -18.603  0.00  0.00     0.200 C 
BRANCH  15  16
HETATM   16  O           1     -24.384  -7.391 -18.350  0.00  0.00    -0.398 OA
HETATM   17  H           1     -24.624  -8.301 -18.363  0.00  0.00     0.209 HD
ENDBRANCH  15  16
ENDBRANCH  14  15
BRANCH  14  18
HETATM   18  C           1     -25.634  -6.601 -16.129  0.00  0.00     0.198 C 
HETATM   19  O           1     -25.612  -7.539 -15.304  0.00  0.00    -0.646 OA
HETATM   20  O           1     -24.967  -5.565 -15.915  0.00  0.00    -0.646 OA
ENDBRANCH  14  18
ENDBRANCH   1  14
TORSDOF 8
ENDMDL
MODEL 6
REMARK VINA RESULT:      -5.5     13.068     15.808
REMARK  8 active torsions:
REMARK  status: ('A' for Active; 'I' for Inactive)
REMARK    1  A    between atoms: O_1  and  C_2 
REMARK    2  A    between atoms: C_2  and  C_3 
REMARK    3  A    between atoms: C_3  and  C_14 
REMARK    4  A    between atoms: C_3  and  N_5 
REMARK       I    between atoms: N_5  and  C_11 
REMARK    5  A    between atoms: C_8  and  C_9 
REMARK    6  A    between atoms: C_9  and  C_10 
REMARK    7  A    between atoms: C_10  and  C_11 
REMARK    8  A    between atoms: C_10  and  N_15 
ROOT
HETATM    1  N           1     -21.321  -4.571  -8.287  0.00  0.00    -0.343 N 
HETATM    2  C           1     -20.960  -4.397  -9.596  0.00  0.00     0.249 C 
HETATM    3  O           1     -19.984  -4.957 -10.034  0.00  0.00    -0.271 OA
HETATM    4  H           1     -22.140  -4.102  -7.921  0.00  0.00     0.163 HD
ENDROOT
BRANCH   2   5
HETATM    5  C           1     -21.782  -3.505 -10.493  0.00  0.00     0.284 C 
BRANCH   5   6
HETATM    6  C           1     -23.045  -4.239 -10.922  0.00  0.00     0.155 C 
BRANCH   6   7
HETATM    7  C           1     -24.240  -3.635 -10.228  0.00  0.00     0.175 C 
HETATM    8  O           1     -25.209  -3.217 -10.898  0.00  0.00    -0.648 OA
HETATM    9  O           1     -24.260  -3.550  -8.980  0.00  0.00    -0.648 OA
ENDBRANCH   6   7
ENDBRANCH   5   6
BRANCH   5  10
HETATM   10  N           1     -20.979  -3.140 -11.707  0.00  0.00    -0.066 N 
HETATM   11  H           1     -20.132  -3.751 -11.761  0.00  0.00     0.275 HD
HETATM   12  H           1     -21.562  -3.275 -12.562  0.00  0.00     0.275 HD
HETATM   13  H           1     -20.683  -2.140 -11.640  0.00  0.00     0.275 HD
ENDBRANCH   5  10
ENDBRANCH   2   5
BRANCH   1  14
HETATM   14  C           1     -20.531  -5.428  -7.425  0.00  0.00     0.209 C 
BRANCH  14  15
HETATM   15  C           1     -19.521  -4.584  -6.658  0.00  0.00     0.200 C 
BRANCH  15  16
HETATM   16  O           1     -19.873  -4.551  -5.301  0.00  0.00    -0.398 OA
HETATM   17  H           1     -19.168  -4.124  -4.846  0.00  0.00     0.209 HD
ENDBRANCH  15  16
ENDBRANCH  14  15
BRANCH  14  18
HETATM   18  C           1     -21.439  -6.137  -6.450  0.00  0.00     0.198 C 
HETATM   19  O           1     -22.409  -5.531  -5.947  0.00  0.00    -0.646 OA
HETATM   20  O           1     -21.220  -7.330  -6.147  0.00  0.00    -0.646 OA
ENDBRANCH  14  18
ENDBRANCH   1  14
TORSDOF 8
ENDMDL
MODEL 7
REMARK VINA RESULT:      -5.5      9.904     11.466
REMARK  8 active torsions:
REMARK  status: ('A' for Active; 'I' for Inactive)
REMARK    1  A    between atoms: O_1  and  C_2 
REMARK    2  A    between atoms: C_2  and  C_3 
REMARK    3  A    between atoms: C_3  and  C_14 
REMARK    4  A    between atoms: C_3  and  N_5 
REMARK       I    between atoms: N_5  and  C_11 
REMARK    5  A    between atoms: C_8  and  C_9 
REMARK    6  A    between atoms: C_9  and  C_10 
REMARK    7  A    between atoms: C_10  and  C_11 
REMARK    8  A    between atoms: C_10  and  N_15 
ROOT
HETATM    1  N           1     -26.656  -6.651 -17.251  0.00  0.00    -0.343 N 
HETATM    2  C           1     -27.497  -5.609 -16.971  0.00  0.00     0.249 C 
HETATM    3  O           1     -27.047  -4.549 -16.607  0.00  0.00    -0.271 OA
HETATM    4  H           1     -27.034  -7.539 -17.557  0.00  0.00     0.163 HD
ENDROOT
BRANCH   2   5
HETATM    5  C           1     -28.989  -5.783 -17.116  0.00  0.00     0.284 C 
BRANCH   5   6
HETATM    6  C           1     -29.302  -6.372 -18.485  0.00  0.00     0.155 C 
BRANCH   6   7
HETATM    7  C           1     -30.372  -7.426 -18.347  0.00  0.00     0.175 C 
HETATM    8  O           1     -31.357  -7.224 -17.604  0.00  0.00    -0.648 OA
HETATM    9  O           1     -30.273  -8.503 -18.976  0.00  0.00    -0.648 OA
ENDBRANCH   6   7
ENDBRANCH   5   6
BRANCH   5  10
HETATM   10  N           1     -29.664  -4.449 -16.980  0.00  0.00    -0.066 N 
HETATM   11  H           1     -30.590  -4.573 -16.512  0.00  0.00     0.275 HD
HETATM   12  H           1     -29.065  -3.814 -16.407  0.00  0.00     0.275 HD
HETATM   13  H           1     -29.806  -4.034 -17.929  0.00  0.00     0.275 HD
ENDBRANCH   5  10
ENDBRANCH   2   5
BRANCH   1  14
HETATM   14  C           1     -25.223  -6.483 -17.111  0.00  0.00     0.209 C 
BRANCH  14  15
HETATM   15  C           1     -24.715  -7.378 -15.988  0.00  0.00     0.200 C 
BRANCH  15  16
HETATM   16  O           1     -24.137  -8.533 -16.534  0.00  0.00    -0.398 OA
HETATM   17  H           1     -23.788  -8.292 -17.374  0.00  0.00     0.209 HD
ENDBRANCH  15  16
ENDBRANCH  14  15
BRANCH  14  18
HETATM   18  C           1     -24.543  -6.863 -18.404  0.00  0.00     0.198 C 
HETATM   19  O           1     -23.299  -6.797 -18.498  0.00  0.00    -0.646 OA
HETATM   20  O           1     -25.225  -7.244 -19.379  0.00  0.00    -0.646 OA
ENDBRANCH  14  18
ENDBRANCH   1  14
TORSDOF 8
ENDMDL
MODEL 8
REMARK VINA RESULT:      -5.4      1.979      2.662
REMARK  8 active torsions:
REMARK  status: ('A' for Active; 'I' for Inactive)
REMARK    1  A    between atoms: O_1  and  C_2 
REMARK    2  A    between atoms: C_2  and  C_3 
REMARK    3  A    between atoms: C_3  and  C_14 
REMARK    4  A    between atoms: C_3  and  N_5 
REMARK       I    between atoms: N_5  and  C_11 
REMARK    5  A    between atoms: C_8  and  C_9 
REMARK    6  A    between atoms: C_9  and  C_10 
REMARK    7  A    between atoms: C_10  and  C_11 
REMARK    8  A    between atoms: C_10  and  N_15 
ROOT
HETATM    1  N           1     -34.892  -1.556 -13.525  0.00  0.00    -0.343 N 
HETATM    2  C           1     -34.873  -2.498 -12.532  0.00  0.00     0.249 C 
HETATM    3  O           1     -35.303  -2.229 -11.435  0.00  0.00    -0.271 OA
HETATM    4  H           1     -34.532  -1.782 -14.444  0.00  0.00     0.163 HD
ENDROOT
BRANCH   2   5
HETATM    5  C           1     -34.316  -3.873 -12.806  0.00  0.00     0.284 C 
BRANCH   5   6
HETATM    6  C           1     -33.230  -4.195 -11.788  0.00  0.00     0.155 C 
BRANCH   6   7
HETATM    7  C           1     -33.630  -5.413 -10.994  0.00  0.00     0.175 C 
HETATM    8  O           1     -34.665  -5.391 -10.292  0.00  0.00    -0.648 OA
HETATM    9  O           1     -32.925  -6.446 -11.036  0.00  0.00    -0.648 OA
ENDBRANCH   6   7
ENDBRANCH   5   6
BRANCH   5  10
HETATM   10  N           1     -33.731  -3.909 -14.188  0.00  0.00    -0.066 N 
HETATM   11  H           1     -33.109  -4.743 -14.281  0.00  0.00     0.275 HD
HETATM   12  H           1     -34.503  -3.968 -14.889  0.00  0.00     0.275 HD
HETATM   13  H           1     -33.175  -3.039 -14.352  0.00  0.00     0.275 HD
ENDBRANCH   5  10
ENDBRANCH   2   5
BRANCH   1  14
HETATM   14  C           1     -35.427  -0.235 -13.261  0.00  0.00     0.209 C 
BRANCH  14  15
HETATM   15  C           1     -34.725   0.784 -14.150  0.00  0.00     0.200 C 
BRANCH  15  16
HETATM   16  O           1     -35.682   1.592 -14.781  0.00  0.00    -0.398 OA
HETATM   17  H           1     -36.447   1.587 -14.233  0.00  0.00     0.209 HD
ENDBRANCH  15  16
ENDBRANCH  14  15
BRANCH  14  18
HETATM   18  C           1     -36.907  -0.224 -13.554  0.00  0.00     0.198 C 
HETATM   19  O           1     -37.705   0.261 -12.724  0.00  0.00    -0.646 OA
HETATM   20  O           1     -37.334  -0.700 -14.629  0.00  0.00    -0.646 OA
ENDBRANCH  14  18
ENDBRANCH   1  14
TORSDOF 8
ENDMDL
MODEL 9
REMARK VINA RESULT:      -5.3     12.994     15.930
REMARK  8 active torsions:
REMARK  status: ('A' for Active; 'I' for Inactive)
REMARK    1  A    between atoms: O_1  and  C_2 
REMARK    2  A    between atoms: C_2  and  C_3 
REMARK    3  A    between atoms: C_3  and  C_14 
REMARK    4  A    between atoms: C_3  and  N_5 
REMARK       I    between atoms: N_5  and  C_11 
REMARK    5  A    between atoms: C_8  and  C_9 
REMARK    6  A    between atoms: C_9  and  C_10 
REMARK    7  A    between atoms: C_10  and  C_11 
REMARK    8  A    between atoms: C_10  and  N_15 
ROOT
HETATM    1  N           1     -22.002  -5.316  -7.085  0.00  0.00    -0.343 N 
HETATM    2  C           1     -21.871  -4.046  -7.580  0.00  0.00     0.249 C 
HETATM    3  O           1     -21.247  -3.218  -6.961  0.00  0.00    -0.271 OA
HETATM    4  H           1     -22.524  -6.010  -7.605  0.00  0.00     0.163 HD
ENDROOT
BRANCH   2   5
HETATM    5  C           1     -22.505  -3.681  -8.899  0.00  0.00     0.284 C 
BRANCH   5   6
HETATM    6  C           1     -23.858  -4.369  -9.021  0.00  0.00     0.155 C 
BRANCH   6   7
HETATM    7  C           1     -24.666  -3.702 -10.107  0.00  0.00     0.175 C 
HETATM    8  O           1     -24.363  -3.876 -11.308  0.00  0.00    -0.648 OA
HETATM    9  O           1     -25.637  -2.975  -9.806  0.00  0.00    -0.648 OA
ENDBRANCH   6   7
ENDBRANCH   5   6
BRANCH   5  10
HETATM   10  N           1     -21.615  -4.127 -10.022  0.00  0.00    -0.066 N 
HETATM   11  H           1     -21.025  -4.928  -9.702  0.00  0.00     0.275 HD
HETATM   12  H           1     -22.202  -4.427 -10.832  0.00  0.00     0.275 HD
HETATM   13  H           1     -20.998  -3.334 -10.312  0.00  0.00     0.275 HD
ENDBRANCH   5  10
ENDBRANCH   2   5
BRANCH   1  14
HETATM   14  C           1     -21.392  -5.666  -5.817  0.00  0.00     0.209 C 
BRANCH  14  15
HETATM   15  C           1     -22.426  -6.344  -4.928  0.00  0.00     0.200 C 
BRANCH  15  16
HETATM   16  O           1     -22.107  -6.118  -3.581  0.00  0.00    -0.398 OA
HETATM   17  H           1     -22.571  -5.343  -3.317  0.00  0.00     0.209 HD
ENDBRANCH  15  16
ENDBRANCH  14  15
BRANCH  14  18
HETATM   18  C           1     -20.239  -6.609  -6.057  0.00  0.00     0.198 C 
HETATM   19  O           1     -19.953  -7.476  -5.204  0.00  0.00    -0.646 OA
HETATM   20  O           1     -19.570  -6.522  -7.110  0.00  0.00    -0.646 OA
ENDBRANCH  14  18
ENDBRANCH   1  14
TORSDOF 8
ENDMDL
