MODEL 1
REMARK VINA RESULT:      -6.1      0.000      0.000
REMARK  9 active torsions:
REMARK  status: ('A' for Active; 'I' for Inactive)
REMARK    1  A    between atoms: C_1  and  C_2 
REMARK    2  A    between atoms: C_2  and  C_4 
REMARK    3  A    between atoms: C_2  and  N_17 
REMARK    4  A    between atoms: C_4  and  C_5 
REMARK    5  A    between atoms: C_7  and  C_11 
REMARK    6  A    between atoms: C_7  and  C_8 
REMARK    7  A    between atoms: C_7  and  N_21 
REMARK    8  A    between atoms: C_8  and  C_9 
REMARK    9  A    between atoms: C_9  and  Se_10 
REMARK       I    between atoms: C_11  and  N_17 
ROOT
HETATM    1  C           1     -34.494  -2.416 -11.716  0.00  0.00     0.249 C 
HETATM    2  H           1     -36.107  -2.165 -12.989  0.00  0.00     0.163 HD
HETATM    3  O           1     -33.748  -1.864 -10.943  0.00  0.00    -0.271 OA
HETATM    4  N           1     -35.481  -1.703 -12.341  0.00  0.00    -0.344 N 
ENDROOT
BRANCH   1   5
HETATM    5  C           1     -34.338  -3.890 -11.993  0.00  0.00     0.274 C 
BRANCH   5   6
HETATM    6  C           1     -33.877  -4.601 -10.727  0.00  0.00     0.042 C 
BRANCH   6   7
HETATM    7  C           1     -33.732  -6.091 -11.005  0.00  0.00     0.003 C 
BRANCH   7   8
HETATM    8 Se           1     -34.926  -7.090  -9.831  0.00  0.00     0.000 Se
HETATM    9  C           1     -33.879  -8.732  -9.893  0.00  0.00     0.000 C 
ENDBRANCH   7   8
ENDBRANCH   6   7
ENDBRANCH   5   6
BRANCH   5  10
HETATM   10  N           1     -33.318  -4.090 -13.076  0.00  0.00    -0.067 N 
HETATM   11  H           1     -32.365  -3.881 -12.699  0.00  0.00     0.275 HD
HETATM   12  H           1     -33.527  -3.447 -13.873  0.00  0.00     0.275 HD
HETATM   13  H           1     -33.351  -5.080 -13.408  0.00  0.00     0.275 HD
ENDBRANCH   5  10
ENDBRANCH   1   5
BRANCH   4  14
HETATM   14  C           1     -35.632  -0.285 -12.075  0.00  0.00     0.189 C 
BRANCH  14  15
HETATM   15  C           1     -36.785  -0.073 -11.124  0.00  0.00     0.197 C 
HETATM   16  O           1     -36.670   0.728 -10.172  0.00  0.00    -0.646 OA
HETATM   17  O           1     -37.855  -0.698 -11.290  0.00  0.00    -0.646 OA
ENDBRANCH  14  15
BRANCH  14  18
HETATM   18  C           1     -35.908   0.449 -13.380  0.00  0.00     0.014 C 
HETATM   19  C           1     -34.624   1.107 -13.872  0.00  0.00     0.012 C 
BRANCH  18  20
HETATM   20  C           1     -36.403  -0.541 -14.424  0.00  0.00     0.002 C 
HETATM   21  C           1     -35.602  -0.369 -15.708  0.00  0.00     0.005 C 
ENDBRANCH  18  20
ENDBRANCH  14  18
ENDBRANCH   4  14
TORSDOF 9
ENDMDL
MODEL 2
REMARK VINA RESULT:      -5.9     11.602     12.930
REMARK  9 active torsions:
REMARK  status: ('A' for Active; 'I' for Inactive)
REMARK    1  A    between atoms: C_1  and  C_2 
REMARK    2  A    between atoms: C_2  and  C_4 
REMARK    3  A    between atoms: C_2  and  N_17 
REMARK    4  A    between atoms: C_4  and  C_5 
REMARK    5  A    between atoms: C_7  and  C_11 
REMARK    6  A    between atoms: C_7  and  C_8 
REMARK    7  A    between atoms: C_7  and  N_21 
REMARK    8  A    between atoms: C_8  and  C_9 
REMARK    9  A    between atoms: C_9  and  Se_10 
REMARK       I    between atoms: C_11  and  N_17 
ROOT
HETATM    1  C           1     -25.515  -6.875 -19.104  0.00  0.00     0.249 C 
HETATM    2  H           1     -27.518  -7.278 -18.770  0.00  0.00     0.163 HD
HETATM    3  O           1     -24.532  -6.321 -18.674  0.00  0.00    -0.271 OA
HETATM    4  N           1     -26.694  -6.813 -18.411  0.00  0.00    -0.344 N 
ENDROOT
BRANCH   1   5
HETATM    5  C           1     -25.445  -7.635 -20.405  0.00  0.00     0.274 C 
BRANCH   5   6
HETATM    6  C           1     -24.882  -6.730 -21.493  0.00  0.00     0.042 C 
BRANCH   6   7
HETATM    7  C           1     -23.988  -7.545 -22.419  0.00  0.00     0.003 C 
BRANCH   7   8
HETATM    8 Se           1     -22.685  -8.535 -21.358  0.00  0.00     0.000 Se
HETATM    9  C           1     -21.753  -9.280 -22.899  0.00  0.00     0.000 C 
ENDBRANCH   7   8
ENDBRANCH   6   7
ENDBRANCH   5   6
BRANCH   5  10
HETATM   10  N           1     -26.822  -8.088 -20.795  0.00  0.00    -0.067 N 
HETATM   11  H           1     -26.878  -9.129 -20.724  0.00  0.00     0.275 HD
HETATM   12  H           1     -27.019  -7.793 -21.778  0.00  0.00     0.275 HD
HETATM   13  H           1     -27.525  -7.656 -20.154  0.00  0.00     0.275 HD
ENDBRANCH   5  10
ENDBRANCH   1   5
BRANCH   4  14
HETATM   14  C           1     -26.762  -6.083 -17.160  0.00  0.00     0.189 C 
BRANCH  14  15
HETATM   15  C           1     -26.527  -7.032 -16.010  0.00  0.00     0.197 C 
HETATM   16  O           1     -27.492  -7.433 -15.324  0.00  0.00    -0.646 OA
HETATM   17  O           1     -25.368  -7.419 -15.745  0.00  0.00    -0.646 OA
ENDBRANCH  14  15
BRANCH  14  18
HETATM   18  C           1     -28.138  -5.445 -17.019  0.00  0.00     0.014 C 
HETATM   19  C           1     -27.987  -3.934 -16.901  0.00  0.00     0.012 C 
BRANCH  18  20
HETATM   20  C           1     -28.978  -5.777 -18.245  0.00  0.00     0.002 C 
HETATM   21  C           1     -30.189  -6.599 -17.823  0.00  0.00     0.005 C 
ENDBRANCH  18  20
ENDBRANCH  14  18
ENDBRANCH   4  14
TORSDOF 9
ENDMDL
MODEL 3
REMARK VINA RESULT:      -5.8     10.076     11.441
REMARK  9 active torsions:
REMARK  status: ('A' for Active; 'I' for Inactive)
REMARK    1  A    between atoms: C_1  and  C_2 
REMARK    2  A    between atoms: C_2  and  C_4 
REMARK    3  A    between atoms: C_2  and  N_17 
REMARK    4  A    between atoms: C_4  and  C_5 
REMARK    5  A    between atoms: C_7  and  C_11 
REMARK    6  A    between atoms: C_7  and  C_8 
REMARK    7  A    between atoms: C_7  and  N_21 
REMARK    8  A    between atoms: C_8  and  C_9 
REMARK    9  A    between atoms: C_9  and  Se_10 
REMARK       I    between atoms: C_11  and  N_17 
ROOT
HETATM    1  C           1     -26.512  -6.968 -16.528  0.00  0.00     0.249 C 
HETATM    2  H           1     -27.603  -6.313 -18.160  0.00  0.00     0.163 HD
HETATM    3  O           1     -26.580  -7.418 -15.409  0.00  0.00    -0.271 OA
HETATM    4  N           1     -27.658  -6.690 -17.223  0.00  0.00    -0.344 N 
ENDROOT
BRANCH   1   5
HETATM    5  C           1     -25.166  -6.712 -17.158  0.00  0.00     0.274 C 
BRANCH   5   6
HETATM    6  C           1     -25.303  -6.729 -18.675  0.00  0.00     0.042 C 
BRANCH   6   7
HETATM    7  C           1     -24.063  -7.363 -19.290  0.00  0.00     0.003 C 
BRANCH   7   8
HETATM    8 Se           1     -24.464  -7.945 -21.108  0.00  0.00     0.000 Se
HETATM    9  C           1     -22.645  -8.526 -21.497  0.00  0.00     0.000 C 
ENDBRANCH   7   8
ENDBRANCH   6   7
ENDBRANCH   5   6
BRANCH   5  10
HETATM   10  N           1     -24.203  -7.782 -16.733  0.00  0.00    -0.067 N 
HETATM   11  H           1     -24.574  -8.266 -15.884  0.00  0.00     0.275 HD
HETATM   12  H           1     -23.278  -7.349 -16.513  0.00  0.00     0.275 HD
HETATM   13  H           1     -24.088  -8.475 -17.506  0.00  0.00     0.275 HD
ENDBRANCH   5  10
ENDBRANCH   1   5
BRANCH   4  14
HETATM   14  C           1     -28.953  -6.936 -16.617  0.00  0.00     0.189 C 
BRANCH  14  15
HETATM   15  C           1     -29.892  -7.504 -17.653  0.00  0.00     0.197 C 
HETATM   16  O           1     -29.483  -8.365 -18.461  0.00  0.00    -0.646 OA
HETATM   17  O           1     -31.078  -7.113 -17.702  0.00  0.00    -0.646 OA
ENDBRANCH  14  15
BRANCH  14  18
HETATM   18  C           1     -29.518  -5.628 -16.080  0.00  0.00     0.014 C 
HETATM   19  C           1     -29.363  -5.592 -14.565  0.00  0.00     0.012 C 
BRANCH  18  20
HETATM   20  C           1     -28.762  -4.458 -16.696  0.00  0.00     0.002 C 
HETATM   21  C           1     -29.667  -3.732 -17.682  0.00  0.00     0.005 C 
ENDBRANCH  18  20
ENDBRANCH  14  18
ENDBRANCH   4  14
TORSDOF 9
ENDMDL
MODEL 4
REMARK VINA RESULT:      -5.5     11.155     12.420
REMARK  9 active torsions:
REMARK  status: ('A' for Active; 'I' for Inactive)
REMARK    1  A    between atoms: C_1  and  C_2 
REMARK    2  A    between atoms: C_2  and  C_4 
REMARK    3  A    between atoms: C_2  and  N_17 
REMARK    4  A    between atoms: C_4  and  C_5 
REMARK    5  A    between atoms: C_7  and  C_11 
REMARK    6  A    between atoms: C_7  and  C_8 
REMARK    7  A    between atoms: C_7  and  N_21 
REMARK    8  A    between atoms: C_8  and  C_9 
REMARK    9  A    between atoms: C_9  and  Se_10 
REMARK       I    between atoms: C_11  and  N_17 
ROOT
HETATM    1  C           1     -27.098  -6.602 -19.733  0.00  0.00     0.249 C 
HETATM    2  H           1     -27.365  -7.575 -17.925  0.00  0.00     0.163 HD
HETATM    3  O           1     -27.333  -5.597 -20.360  0.00  0.00    -0.271 OA
HETATM    4  N           1     -27.560  -6.733 -18.451  0.00  0.00    -0.344 N 
ENDROOT
BRANCH   1   5
HETATM    5  C           1     -26.298  -7.715 -20.363  0.00  0.00     0.274 C 
BRANCH   5   6
HETATM    6  C           1     -25.197  -7.121 -21.232  0.00  0.00     0.042 C 
BRANCH   6   7
HETATM    7  C           1     -23.945  -7.982 -21.124  0.00  0.00     0.003 C 
BRANCH   7   8
HETATM    8 Se           1     -23.180  -8.241 -22.899  0.00  0.00     0.000 Se
HETATM    9  C           1     -21.655  -9.278 -22.268  0.00  0.00     0.000 C 
ENDBRANCH   7   8
ENDBRANCH   6   7
ENDBRANCH   5   6
BRANCH   5  10
HETATM   10  N           1     -27.201  -8.561 -21.212  0.00  0.00    -0.067 N 
HETATM   11  H           1     -27.112  -8.269 -22.212  0.00  0.00     0.275 HD
HETATM   12  H           1     -28.190  -8.437 -20.898  0.00  0.00     0.275 HD
HETATM   13  H           1     -26.928  -9.565 -21.117  0.00  0.00     0.275 HD
ENDBRANCH   5  10
ENDBRANCH   1   5
BRANCH   4  14
HETATM   14  C           1     -28.330  -5.663 -17.845  0.00  0.00     0.189 C 
BRANCH  14  15
HETATM   15  C           1     -27.441  -4.866 -16.922  0.00  0.00     0.197 C 
HETATM   16  O           1     -27.789  -3.723 -16.553  0.00  0.00    -0.646 OA
HETATM   17  O           1     -26.357  -5.348 -16.527  0.00  0.00    -0.646 OA
ENDBRANCH  14  15
BRANCH  14  18
HETATM   18  C           1     -29.485  -6.258 -17.050  0.00  0.00     0.014 C 
HETATM   19  C           1     -30.732  -5.407 -17.255  0.00  0.00     0.012 C 
BRANCH  18  20
HETATM   20  C           1     -29.753  -7.677 -17.529  0.00  0.00     0.002 C 
HETATM   21  C           1     -30.889  -7.665 -18.544  0.00  0.00     0.005 C 
ENDBRANCH  18  20
ENDBRANCH  14  18
ENDBRANCH   4  14
TORSDOF 9
ENDMDL
MODEL 5
REMARK VINA RESULT:      -5.3      2.845      6.366
REMARK  9 active torsions:
REMARK  status: ('A' for Active; 'I' for Inactive)
REMARK    1  A    between atoms: C_1  and  C_2 
REMARK    2  A    between atoms: C_2  and  C_4 
REMARK    3  A    between atoms: C_2  and  N_17 
REMARK    4  A    between atoms: C_4  and  C_5 
REMARK    5  A    between atoms: C_7  and  C_11 
REMARK    6  A    between atoms: C_7  and  C_8 
REMARK    7  A    between atoms: C_7  and  N_21 
REMARK    8  A    between atoms: C_8  and  C_9 
REMARK    9  A    between atoms: C_9  and  Se_10 
REMARK       I    between atoms: C_11  and  N_17 
ROOT
HETATM    1  C           1     -35.435  -1.704 -10.748  0.00  0.00     0.249 C 
HETATM    2  H           1     -36.239  -3.145 -11.997  0.00  0.00     0.163 HD
HETATM    3  O           1     -34.531  -1.443  -9.991  0.00  0.00    -0.271 OA
HETATM    4  N           1     -35.482  -2.926 -11.362  0.00  0.00    -0.344 N 
ENDROOT
BRANCH   1   5
HETATM    5  C           1     -36.512  -0.683 -11.017  0.00  0.00     0.274 C 
BRANCH   5   6
HETATM    6  C           1     -36.495  -0.300 -12.491  0.00  0.00     0.042 C 
BRANCH   6   7
HETATM    7  C           1     -35.174   0.383 -12.823  0.00  0.00     0.003 C 
BRANCH   7   8
HETATM    8 Se           1     -35.134   0.832 -14.720  0.00  0.00     0.000 Se
HETATM    9  C           1     -36.918   0.139 -15.089  0.00  0.00     0.000 C 
ENDBRANCH   7   8
ENDBRANCH   6   7
ENDBRANCH   5   6
BRANCH   5  10
HETATM   10  N           1     -36.263   0.539 -10.182  0.00  0.00    -0.067 N 
HETATM   11  H           1     -35.327   0.938 -10.420  0.00  0.00     0.275 HD
HETATM   12  H           1     -36.285   0.278  -9.170  0.00  0.00     0.275 HD
HETATM   13  H           1     -37.003   1.250 -10.375  0.00  0.00     0.275 HD
ENDBRANCH   5  10
ENDBRANCH   1   5
BRANCH   4  14
HETATM   14  C           1     -34.447  -3.908 -11.104  0.00  0.00     0.189 C 
BRANCH  14  15
HETATM   15  C           1     -33.454  -3.902 -12.241  0.00  0.00     0.197 C 
HETATM   16  O           1     -32.289  -4.313 -12.055  0.00  0.00    -0.646 OA
HETATM   17  O           1     -33.798  -3.486 -13.369  0.00  0.00    -0.646 OA
ENDBRANCH  14  15
BRANCH  14  18
HETATM   18  C           1     -35.076  -5.290 -10.987  0.00  0.00     0.014 C 
HETATM   19  C           1     -35.068  -5.969 -12.351  0.00  0.00     0.012 C 
BRANCH  18  20
HETATM   20  C           1     -34.279  -6.128  -9.997  0.00  0.00     0.002 C 
HETATM   21  C           1     -34.691  -7.589 -10.120  0.00  0.00     0.005 C 
ENDBRANCH  18  20
ENDBRANCH  14  18
ENDBRANCH   4  14
TORSDOF 9
ENDMDL
MODEL 6
REMARK VINA RESULT:      -5.3      2.961      5.861
REMARK  9 active torsions:
REMARK  status: ('A' for Active; 'I' for Inactive)
REMARK    1  A    between atoms: C_1  and  C_2 
REMARK    2  A    between atoms: C_2  and  C_4 
REMARK    3  A    between atoms: C_2  and  N_17 
REMARK    4  A    between atoms: C_4  and  C_5 
REMARK    5  A    between atoms: C_7  and  C_11 
REMARK    6  A    between atoms: C_7  and  C_8 
REMARK    7  A    between atoms: C_7  and  N_21 
REMARK    8  A    between atoms: C_8  and  C_9 
REMARK    9  A    between atoms: C_9  and  Se_10 
REMARK       I    between atoms: C_11  and  N_17 
ROOT
HETATM    1  C           1     -35.560  -0.809 -12.933  0.00  0.00     0.249 C 
HETATM    2  H           1     -36.150  -2.527 -11.940  0.00  0.00     0.163 HD
HETATM    3  O           1     -34.678  -0.291 -13.576  0.00  0.00    -0.271 OA
HETATM    4  N           1     -35.412  -2.092 -12.479  0.00  0.00    -0.344 N 
ENDROOT
BRANCH   1   5
HETATM    5  C           1     -36.823  -0.043 -12.631  0.00  0.00     0.274 C 
BRANCH   5   6
HETATM    6  C           1     -37.391  -0.504 -11.294  0.00  0.00     0.042 C 
BRANCH   6   7
HETATM    7  C           1     -37.166   0.579 -10.247  0.00  0.00     0.003 C 
BRANCH   7   8
HETATM    8 Se           1     -37.973   0.028  -8.560  0.00  0.00     0.000 Se
HETATM    9  C           1     -36.719   1.022  -7.447  0.00  0.00     0.000 C 
ENDBRANCH   7   8
ENDBRANCH   6   7
ENDBRANCH   5   6
BRANCH   5  10
HETATM   10  N           1     -37.832  -0.295 -13.714  0.00  0.00    -0.067 N 
HETATM   11  H           1     -37.394  -0.867 -14.470  0.00  0.00     0.275 HD
HETATM   12  H           1     -38.154   0.619 -14.107  0.00  0.00     0.275 HD
HETATM   13  H           1     -38.649  -0.811 -13.316  0.00  0.00     0.275 HD
ENDBRANCH   5  10
ENDBRANCH   1   5
BRANCH   4  14
HETATM   14  C           1     -34.197  -2.829 -12.769  0.00  0.00     0.189 C 
BRANCH  14  15
HETATM   15  C           1     -34.494  -3.907 -13.783  0.00  0.00     0.197 C 
HETATM   16  O           1     -34.995  -4.991 -13.414  0.00  0.00    -0.646 OA
HETATM   17  O           1     -34.240  -3.715 -14.992  0.00  0.00    -0.646 OA
ENDBRANCH  14  15
BRANCH  14  18
HETATM   18  C           1     -33.672  -3.466 -11.490  0.00  0.00     0.014 C 
HETATM   19  C           1     -33.131  -2.380 -10.568  0.00  0.00     0.012 C 
BRANCH  18  20
HETATM   20  C           1     -34.803  -4.208 -10.792  0.00  0.00     0.002 C 
HETATM   21  C           1     -34.281  -5.531 -10.244  0.00  0.00     0.005 C 
ENDBRANCH  18  20
ENDBRANCH  14  18
ENDBRANCH   4  14
TORSDOF 9
ENDMDL
MODEL 7
REMARK VINA RESULT:      -5.2     14.037     16.932
REMARK  9 active torsions:
REMARK  status: ('A' for Active; 'I' for Inactive)
REMARK    1  A    between atoms: C_1  and  C_2 
REMARK    2  A    between atoms: C_2  and  C_4 
REMARK    3  A    between atoms: C_2  and  N_17 
REMARK    4  A    between atoms: C_4  and  C_5 
REMARK    5  A    between atoms: C_7  and  C_11 
REMARK    6  A    between atoms: C_7  and  C_8 
REMARK    7  A    between atoms: C_7  and  N_21 
REMARK    8  A    between atoms: C_8  and  C_9 
REMARK    9  A    between atoms: C_9  and  Se_10 
REMARK       I    between atoms: C_11  and  N_17 
ROOT
HETATM    1  C           1     -21.499  -5.951  -5.510  0.00  0.00     0.249 C 
HETATM    2  H           1     -19.817  -6.802  -4.654  0.00  0.00     0.163 HD
HETATM    3  O           1     -22.706  -5.909  -5.490  0.00  0.00    -0.271 OA
HETATM    4  N           1     -20.829  -6.765  -4.638  0.00  0.00    -0.344 N 
ENDROOT
BRANCH   1   5
HETATM    5  C           1     -20.731  -5.108  -6.496  0.00  0.00     0.274 C 
BRANCH   5   6
HETATM    6  C           1     -21.660  -4.068  -7.110  0.00  0.00     0.042 C 
BRANCH   6   7
HETATM    7  C           1     -21.853  -4.371  -8.590  0.00  0.00     0.003 C 
BRANCH   7   8
HETATM    8 Se           1     -23.663  -3.877  -9.123  0.00  0.00     0.000 Se
HETATM    9  C           1     -23.659  -4.965 -10.739  0.00  0.00     0.000 C 
ENDBRANCH   7   8
ENDBRANCH   6   7
ENDBRANCH   5   6
BRANCH   5  10
HETATM   10  N           1     -20.178  -5.985  -7.581  0.00  0.00    -0.067 N 
HETATM   11  H           1     -20.384  -5.557  -8.512  0.00  0.00     0.275 HD
HETATM   12  H           1     -20.623  -6.929  -7.524  0.00  0.00     0.275 HD
HETATM   13  H           1     -19.145  -6.079  -7.462  0.00  0.00     0.275 HD
ENDBRANCH   5  10
ENDBRANCH   1   5
BRANCH   4  14
HETATM   14  C           1     -21.567  -7.577  -3.689  0.00  0.00     0.189 C 
BRANCH  14  15
HETATM   15  C           1     -21.572  -6.896  -2.342  0.00  0.00     0.197 C 
HETATM   16  O           1     -20.900  -7.369  -1.400  0.00  0.00    -0.646 OA
HETATM   17  O           1     -22.246  -5.858  -2.169  0.00  0.00    -0.646 OA
ENDBRANCH  14  15
BRANCH  14  18
HETATM   18  C           1     -20.904  -8.942  -3.566  0.00  0.00     0.014 C 
HETATM   19  C           1     -21.831 -10.010  -4.134  0.00  0.00     0.012 C 
BRANCH  18  20
HETATM   20  C           1     -19.594  -8.942  -4.341  0.00  0.00     0.002 C 
HETATM   21  C           1     -18.454  -9.340  -3.413  0.00  0.00     0.005 C 
ENDBRANCH  18  20
ENDBRANCH  14  18
ENDBRANCH   4  14
TORSDOF 9
ENDMDL
MODEL 8
REMARK VINA RESULT:      -5.0     15.397     18.667
REMARK  9 active torsions:
REMARK  status: ('A' for Active; 'I' for Inactive)
REMARK    1  A    between atoms: C_1  and  C_2 
REMARK    2  A    between atoms: C_2  and  C_4 
REMARK    3  A    between atoms: C_2  and  N_17 
REMARK    4  A    between atoms: C_4  and  C_5 
REMARK    5  A    between atoms: C_7  and  C_11 
REMARK    6  A    between atoms: C_7  and  C_8 
REMARK    7  A    between atoms: C_7  and  N_21 
REMARK    8  A    between atoms: C_8  and  C_9 
REMARK    9  A    between atoms: C_9  and  Se_10 
REMARK       I    between atoms: C_11  and  N_17 
ROOT
HETATM    1  C           1     -21.336  -7.767  -2.796  0.00  0.00     0.249 C 
HETATM    2  H           1     -22.016  -9.722  -2.786  0.00  0.00     0.163 HD
HETATM    3  O           1     -20.796  -6.904  -2.147  0.00  0.00    -0.271 OA
HETATM    4  N           1     -21.562  -8.998  -2.243  0.00  0.00    -0.344 N 
ENDROOT
BRANCH   1   5
HETATM    5  C           1     -21.764  -7.487  -4.215  0.00  0.00     0.274 C 
BRANCH   5   6
HETATM    6  C           1     -20.535  -7.221  -5.074  0.00  0.00     0.042 C 
BRANCH   6   7
HETATM    7  C           1     -20.511  -5.754  -5.485  0.00  0.00     0.003 C 
BRANCH   7   8
HETATM    8 Se           1     -20.706  -5.619  -7.421  0.00  0.00     0.000 Se
HETATM    9  C           1     -22.257  -4.442  -7.346  0.00  0.00     0.000 C 
ENDBRANCH   7   8
ENDBRANCH   6   7
ENDBRANCH   5   6
BRANCH   5  10
HETATM   10  N           1     -22.660  -6.284  -4.239  0.00  0.00    -0.067 N 
HETATM   11  H           1     -22.087  -5.427  -4.411  0.00  0.00     0.275 HD
HETATM   12  H           1     -23.152  -6.198  -3.321  0.00  0.00     0.275 HD
HETATM   13  H           1     -23.365  -6.389  -5.003  0.00  0.00     0.275 HD
ENDBRANCH   5  10
ENDBRANCH   1   5
BRANCH   4  14
HETATM   14  C           1     -21.151  -9.268  -0.878  0.00  0.00     0.189 C 
BRANCH  14  15
HETATM   15  C           1     -20.231 -10.464  -0.858  0.00  0.00     0.197 C 
HETATM   16  O           1     -19.699 -10.861  -1.917  0.00  0.00    -0.646 OA
HETATM   17  O           1     -20.001 -11.058   0.218  0.00  0.00    -0.646 OA
ENDBRANCH  14  15
BRANCH  14  18
HETATM   18  C           1     -22.380  -9.557  -0.026  0.00  0.00     0.014 C 
HETATM   19  C           1     -23.044  -8.243   0.367  0.00  0.00     0.012 C 
BRANCH  18  20
HETATM   20  C           1     -23.361 -10.405  -0.823  0.00  0.00     0.002 C 
HETATM   21  C           1     -23.815 -11.587   0.024  0.00  0.00     0.005 C 
ENDBRANCH  18  20
ENDBRANCH  14  18
ENDBRANCH   4  14
TORSDOF 9
ENDMDL
MODEL 9
REMARK VINA RESULT:      -4.8     14.489     17.563
REMARK  9 active torsions:
REMARK  status: ('A' for Active; 'I' for Inactive)
REMARK    1  A    between atoms: C_1  and  C_2 
REMARK    2  A    between atoms: C_2  and  C_4 
REMARK    3  A    between atoms: C_2  and  N_17 
REMARK    4  A    between atoms: C_4  and  C_5 
REMARK    5  A    between atoms: C_7  and  C_11 
REMARK    6  A    between atoms: C_7  and  C_8 
REMARK    7  A    between atoms: C_7  and  N_21 
REMARK    8  A    between atoms: C_8  and  C_9 
REMARK    9  A    between atoms: C_9  and  Se_10 
REMARK       I    between atoms: C_11  and  N_17 
ROOT
HETATM    1  C           1     -20.492  -6.908  -5.754  0.00  0.00     0.249 C 
HETATM    2  H           1     -21.664  -7.359  -4.109  0.00  0.00     0.163 HD
HETATM    3  O           1     -19.596  -7.292  -6.466  0.00  0.00    -0.271 OA
HETATM    4  N           1     -20.913  -7.681  -4.706  0.00  0.00    -0.344 N 
ENDROOT
BRANCH   1   5
HETATM    5  C           1     -21.146  -5.574  -6.018  0.00  0.00     0.274 C 
BRANCH   5   6
HETATM    6  C           1     -21.386  -5.412  -7.513  0.00  0.00     0.042 C 
BRANCH   6   7
HETATM    7  C           1     -22.447  -4.343  -7.744  0.00  0.00     0.003 C 
BRANCH   7   8
HETATM    8 Se           1     -22.580  -3.962  -9.651  0.00  0.00     0.000 Se
HETATM    9  C           1     -24.445  -3.403  -9.575  0.00  0.00     0.000 C 
ENDBRANCH   7   8
ENDBRANCH   6   7
ENDBRANCH   5   6
BRANCH   5  10
HETATM   10  N           1     -20.248  -4.473  -5.534  0.00  0.00    -0.067 N 
HETATM   11  H           1     -19.253  -4.791  -5.578  0.00  0.00     0.275 HD
HETATM   12  H           1     -20.495  -4.231  -4.548  0.00  0.00     0.275 HD
HETATM   13  H           1     -20.371  -3.631  -6.141  0.00  0.00     0.275 HD
ENDBRANCH   5  10
ENDBRANCH   1   5
BRANCH   4  14
HETATM   14  C           1     -20.285  -8.964  -4.452  0.00  0.00     0.189 C 
BRANCH  14  15
HETATM   15  C           1     -21.174 -10.069  -4.968  0.00  0.00     0.197 C 
HETATM   16  O           1     -21.083 -10.438  -6.159  0.00  0.00    -0.646 OA
HETATM   17  O           1     -21.999 -10.615  -4.205  0.00  0.00    -0.646 OA
ENDBRANCH  14  15
BRANCH  14  18
HETATM   18  C           1     -20.075  -9.137  -2.954  0.00  0.00     0.014 C 
HETATM   19  C           1     -18.596  -9.366  -2.672  0.00  0.00     0.012 C 
BRANCH  18  20
HETATM   20  C           1     -20.543  -7.884  -2.228  0.00  0.00     0.002 C 
HETATM   21  C           1     -21.478  -8.275  -1.090  0.00  0.00     0.005 C 
ENDBRANCH  18  20
ENDBRANCH  14  18
ENDBRANCH   4  14
TORSDOF 9
ENDMDL
