MODEL 1
REMARK VINA RESULT:      -6.6      0.000      0.000
REMARK  9 active torsions:
REMARK  status: ('A' for Active; 'I' for Inactive)
REMARK       I    between atoms: N_1  and  C_13 
REMARK    1  A    between atoms: N_3  and  C_22 
REMARK    2  A    between atoms: C_5  and  C_16 
REMARK    3  A    between atoms: C_5  and  C_6 
REMARK    4  A    between atoms: C_5  and  N_24 
REMARK    5  A    between atoms: C_13  and  C_18 
REMARK    6  A    between atoms: C_16  and  C_20 
REMARK    7  A    between atoms: C_18  and  C_19 
REMARK    8  A    between atoms: C_19  and  C_22 
REMARK    9  A    between atoms: C_22  and  C_23 
REMARK       I    between atoms: C_23  and  N_24 
ROOT
HETATM    1  C           1     -34.239  -4.140 -12.179  0.00  0.00     0.275 C 
ENDROOT
BRANCH   1   2
HETATM    2  N           1     -32.848  -4.419 -12.663  0.00  0.00    -0.066 N 
HETATM    3  H           1     -32.818  -5.361 -13.117  0.00  0.00     0.275 HD
HETATM    4  H           1     -32.568  -3.690 -13.358  0.00  0.00     0.275 HD
HETATM    5  H           1     -32.187  -4.403 -11.853  0.00  0.00     0.275 HD
ENDBRANCH   1   2
BRANCH   1   6
HETATM    6  C           1     -34.527  -4.987 -10.946  0.00  0.00     0.052 C 
BRANCH   6   7
HETATM    7  C           1     -33.569  -6.170 -10.907  0.00  0.00     0.105 C 
BRANCH   7   8
HETATM    8  C           1     -34.241  -7.341 -10.233  0.00  0.00     0.215 C 
HETATM    9  N           1     -33.704  -8.595 -10.343  0.00  0.00    -0.370 N 
HETATM   10  H           1     -34.155  -9.380  -9.891  0.00  0.00     0.159 HD
HETATM   11  H           1     -32.857  -8.737 -10.877  0.00  0.00     0.159 HD
HETATM   12  O           1     -35.254  -7.171  -9.596  0.00  0.00    -0.274 OA
ENDBRANCH   7   8
ENDBRANCH   6   7
ENDBRANCH   1   6
BRANCH   1  13
HETATM   13  C           1     -34.365  -2.679 -11.826  0.00  0.00     0.249 C 
HETATM   14  O           1     -33.609  -2.184 -11.025  0.00  0.00    -0.271 OA
HETATM   15  N           1     -35.335  -1.913 -12.415  0.00  0.00    -0.344 N 
HETATM   16  H           1     -35.967  -2.328 -13.088  0.00  0.00     0.163 HD
BRANCH  15  17
HETATM   17  C           1     -35.455  -0.508 -12.077  0.00  0.00     0.189 C 
BRANCH  17  18
HETATM   18  C           1     -35.716   0.298 -13.343  0.00  0.00     0.014 C 
HETATM   19  C           1     -34.510   1.181 -13.637  0.00  0.00     0.012 C 
BRANCH  18  20
HETATM   20  C           1     -35.946  -0.652 -14.510  0.00  0.00     0.002 C 
HETATM   21  C           1     -36.374   0.143 -15.737  0.00  0.00     0.005 C 
ENDBRANCH  18  20
ENDBRANCH  17  18
BRANCH  17  22
HETATM   22  C           1     -36.603  -0.320 -11.116  0.00  0.00     0.197 C 
HETATM   23  O           1     -36.542   0.564 -10.234  0.00  0.00    -0.646 OA
HETATM   24  O           1     -37.615  -1.048 -11.200  0.00  0.00    -0.646 OA
ENDBRANCH  17  22
ENDBRANCH  15  17
ENDBRANCH   1  13
TORSDOF 9
ENDMDL
MODEL 2
REMARK VINA RESULT:      -6.4      9.911     11.382
REMARK  9 active torsions:
REMARK  status: ('A' for Active; 'I' for Inactive)
REMARK       I    between atoms: N_1  and  C_13 
REMARK    1  A    between atoms: N_3  and  C_22 
REMARK    2  A    between atoms: C_5  and  C_16 
REMARK    3  A    between atoms: C_5  and  C_6 
REMARK    4  A    between atoms: C_5  and  N_24 
REMARK    5  A    between atoms: C_13  and  C_18 
REMARK    6  A    between atoms: C_16  and  C_20 
REMARK    7  A    between atoms: C_18  and  C_19 
REMARK    8  A    between atoms: C_19  and  C_22 
REMARK    9  A    between atoms: C_22  and  C_23 
REMARK       I    between atoms: C_23  and  N_24 
ROOT
HETATM    1  C           1     -25.190  -6.726 -17.144  0.00  0.00     0.275 C 
ENDROOT
BRANCH   1   2
HETATM    2  N           1     -24.224  -7.783 -16.698  0.00  0.00    -0.066 N 
HETATM    3  H           1     -24.741  -8.537 -16.191  0.00  0.00     0.275 HD
HETATM    4  H           1     -23.745  -8.191 -17.532  0.00  0.00     0.275 HD
HETATM    5  H           1     -23.514  -7.359 -16.059  0.00  0.00     0.275 HD
ENDBRANCH   1   2
BRANCH   1   6
HETATM    6  C           1     -25.330  -6.776 -18.660  0.00  0.00     0.052 C 
BRANCH   6   7
HETATM    7  C           1     -23.993  -7.155 -19.282  0.00  0.00     0.105 C 
BRANCH   7   8
HETATM    8  C           1     -24.229  -7.994 -20.514  0.00  0.00     0.215 C 
HETATM    9  N           1     -23.202  -8.716 -21.059  0.00  0.00    -0.370 N 
HETATM   10  H           1     -23.360  -9.278 -21.885  0.00  0.00     0.159 HD
HETATM   11  H           1     -22.283  -8.686 -20.636  0.00  0.00     0.159 HD
HETATM   12  O           1     -25.326  -8.028 -21.020  0.00  0.00    -0.274 OA
ENDBRANCH   7   8
ENDBRANCH   6   7
ENDBRANCH   1   6
BRANCH   1  13
HETATM   13  C           1     -26.535  -6.973 -16.507  0.00  0.00     0.249 C 
HETATM   14  O           1     -26.599  -7.409 -15.383  0.00  0.00    -0.271 OA
HETATM   15  N           1     -27.682  -6.701 -17.202  0.00  0.00    -0.344 N 
HETATM   16  H           1     -27.627  -6.335 -18.144  0.00  0.00     0.163 HD
BRANCH  15  17
HETATM   17  C           1     -28.975  -6.937 -16.590  0.00  0.00     0.189 C 
BRANCH  17  18
HETATM   18  C           1     -29.534  -5.622 -16.063  0.00  0.00     0.014 C 
HETATM   19  C           1     -29.385  -5.579 -14.548  0.00  0.00     0.012 C 
BRANCH  18  20
HETATM   20  C           1     -28.767  -4.461 -16.681  0.00  0.00     0.002 C 
HETATM   21  C           1     -29.704  -3.642 -17.560  0.00  0.00     0.005 C 
ENDBRANCH  18  20
ENDBRANCH  17  18
BRANCH  17  22
HETATM   22  C           1     -29.920  -7.509 -17.618  0.00  0.00     0.197 C 
HETATM   23  O           1     -31.095  -7.086 -17.691  0.00  0.00    -0.646 OA
HETATM   24  O           1     -29.530  -8.406 -18.396  0.00  0.00    -0.646 OA
ENDBRANCH  17  22
ENDBRANCH  15  17
ENDBRANCH   1  13
TORSDOF 9
ENDMDL
MODEL 3
REMARK VINA RESULT:      -6.4     11.304     12.778
REMARK  9 active torsions:
REMARK  status: ('A' for Active; 'I' for Inactive)
REMARK       I    between atoms: N_1  and  C_13 
REMARK    1  A    between atoms: N_3  and  C_22 
REMARK    2  A    between atoms: C_5  and  C_16 
REMARK    3  A    between atoms: C_5  and  C_6 
REMARK    4  A    between atoms: C_5  and  N_24 
REMARK    5  A    between atoms: C_13  and  C_18 
REMARK    6  A    between atoms: C_16  and  C_20 
REMARK    7  A    between atoms: C_18  and  C_19 
REMARK    8  A    between atoms: C_19  and  C_22 
REMARK    9  A    between atoms: C_22  and  C_23 
REMARK       I    between atoms: C_23  and  N_24 
ROOT
HETATM    1  C           1     -25.648  -7.598 -20.132  0.00  0.00     0.275 C 
ENDROOT
BRANCH   1   2
HETATM    2  N           1     -27.014  -7.624 -20.749  0.00  0.00    -0.066 N 
HETATM    3  H           1     -27.716  -7.923 -20.034  0.00  0.00     0.275 HD
HETATM    4  H           1     -27.258  -6.669 -21.095  0.00  0.00     0.275 HD
HETATM    5  H           1     -27.024  -8.298 -21.548  0.00  0.00     0.275 HD
ENDBRANCH   1   2
BRANCH   1   6
HETATM    6  C           1     -24.683  -6.883 -21.069  0.00  0.00     0.052 C 
BRANCH   6   7
HETATM    7  C           1     -24.297  -7.814 -22.210  0.00  0.00     0.105 C 
BRANCH   7   8
HETATM    8  C           1     -22.914  -8.366 -21.965  0.00  0.00     0.215 C 
HETATM    9  N           1     -22.443  -8.492 -20.686  0.00  0.00    -0.370 N 
HETATM   10  H           1     -21.516  -8.862 -20.522  0.00  0.00     0.159 HD
HETATM   11  H           1     -23.022  -8.214 -19.905  0.00  0.00     0.159 HD
HETATM   12  O           1     -22.222  -8.697 -22.899  0.00  0.00    -0.274 OA
ENDBRANCH   7   8
ENDBRANCH   6   7
ENDBRANCH   1   6
BRANCH   1  13
HETATM   13  C           1     -25.706  -6.866 -18.814  0.00  0.00     0.249 C 
HETATM   14  O           1     -24.691  -6.446 -18.311  0.00  0.00    -0.271 OA
HETATM   15  N           1     -26.909  -6.677 -18.188  0.00  0.00    -0.344 N 
HETATM   16  H           1     -27.759  -7.028 -18.610  0.00  0.00     0.163 HD
BRANCH  15  17
HETATM   17  C           1     -26.965  -5.973 -16.922  0.00  0.00     0.189 C 
BRANCH  17  18
HETATM   18  C           1     -28.323  -5.300 -16.776  0.00  0.00     0.014 C 
HETATM   19  C           1     -28.148  -3.788 -16.839  0.00  0.00     0.012 C 
BRANCH  18  20
HETATM   20  C           1     -29.237  -5.753 -17.906  0.00  0.00     0.002 C 
HETATM   21  C           1     -30.451  -6.465 -17.325  0.00  0.00     0.005 C 
ENDBRANCH  18  20
ENDBRANCH  17  18
BRANCH  17  22
HETATM   22  C           1     -26.766  -6.954 -15.793  0.00  0.00     0.197 C 
HETATM   23  O           1     -27.757  -7.437 -15.202  0.00  0.00    -0.646 OA
HETATM   24  O           1     -25.611  -7.285 -15.448  0.00  0.00    -0.646 OA
ENDBRANCH  17  22
ENDBRANCH  15  17
ENDBRANCH   1  13
TORSDOF 9
ENDMDL
MODEL 4
REMARK VINA RESULT:      -6.2     13.323     16.157
REMARK  9 active torsions:
REMARK  status: ('A' for Active; 'I' for Inactive)
REMARK       I    between atoms: N_1  and  C_13 
REMARK    1  A    between atoms: N_3  and  C_22 
REMARK    2  A    between atoms: C_5  and  C_16 
REMARK    3  A    between atoms: C_5  and  C_6 
REMARK    4  A    between atoms: C_5  and  N_24 
REMARK    5  A    between atoms: C_13  and  C_18 
REMARK    6  A    between atoms: C_16  and  C_20 
REMARK    7  A    between atoms: C_18  and  C_19 
REMARK    8  A    between atoms: C_19  and  C_22 
REMARK    9  A    between atoms: C_22  and  C_23 
REMARK       I    between atoms: C_23  and  N_24 
ROOT
HETATM    1  C           1     -22.097  -4.435  -7.164  0.00  0.00     0.275 C 
ENDROOT
BRANCH   1   2
HETATM    2  N           1     -21.645  -3.006  -7.165  0.00  0.00    -0.066 N 
HETATM    3  H           1     -22.181  -2.470  -7.886  0.00  0.00     0.275 HD
HETATM    4  H           1     -21.816  -2.586  -6.223  0.00  0.00     0.275 HD
HETATM    5  H           1     -20.625  -2.963  -7.387  0.00  0.00     0.275 HD
ENDBRANCH   1   2
BRANCH   1   6
HETATM    6  C           1     -22.093  -4.970  -8.591  0.00  0.00     0.052 C 
BRANCH   6   7
HETATM    7  C           1     -22.512  -3.864  -9.549  0.00  0.00     0.105 C 
BRANCH   7   8
HETATM    8  C           1     -23.761  -4.281 -10.286  0.00  0.00     0.215 C 
HETATM    9  N           1     -24.926  -4.484  -9.597  0.00  0.00    -0.370 N 
HETATM   10  H           1     -25.763  -4.764 -10.092  0.00  0.00     0.159 HD
HETATM   11  H           1     -24.950  -4.356  -8.594  0.00  0.00     0.159 HD
HETATM   12  O           1     -23.732  -4.434 -11.484  0.00  0.00    -0.274 OA
ENDBRANCH   7   8
ENDBRANCH   6   7
ENDBRANCH   1   6
BRANCH   1  13
HETATM   13  C           1     -21.160  -5.258  -6.316  0.00  0.00     0.249 C 
HETATM   14  O           1     -19.971  -5.047  -6.350  0.00  0.00    -0.271 OA
HETATM   15  N           1     -21.656  -6.245  -5.506  0.00  0.00    -0.344 N 
HETATM   16  H           1     -22.652  -6.421  -5.478  0.00  0.00     0.163 HD
BRANCH  15  17
HETATM   17  C           1     -20.756  -7.035  -4.690  0.00  0.00     0.189 C 
BRANCH  17  18
HETATM   18  C           1     -21.466  -7.453  -3.410  0.00  0.00     0.014 C 
HETATM   19  C           1     -20.503  -8.240  -2.530  0.00  0.00     0.012 C 
BRANCH  18  20
HETATM   20  C           1     -21.938  -6.212  -2.664  0.00  0.00     0.002 C 
HETATM   21  C           1     -22.270  -6.580  -1.223  0.00  0.00     0.005 C 
ENDBRANCH  18  20
ENDBRANCH  17  18
BRANCH  17  22
HETATM   22  C           1     -20.334  -8.265  -5.456  0.00  0.00     0.197 C 
HETATM   23  O           1     -21.194  -9.088  -5.840  0.00  0.00    -0.646 OA
HETATM   24  O           1     -19.125  -8.462  -5.707  0.00  0.00    -0.646 OA
ENDBRANCH  17  22
ENDBRANCH  15  17
ENDBRANCH   1  13
TORSDOF 9
ENDMDL
MODEL 5
REMARK VINA RESULT:      -6.1     13.915     16.756
REMARK  9 active torsions:
REMARK  status: ('A' for Active; 'I' for Inactive)
REMARK       I    between atoms: N_1  and  C_13 
REMARK    1  A    between atoms: N_3  and  C_22 
REMARK    2  A    between atoms: C_5  and  C_16 
REMARK    3  A    between atoms: C_5  and  C_6 
REMARK    4  A    between atoms: C_5  and  N_24 
REMARK    5  A    between atoms: C_13  and  C_18 
REMARK    6  A    between atoms: C_16  and  C_20 
REMARK    7  A    between atoms: C_18  and  C_19 
REMARK    8  A    between atoms: C_19  and  C_22 
REMARK    9  A    between atoms: C_22  and  C_23 
REMARK       I    between atoms: C_23  and  N_24 
ROOT
HETATM    1  C           1     -20.405  -5.106  -6.399  0.00  0.00     0.275 C 
ENDROOT
BRANCH   1   2
HETATM    2  N           1     -19.956  -5.950  -7.554  0.00  0.00    -0.066 N 
HETATM    3  H           1     -18.912  -5.951  -7.602  0.00  0.00     0.275 HD
HETATM    4  H           1     -20.298  -6.929  -7.424  0.00  0.00     0.275 HD
HETATM    5  H           1     -20.344  -5.560  -8.443  0.00  0.00     0.275 HD
ENDBRANCH   1   2
BRANCH   1   6
HETATM    6  C           1     -21.194  -3.912  -6.920  0.00  0.00     0.052 C 
BRANCH   6   7
HETATM    7  C           1     -21.371  -4.038  -8.427  0.00  0.00     0.105 C 
BRANCH   7   8
HETATM    8  C           1     -22.831  -3.885  -8.778  0.00  0.00     0.215 C 
HETATM    9  N           1     -23.792  -4.139  -7.837  0.00  0.00    -0.370 N 
HETATM   10  H           1     -24.770  -4.036  -8.073  0.00  0.00     0.159 HD
HETATM   11  H           1     -23.524  -4.430  -6.906  0.00  0.00     0.159 HD
HETATM   12  O           1     -23.151  -3.538  -9.890  0.00  0.00    -0.274 OA
ENDBRANCH   7   8
ENDBRANCH   6   7
ENDBRANCH   1   6
BRANCH   1  13
HETATM   13  C           1     -21.280  -5.929  -5.486  0.00  0.00     0.249 C 
HETATM   14  O           1     -22.482  -5.838  -5.559  0.00  0.00    -0.271 OA
HETATM   15  N           1     -20.713  -6.779  -4.575  0.00  0.00    -0.344 N 
HETATM   16  H           1     -19.705  -6.855  -4.515  0.00  0.00     0.163 HD
BRANCH  15  17
HETATM   17  C           1     -21.554  -7.570  -3.699  0.00  0.00     0.189 C 
BRANCH  17  18
HETATM   18  C           1     -20.935  -8.949  -3.511  0.00  0.00     0.014 C 
HETATM   19  C           1     -21.827  -9.996  -4.164  0.00  0.00     0.012 C 
BRANCH  18  20
HETATM   20  C           1     -19.558  -8.979  -4.159  0.00  0.00     0.002 C 
HETATM   21  C           1     -18.515  -9.372  -3.121  0.00  0.00     0.005 C 
ENDBRANCH  18  20
ENDBRANCH  17  18
BRANCH  17  22
HETATM   22  C           1     -21.668  -6.883  -2.359  0.00  0.00     0.197 C 
HETATM   23  O           1     -22.362  -5.849  -2.244  0.00  0.00    -0.646 OA
HETATM   24  O           1     -21.069  -7.347  -1.365  0.00  0.00    -0.646 OA
ENDBRANCH  17  22
ENDBRANCH  15  17
ENDBRANCH   1  13
TORSDOF 9
ENDMDL
MODEL 6
REMARK VINA RESULT:      -5.8     12.547     14.124
REMARK  9 active torsions:
REMARK  status: ('A' for Active; 'I' for Inactive)
REMARK       I    between atoms: N_1  and  C_13 
REMARK    1  A    between atoms: N_3  and  C_22 
REMARK    2  A    between atoms: C_5  and  C_16 
REMARK    3  A    between atoms: C_5  and  C_6 
REMARK    4  A    between atoms: C_5  and  N_24 
REMARK    5  A    between atoms: C_13  and  C_18 
REMARK    6  A    between atoms: C_16  and  C_20 
REMARK    7  A    between atoms: C_18  and  C_19 
REMARK    8  A    between atoms: C_19  and  C_22 
REMARK    9  A    between atoms: C_22  and  C_23 
REMARK       I    between atoms: C_23  and  N_24 
ROOT
HETATM    1  C           1     -21.526  -5.854  -6.980  0.00  0.00     0.275 C 
ENDROOT
BRANCH   1   2
HETATM    2  N           1     -20.162  -6.365  -7.334  0.00  0.00    -0.066 N 
HETATM    3  H           1     -19.616  -5.607  -7.804  0.00  0.00     0.275 HD
HETATM    4  H           1     -19.665  -6.662  -6.464  0.00  0.00     0.275 HD
HETATM    5  H           1     -20.252  -7.180  -7.981  0.00  0.00     0.275 HD
ENDBRANCH   1   2
BRANCH   1   6
HETATM    6  C           1     -21.571  -5.517  -5.495  0.00  0.00     0.052 C 
BRANCH   6   7
HETATM    7  C           1     -22.200  -6.673  -4.730  0.00  0.00     0.105 C 
BRANCH   7   8
HETATM    8  C           1     -21.754  -6.627  -3.289  0.00  0.00     0.215 C 
HETATM    9  N           1     -22.412  -5.828  -2.394  0.00  0.00    -0.370 N 
HETATM   10  H           1     -22.112  -5.797  -1.428  0.00  0.00     0.159 HD
HETATM   11  H           1     -23.196  -5.266  -2.698  0.00  0.00     0.159 HD
HETATM   12  O           1     -20.816  -7.297  -2.926  0.00  0.00    -0.274 OA
ENDBRANCH   7   8
ENDBRANCH   6   7
ENDBRANCH   1   6
BRANCH   1  13
HETATM   13  C           1     -21.824  -4.614  -7.786  0.00  0.00     0.249 C 
HETATM   14  O           1     -21.556  -3.525  -7.340  0.00  0.00    -0.271 OA
HETATM   15  N           1     -22.397  -4.724  -9.024  0.00  0.00    -0.344 N 
HETATM   16  H           1     -22.621  -5.637  -9.398  0.00  0.00     0.163 HD
BRANCH  15  17
HETATM   17  C           1     -22.683  -3.533  -9.800  0.00  0.00     0.189 C 
BRANCH  17  18
HETATM   18  C           1     -21.892  -3.573 -11.101  0.00  0.00     0.014 C 
HETATM   19  C           1     -20.941  -2.385 -11.152  0.00  0.00     0.012 C 
BRANCH  18  20
HETATM   20  C           1     -21.092  -4.867 -11.168  0.00  0.00     0.002 C 
HETATM   21  C           1     -19.671  -4.612 -10.684  0.00  0.00     0.005 C 
ENDBRANCH  18  20
ENDBRANCH  17  18
BRANCH  17  22
HETATM   22  C           1     -24.159  -3.478 -10.110  0.00  0.00     0.197 C 
HETATM   23  O           1     -24.941  -2.899  -9.324  0.00  0.00    -0.646 OA
HETATM   24  O           1     -24.600  -4.011 -11.151  0.00  0.00    -0.646 OA
ENDBRANCH  17  22
ENDBRANCH  15  17
ENDBRANCH   1  13
TORSDOF 9
ENDMDL
MODEL 7
REMARK VINA RESULT:      -5.6     11.386     12.689
REMARK  9 active torsions:
REMARK  status: ('A' for Active; 'I' for Inactive)
REMARK       I    between atoms: N_1  and  C_13 
REMARK    1  A    between atoms: N_3  and  C_22 
REMARK    2  A    between atoms: C_5  and  C_16 
REMARK    3  A    between atoms: C_5  and  C_6 
REMARK    4  A    between atoms: C_5  and  N_24 
REMARK    5  A    between atoms: C_13  and  C_18 
REMARK    6  A    between atoms: C_16  and  C_20 
REMARK    7  A    between atoms: C_18  and  C_19 
REMARK    8  A    between atoms: C_19  and  C_22 
REMARK    9  A    between atoms: C_22  and  C_23 
REMARK       I    between atoms: C_23  and  N_24 
ROOT
HETATM    1  C           1     -25.762  -6.842 -20.796  0.00  0.00     0.275 C 
ENDROOT
BRANCH   1   2
HETATM    2  N           1     -25.258  -5.507 -21.256  0.00  0.00    -0.066 N 
HETATM    3  H           1     -24.284  -5.608 -21.621  0.00  0.00     0.275 HD
HETATM    4  H           1     -25.877  -5.145 -22.016  0.00  0.00     0.275 HD
HETATM    5  H           1     -25.261  -4.838 -20.453  0.00  0.00     0.275 HD
ENDBRANCH   1   2
BRANCH   1   6
HETATM    6  C           1     -24.589  -7.801 -20.639  0.00  0.00     0.052 C 
BRANCH   6   7
HETATM    7  C           1     -23.965  -8.069 -22.002  0.00  0.00     0.105 C 
BRANCH   7   8
HETATM    8  C           1     -22.553  -8.569 -21.822  0.00  0.00     0.215 C 
HETATM    9  N           1     -21.985  -8.581 -20.577  0.00  0.00    -0.370 N 
HETATM   10  H           1     -21.038  -8.916 -20.456  0.00  0.00     0.159 HD
HETATM   11  H           1     -22.511  -8.252 -19.778  0.00  0.00     0.159 HD
HETATM   12  O           1     -21.925  -8.961 -22.776  0.00  0.00    -0.274 OA
ENDBRANCH   7   8
ENDBRANCH   6   7
ENDBRANCH   1   6
BRANCH   1  13
HETATM   13  C           1     -26.464  -6.685 -19.470  0.00  0.00     0.249 C 
HETATM   14  O           1     -25.823  -6.465 -18.470  0.00  0.00    -0.271 OA
HETATM   15  N           1     -27.827  -6.791 -19.399  0.00  0.00    -0.344 N 
HETATM   16  H           1     -28.364  -6.975 -20.237  0.00  0.00     0.163 HD
BRANCH  15  17
HETATM   17  C           1     -28.501  -6.639 -18.124  0.00  0.00     0.189 C 
BRANCH  17  18
HETATM   18  C           1     -29.248  -5.311 -18.101  0.00  0.00     0.014 C 
HETATM   19  C           1     -30.558  -5.481 -17.344  0.00  0.00     0.012 C 
BRANCH  18  20
HETATM   20  C           1     -28.392  -4.262 -17.405  0.00  0.00     0.002 C 
HETATM   21  C           1     -29.168  -2.955 -17.308  0.00  0.00     0.005 C 
ENDBRANCH  18  20
ENDBRANCH  17  18
BRANCH  17  22
HETATM   22  C           1     -29.482  -7.771 -17.938  0.00  0.00     0.197 C 
HETATM   23  O           1     -29.573  -8.343 -16.830  0.00  0.00    -0.646 OA
HETATM   24  O           1     -30.204  -8.137 -18.890  0.00  0.00    -0.646 OA
ENDBRANCH  17  22
ENDBRANCH  15  17
ENDBRANCH   1  13
TORSDOF 9
ENDMDL
MODEL 8
REMARK VINA RESULT:      -5.5      1.478      2.029
REMARK  9 active torsions:
REMARK  status: ('A' for Active; 'I' for Inactive)
REMARK       I    between atoms: N_1  and  C_13 
REMARK    1  A    between atoms: N_3  and  C_22 
REMARK    2  A    between atoms: C_5  and  C_16 
REMARK    3  A    between atoms: C_5  and  C_6 
REMARK    4  A    between atoms: C_5  and  N_24 
REMARK    5  A    between atoms: C_13  and  C_18 
REMARK    6  A    between atoms: C_16  and  C_20 
REMARK    7  A    between atoms: C_18  and  C_19 
REMARK    8  A    between atoms: C_19  and  C_22 
REMARK    9  A    between atoms: C_22  and  C_23 
REMARK       I    between atoms: C_23  and  N_24 
ROOT
HETATM    1  C           1     -34.177  -3.823 -12.675  0.00  0.00     0.275 C 
ENDROOT
BRANCH   1   2
HETATM    2  N           1     -33.478  -4.157 -13.959  0.00  0.00    -0.066 N 
HETATM    3  H           1     -34.134  -4.668 -14.592  0.00  0.00     0.275 HD
HETATM    4  H           1     -33.165  -3.275 -14.424  0.00  0.00     0.275 HD
HETATM    5  H           1     -32.648  -4.760 -13.758  0.00  0.00     0.275 HD
ENDBRANCH   1   2
BRANCH   1   6
HETATM    6  C           1     -33.244  -4.098 -11.503  0.00  0.00     0.052 C 
BRANCH   6   7
HETATM    7  C           1     -33.978  -4.913 -10.448  0.00  0.00     0.105 C 
BRANCH   7   8
HETATM    8  C           1     -34.130  -6.336 -10.925  0.00  0.00     0.215 C 
HETATM    9  N           1     -33.134  -7.246 -10.694  0.00  0.00    -0.370 N 
HETATM   10  H           1     -33.236  -8.200 -11.014  0.00  0.00     0.159 HD
HETATM   11  H           1     -32.294  -6.963 -10.205  0.00  0.00     0.159 HD
HETATM   12  O           1     -35.132  -6.673 -11.509  0.00  0.00    -0.274 OA
ENDBRANCH   7   8
ENDBRANCH   6   7
ENDBRANCH   1   6
BRANCH   1  13
HETATM   13  C           1     -34.565  -2.365 -12.679  0.00  0.00     0.249 C 
HETATM   14  O           1     -34.339  -1.678 -11.712  0.00  0.00    -0.271 OA
HETATM   15  N           1     -35.174  -1.821 -13.778  0.00  0.00    -0.344 N 
HETATM   16  H           1     -35.363  -2.398 -14.588  0.00  0.00     0.163 HD
BRANCH  15  17
HETATM   17  C           1     -35.546  -0.420 -13.782  0.00  0.00     0.189 C 
BRANCH  17  18
HETATM   18  C           1     -35.382   0.145 -15.187  0.00  0.00     0.014 C 
HETATM   19  C           1     -35.465  -0.989 -16.201  0.00  0.00     0.012 C 
BRANCH  18  20
HETATM   20  C           1     -36.489   1.153 -15.460  0.00  0.00     0.002 C 
HETATM   21  C           1     -35.900   2.388 -16.128  0.00  0.00     0.005 C 
ENDBRANCH  18  20
ENDBRANCH  17  18
BRANCH  17  22
HETATM   22  C           1     -36.985  -0.282 -13.349  0.00  0.00     0.197 C 
HETATM   23  O           1     -37.891  -0.842 -14.004  0.00  0.00    -0.646 OA
HETATM   24  O           1     -37.272   0.392 -12.336  0.00  0.00    -0.646 OA
ENDBRANCH  17  22
ENDBRANCH  15  17
ENDBRANCH   1  13
TORSDOF 9
ENDMDL
MODEL 9
REMARK VINA RESULT:      -5.5      1.852      2.906
REMARK  9 active torsions:
REMARK  status: ('A' for Active; 'I' for Inactive)
REMARK       I    between atoms: N_1  and  C_13 
REMARK    1  A    between atoms: N_3  and  C_22 
REMARK    2  A    between atoms: C_5  and  C_16 
REMARK    3  A    between atoms: C_5  and  C_6 
REMARK    4  A    between atoms: C_5  and  N_24 
REMARK    5  A    between atoms: C_13  and  C_18 
REMARK    6  A    between atoms: C_16  and  C_20 
REMARK    7  A    between atoms: C_18  and  C_19 
REMARK    8  A    between atoms: C_19  and  C_22 
REMARK    9  A    between atoms: C_22  and  C_23 
REMARK       I    between atoms: C_23  and  N_24 
ROOT
HETATM    1  C           1     -33.622  -4.148 -11.978  0.00  0.00     0.275 C 
ENDROOT
BRANCH   1   2
HETATM    2  N           1     -32.234  -3.612 -11.792  0.00  0.00    -0.066 N 
HETATM    3  H           1     -31.924  -3.132 -12.667  0.00  0.00     0.275 HD
HETATM    4  H           1     -32.228  -2.929 -11.000  0.00  0.00     0.275 HD
HETATM    5  H           1     -31.582  -4.400 -11.578  0.00  0.00     0.275 HD
ENDBRANCH   1   2
BRANCH   1   6
HETATM    6  C           1     -34.229  -4.467 -10.618  0.00  0.00     0.052 C 
BRANCH   6   7
HETATM    7  C           1     -35.197  -5.635 -10.754  0.00  0.00     0.105 C 
BRANCH   7   8
HETATM    8  C           1     -34.462  -6.930 -10.508  0.00  0.00     0.215 C 
HETATM    9  N           1     -33.168  -7.074 -10.928  0.00  0.00    -0.370 N 
HETATM   10  H           1     -32.676  -7.942 -10.764  0.00  0.00     0.159 HD
HETATM   11  H           1     -32.703  -6.311 -11.405  0.00  0.00     0.159 HD
HETATM   12  O           1     -35.018  -7.840  -9.940  0.00  0.00    -0.274 OA
ENDBRANCH   7   8
ENDBRANCH   6   7
ENDBRANCH   1   6
BRANCH   1  13
HETATM   13  C           1     -34.470  -3.114 -12.677  0.00  0.00     0.249 C 
HETATM   14  O           1     -34.730  -3.238 -13.849  0.00  0.00    -0.271 OA
HETATM   15  N           1     -34.944  -2.034 -11.981  0.00  0.00    -0.344 N 
HETATM   16  H           1     -34.726  -1.930 -10.999  0.00  0.00     0.163 HD
BRANCH  15  17
HETATM   17  C           1     -35.760  -1.040 -12.652  0.00  0.00     0.189 C 
BRANCH  17  18
HETATM   18  C           1     -36.649  -0.341 -11.632  0.00  0.00     0.014 C 
HETATM   19  C           1     -38.074  -0.275 -12.164  0.00  0.00     0.012 C 
BRANCH  18  20
HETATM   20  C           1     -36.630  -1.121 -10.325  0.00  0.00     0.002 C 
HETATM   21  C           1     -36.899  -0.174  -9.163  0.00  0.00     0.005 C 
ENDBRANCH  18  20
ENDBRANCH  17  18
BRANCH  17  22
HETATM   22  C           1     -34.865  -0.025 -13.320  0.00  0.00     0.197 C 
HETATM   23  O           1     -34.666  -0.082 -14.553  0.00  0.00    -0.646 OA
HETATM   24  O           1     -34.322   0.873 -12.641  0.00  0.00    -0.646 OA
ENDBRANCH  17  22
ENDBRANCH  15  17
ENDBRANCH   1  13
TORSDOF 9
ENDMDL
