MODEL 1
REMARK VINA RESULT:      -7.5      0.000      0.000
REMARK  10 active torsions:
REMARK  status: ('A' for Active; 'I' for Inactive)
REMARK    1  A    between atoms: O_2  and  C_16 
REMARK    2  A    between atoms: O_2  and  P_7 
REMARK    3  A    between atoms: N_6  and  C_22 
REMARK    4  A    between atoms: P_7  and  O_9 
REMARK    5  A    between atoms: C_14  and  C_27 
REMARK    6  A    between atoms: C_14  and  C_16 
REMARK    7  A    between atoms: C_14  and  N_19 
REMARK       I    between atoms: N_19  and  C_21 
REMARK    8  A    between atoms: C_20  and  C_22 
REMARK    9  A    between atoms: C_20  and  C_25 
REMARK   10  A    between atoms: C_21  and  C_22 
ROOT
HETATM    1  O           1     -33.621  -2.350 -10.998  0.00  0.00    -0.271 OA
HETATM    2  N           1     -34.939  -1.852 -12.732  0.00  0.00    -0.343 N 
HETATM    3  C           1     -34.202  -2.733 -11.986  0.00  0.00     0.249 C 
HETATM    4  H           1     -35.425  -2.173 -13.559  0.00  0.00     0.163 HD
ENDROOT
BRANCH   3   5
HETATM    5  C           1     -34.115  -4.181 -12.399  0.00  0.00     0.280 C 
BRANCH   5   6
HETATM    6  N           1     -33.666  -4.268 -13.828  0.00  0.00    -0.066 N 
HETATM    7  H           1     -34.475  -4.533 -14.433  0.00  0.00     0.275 HD
HETATM    8  H           1     -33.294  -3.340 -14.131  0.00  0.00     0.275 HD
HETATM    9  H           1     -32.916  -4.990 -13.914  0.00  0.00     0.275 HD
ENDBRANCH   5   6
BRANCH   5  10
HETATM   10  C           1     -33.114  -4.905 -11.509  0.00  0.00     0.101 C 
BRANCH  10  11
HETATM   11  C           1     -33.795  -6.038 -10.807  0.00  0.00     0.028 A 
HETATM   12  N           1     -33.322  -7.325 -10.763  0.00  0.00    -0.355 N 
HETATM   13  C           1     -34.205  -7.994 -10.059  0.00  0.00     0.180 A 
ATOM     14  HN          1     -32.467  -7.685 -11.186  1.00  0.00     0.166 HD
HETATM   15  N           1     -35.229  -7.191  -9.646  0.00  0.00    -0.360 N 
HETATM   16  C           1     -34.980  -5.932 -10.119  0.00  0.00     0.114 A 
HETATM   17  H           1     -36.056  -7.485  -9.070  0.00  0.00     0.166 HD
ENDBRANCH  10  11
ENDBRANCH   5  10
ENDBRANCH   3   5
BRANCH   2  18
HETATM   18  C           1     -35.022  -0.460 -12.335  0.00  0.00     0.210 C 
BRANCH  18  19
HETATM   19  C           1     -36.275  -0.243 -11.522  0.00  0.00     0.198 C 
HETATM   20  O           1     -37.336  -0.822 -11.842  0.00  0.00    -0.646 OA
HETATM   21  O           1     -36.252   0.514 -10.529  0.00  0.00    -0.646 OA
ENDBRANCH  18  19
BRANCH  18  22
HETATM   22  C           1     -35.064   0.420 -13.576  0.00  0.00     0.217 C 
BRANCH  22  23
HETATM   23  O           1     -35.133  -0.388 -14.720  0.00  0.00    -0.287 OA
BRANCH  23  24
HETATM   24  P           1     -36.395  -0.130 -15.695  0.00  0.00     0.406 P 
HETATM   25  O           1     -37.614  -0.713 -15.090  0.00  0.00    -0.624 OA
HETATM   26  O           1     -36.144  -0.767 -17.007  0.00  0.00    -0.624 OA
BRANCH  24  27
HETATM   27  O           1     -36.602   1.459 -15.898  0.00  0.00    -0.300 OA
HETATM   28  H           1     -37.226   1.709 -15.240  0.00  0.00     0.223 HD
ENDBRANCH  24  27
ENDBRANCH  23  24
ENDBRANCH  22  23
ENDBRANCH  18  22
ENDBRANCH   2  18
TORSDOF 10
ENDMDL
MODEL 2
REMARK VINA RESULT:      -6.4      2.047      3.533
REMARK  10 active torsions:
REMARK  status: ('A' for Active; 'I' for Inactive)
REMARK    1  A    between atoms: O_2  and  C_16 
REMARK    2  A    between atoms: O_2  and  P_7 
REMARK    3  A    between atoms: N_6  and  C_22 
REMARK    4  A    between atoms: P_7  and  O_9 
REMARK    5  A    between atoms: C_14  and  C_27 
REMARK    6  A    between atoms: C_14  and  C_16 
REMARK    7  A    between atoms: C_14  and  N_19 
REMARK       I    between atoms: N_19  and  C_21 
REMARK    8  A    between atoms: C_20  and  C_22 
REMARK    9  A    between atoms: C_20  and  C_25 
REMARK   10  A    between atoms: C_21  and  C_22 
ROOT
HETATM    1  O           1     -34.635  -3.119 -14.040  0.00  0.00    -0.271 OA
HETATM    2  N           1     -35.266  -1.951 -12.243  0.00  0.00    -0.343 N 
HETATM    3  C           1     -34.623  -3.004 -12.837  0.00  0.00     0.249 C 
HETATM    4  H           1     -35.256  -1.856 -11.236  0.00  0.00     0.163 HD
ENDROOT
BRANCH   3   5
HETATM    5  C           1     -33.902  -4.022 -11.989  0.00  0.00     0.280 C 
BRANCH   5   6
HETATM    6  N           1     -32.644  -3.415 -11.442  0.00  0.00    -0.066 N 
HETATM    7  H           1     -32.862  -2.887 -10.567  0.00  0.00     0.275 HD
HETATM    8  H           1     -31.958  -4.174 -11.227  0.00  0.00     0.275 HD
HETATM    9  H           1     -32.234  -2.765 -12.149  0.00  0.00     0.275 HD
ENDBRANCH   5   6
BRANCH   5  10
HETATM   10  C           1     -34.799  -4.453 -10.836  0.00  0.00     0.101 C 
BRANCH  10  11
HETATM   11  C           1     -34.538  -5.890 -10.510  0.00  0.00     0.028 A 
HETATM   12  N           1     -33.557  -6.654 -11.087  0.00  0.00    -0.355 N 
HETATM   13  C           1     -33.666  -7.837 -10.528  0.00  0.00     0.180 A 
ATOM     14  HN          1     -32.885  -6.366 -11.797  1.00  0.00     0.166 HD
HETATM   15  N           1     -34.679  -7.867  -9.613  0.00  0.00    -0.360 N 
HETATM   16  C           1     -35.249  -6.624  -9.590  0.00  0.00     0.114 A 
HETATM   17  H           1     -34.968  -8.693  -9.033  0.00  0.00     0.166 HD
ENDBRANCH  10  11
ENDBRANCH   5  10
ENDBRANCH   3   5
BRANCH   2  18
HETATM   18  C           1     -35.959  -0.973 -13.059  0.00  0.00     0.210 C 
BRANCH  18  19
HETATM   19  C           1     -35.003   0.129 -13.444  0.00  0.00     0.198 C 
HETATM   20  O           1     -34.584   0.211 -14.619  0.00  0.00    -0.646 OA
HETATM   21  O           1     -34.630   0.961 -12.589  0.00  0.00    -0.646 OA
ENDBRANCH  18  19
BRANCH  18  22
HETATM   22  C           1     -37.119  -0.383 -12.268  0.00  0.00     0.217 C 
BRANCH  22  23
HETATM   23  O           1     -37.265  -1.082 -11.062  0.00  0.00    -0.287 OA
BRANCH  23  24
HETATM   24  P           1     -36.642  -0.371  -9.752  0.00  0.00     0.406 P 
HETATM   25  O           1     -35.327  -0.974  -9.441  0.00  0.00    -0.624 OA
HETATM   26  O           1     -37.556  -0.564  -8.604  0.00  0.00    -0.624 OA
BRANCH  24  27
HETATM   27  O           1     -36.457   1.208 -10.034  0.00  0.00    -0.300 OA
HETATM   28  H           1     -35.625   1.429  -9.652  0.00  0.00     0.223 HD
ENDBRANCH  24  27
ENDBRANCH  23  24
ENDBRANCH  22  23
ENDBRANCH  18  22
ENDBRANCH   2  18
TORSDOF 10
ENDMDL
MODEL 3
REMARK VINA RESULT:      -6.3      2.979      6.134
REMARK  10 active torsions:
REMARK  status: ('A' for Active; 'I' for Inactive)
REMARK    1  A    between atoms: O_2  and  C_16 
REMARK    2  A    between atoms: O_2  and  P_7 
REMARK    3  A    between atoms: N_6  and  C_22 
REMARK    4  A    between atoms: P_7  and  O_9 
REMARK    5  A    between atoms: C_14  and  C_27 
REMARK    6  A    between atoms: C_14  and  C_16 
REMARK    7  A    between atoms: C_14  and  N_19 
REMARK       I    between atoms: N_19  and  C_21 
REMARK    8  A    between atoms: C_20  and  C_22 
REMARK    9  A    between atoms: C_20  and  C_25 
REMARK   10  A    between atoms: C_21  and  C_22 
ROOT
HETATM    1  O           1     -36.806  -2.194 -10.589  0.00  0.00    -0.271 OA
HETATM    2  N           1     -35.199  -2.344 -12.133  0.00  0.00    -0.343 N 
HETATM    3  C           1     -36.148  -1.642 -11.439  0.00  0.00     0.249 C 
HETATM    4  H           1     -34.649  -1.882 -12.845  0.00  0.00     0.163 HD
ENDROOT
BRANCH   3   5
HETATM    5  C           1     -36.373  -0.181 -11.736  0.00  0.00     0.280 C 
BRANCH   5   6
HETATM    6  N           1     -36.171   0.621 -10.484  0.00  0.00    -0.066 N 
HETATM    7  H           1     -36.074   1.632 -10.728  0.00  0.00     0.275 HD
HETATM    8  H           1     -36.995   0.493  -9.854  0.00  0.00     0.275 HD
HETATM    9  H           1     -35.307   0.296  -9.997  0.00  0.00     0.275 HD
ENDBRANCH   5   6
BRANCH   5  10
HETATM   10  C           1     -35.383   0.282 -12.797  0.00  0.00     0.101 C 
BRANCH  10  11
HETATM   11  C           1     -36.090   0.435 -14.108  0.00  0.00     0.028 A 
HETATM   12  N           1     -37.431   0.221 -14.299  0.00  0.00    -0.355 N 
HETATM   13  C           1     -37.642   0.462 -15.572  0.00  0.00     0.180 A 
ATOM     14  HN          1     -38.118  -0.065 -13.602  1.00  0.00     0.166 HD
HETATM   15  N           1     -36.490   0.825 -16.210  0.00  0.00    -0.360 N 
HETATM   16  C           1     -35.485   0.812 -15.283  0.00  0.00     0.114 A 
HETATM   17  H           1     -36.393   1.070 -17.227  0.00  0.00     0.166 HD
ENDBRANCH  10  11
ENDBRANCH   5  10
ENDBRANCH   3   5
BRANCH   2  18
HETATM   18  C           1     -34.983  -3.749 -11.847  0.00  0.00     0.210 C 
BRANCH  18  19
HETATM   19  C           1     -33.868  -3.891 -10.840  0.00  0.00     0.198 C 
HETATM   20  O           1     -33.268  -2.877 -10.423  0.00  0.00    -0.646 OA
HETATM   21  O           1     -33.545  -5.023 -10.422  0.00  0.00    -0.646 OA
ENDBRANCH  18  19
BRANCH  18  22
HETATM   22  C           1     -34.604  -4.476 -13.130  0.00  0.00     0.217 C 
BRANCH  22  23
HETATM   23  O           1     -34.058  -3.561 -14.041  0.00  0.00    -0.287 OA
BRANCH  23  24
HETATM   24  P           1     -34.187  -3.955 -15.603  0.00  0.00     0.406 P 
HETATM   25  O           1     -32.836  -4.162 -16.173  0.00  0.00    -0.624 OA
HETATM   26  O           1     -34.868  -2.863 -16.332  0.00  0.00    -0.624 OA
BRANCH  24  27
HETATM   27  O           1     -35.044  -5.316 -15.745  0.00  0.00    -0.300 OA
HETATM   28  H           1     -35.501  -5.403 -14.927  0.00  0.00     0.223 HD
ENDBRANCH  24  27
ENDBRANCH  23  24
ENDBRANCH  22  23
ENDBRANCH  18  22
ENDBRANCH   2  18
TORSDOF 10
ENDMDL
MODEL 4
REMARK VINA RESULT:      -6.2     13.752     15.713
REMARK  10 active torsions:
REMARK  status: ('A' for Active; 'I' for Inactive)
REMARK    1  A    between atoms: O_2  and  C_16 
REMARK    2  A    between atoms: O_2  and  P_7 
REMARK    3  A    between atoms: N_6  and  C_22 
REMARK    4  A    between atoms: P_7  and  O_9 
REMARK    5  A    between atoms: C_14  and  C_27 
REMARK    6  A    between atoms: C_14  and  C_16 
REMARK    7  A    between atoms: C_14  and  N_19 
REMARK       I    between atoms: N_19  and  C_21 
REMARK    8  A    between atoms: C_20  and  C_22 
REMARK    9  A    between atoms: C_20  and  C_25 
REMARK   10  A    between atoms: C_21  and  C_22 
ROOT
HETATM    1  O           1     -21.331  -7.390  -6.786  0.00  0.00    -0.271 OA
HETATM    2  N           1     -21.335  -5.180  -6.460  0.00  0.00    -0.343 N 
HETATM    3  C           1     -21.245  -6.469  -6.008  0.00  0.00     0.249 C 
HETATM    4  H           1     -21.264  -4.410  -5.809  0.00  0.00     0.163 HD
ENDROOT
BRANCH   3   5
HETATM    5  C           1     -21.039  -6.741  -4.539  0.00  0.00     0.280 C 
BRANCH   5   6
HETATM    6  N           1     -22.096  -6.029  -3.746  0.00  0.00    -0.066 N 
HETATM    7  H           1     -22.749  -6.729  -3.328  0.00  0.00     0.275 HD
HETATM    8  H           1     -21.644  -5.476  -2.984  0.00  0.00     0.275 HD
HETATM    9  H           1     -22.629  -5.387  -4.374  0.00  0.00     0.275 HD
ENDBRANCH   5   6
BRANCH   5  10
HETATM   10  C           1     -21.135  -8.238  -4.279  0.00  0.00     0.101 C 
BRANCH  10  11
HETATM   11  C           1     -19.775  -8.778  -3.962  0.00  0.00     0.028 A 
HETATM   12  N           1     -19.277  -8.942  -2.695  0.00  0.00    -0.355 N 
HETATM   13  C           1     -18.072  -9.435  -2.857  0.00  0.00     0.180 A 
ATOM     14  HN          1     -19.744  -8.727  -1.814  1.00  0.00     0.166 HD
HETATM   15  N           1     -17.771  -9.597  -4.180  0.00  0.00    -0.360 N 
HETATM   16  C           1     -18.855  -9.179  -4.901  0.00  0.00     0.114 A 
HETATM   17  H           1     -16.872  -9.973  -4.571  0.00  0.00     0.166 HD
ENDBRANCH  10  11
ENDBRANCH   5  10
ENDBRANCH   3   5
BRANCH   2  18
HETATM   18  C           1     -21.533  -4.920  -7.873  0.00  0.00     0.210 C 
BRANCH  18  19
HETATM   19  C           1     -20.199  -4.657  -8.527  0.00  0.00     0.198 C 
HETATM   20  O           1     -20.088  -4.728  -9.771  0.00  0.00    -0.646 OA
HETATM   21  O           1     -19.206  -4.367  -7.827  0.00  0.00    -0.646 OA
ENDBRANCH  18  19
BRANCH  18  22
HETATM   22  C           1     -22.430  -3.702  -8.044  0.00  0.00     0.217 C 
BRANCH  22  23
HETATM   23  O           1     -23.656  -4.098  -8.598  0.00  0.00    -0.287 OA
BRANCH  23  24
HETATM   24  P           1     -23.782  -3.968 -10.204  0.00  0.00     0.406 P 
HETATM   25  O           1     -25.021  -3.232 -10.544  0.00  0.00    -0.624 OA
HETATM   26  O           1     -23.831  -5.319 -10.806  0.00  0.00    -0.624 OA
BRANCH  24  27
HETATM   27  O           1     -22.505  -3.166 -10.780  0.00  0.00    -0.300 OA
HETATM   28  H           1     -22.420  -3.452 -11.673  0.00  0.00     0.223 HD
ENDBRANCH  24  27
ENDBRANCH  23  24
ENDBRANCH  22  23
ENDBRANCH  18  22
ENDBRANCH   2  18
TORSDOF 10
ENDMDL
MODEL 5
REMARK VINA RESULT:      -6.2     13.412     15.370
REMARK  10 active torsions:
REMARK  status: ('A' for Active; 'I' for Inactive)
REMARK    1  A    between atoms: O_2  and  C_16 
REMARK    2  A    between atoms: O_2  and  P_7 
REMARK    3  A    between atoms: N_6  and  C_22 
REMARK    4  A    between atoms: P_7  and  O_9 
REMARK    5  A    between atoms: C_14  and  C_27 
REMARK    6  A    between atoms: C_14  and  C_16 
REMARK    7  A    between atoms: C_14  and  N_19 
REMARK       I    between atoms: N_19  and  C_21 
REMARK    8  A    between atoms: C_20  and  C_22 
REMARK    9  A    between atoms: C_20  and  C_25 
REMARK   10  A    between atoms: C_21  and  C_22 
ROOT
HETATM    1  O           1     -21.345  -7.293  -6.722  0.00  0.00    -0.271 OA
HETATM    2  N           1     -21.298  -5.069  -6.518  0.00  0.00    -0.343 N 
HETATM    3  C           1     -21.229  -6.333  -5.997  0.00  0.00     0.249 C 
HETATM    4  H           1     -21.201  -4.266  -5.911  0.00  0.00     0.163 HD
ENDROOT
BRANCH   3   5
HETATM    5  C           1     -21.009  -6.528  -4.518  0.00  0.00     0.280 C 
BRANCH   5   6
HETATM    6  N           1     -22.295  -6.281  -3.784  0.00  0.00    -0.066 N 
HETATM    7  H           1     -22.087  -5.968  -2.809  0.00  0.00     0.275 HD
HETATM    8  H           1     -22.839  -5.538  -4.279  0.00  0.00     0.275 HD
HETATM    9  H           1     -22.855  -7.162  -3.756  0.00  0.00     0.275 HD
ENDBRANCH   5   6
BRANCH   5  10
HETATM   10  C           1     -20.544  -7.954  -4.255  0.00  0.00     0.101 C 
BRANCH  10  11
HETATM   11  C           1     -20.920  -8.354  -2.863  0.00  0.00     0.028 A 
HETATM   12  N           1     -21.888  -9.274  -2.551  0.00  0.00    -0.355 N 
HETATM   13  C           1     -21.901  -9.332  -1.240  0.00  0.00     0.180 A 
ATOM     14  HN          1     -22.472  -9.802  -3.199  1.00  0.00     0.166 HD
HETATM   15  N           1     -20.980  -8.486  -0.692  0.00  0.00    -0.360 N 
HETATM   16  C           1     -20.342  -7.851  -1.721  0.00  0.00     0.114 A 
HETATM   17  H           1     -20.794  -8.348   0.332  0.00  0.00     0.166 HD
ENDBRANCH  10  11
ENDBRANCH   5  10
ENDBRANCH   3   5
BRANCH   2  18
HETATM   18  C           1     -21.509  -4.883  -7.941  0.00  0.00     0.210 C 
BRANCH  18  19
HETATM   19  C           1     -20.187  -4.609  -8.614  0.00  0.00     0.198 C 
HETATM   20  O           1     -19.186  -4.310  -7.927  0.00  0.00    -0.646 OA
HETATM   21  O           1     -20.092  -4.683  -9.858  0.00  0.00    -0.646 OA
ENDBRANCH  18  19
BRANCH  18  22
HETATM   22  C           1     -22.446  -3.703  -8.165  0.00  0.00     0.217 C 
BRANCH  22  23
HETATM   23  O           1     -23.641  -4.158  -8.740  0.00  0.00    -0.287 OA
BRANCH  23  24
HETATM   24  P           1     -23.775  -3.967 -10.338  0.00  0.00     0.406 P 
HETATM   25  O           1     -25.031  -3.246 -10.645  0.00  0.00    -0.624 OA
HETATM   26  O           1     -23.797  -5.294 -10.993  0.00  0.00    -0.624 OA
BRANCH  24  27
HETATM   27  O           1     -22.518  -3.115 -10.886  0.00  0.00    -0.300 OA
HETATM   28  H           1     -22.855  -2.621 -11.612  0.00  0.00     0.223 HD
ENDBRANCH  24  27
ENDBRANCH  23  24
ENDBRANCH  22  23
ENDBRANCH  18  22
ENDBRANCH   2  18
TORSDOF 10
ENDMDL
MODEL 6
REMARK VINA RESULT:      -6.0     15.218     17.253
REMARK  10 active torsions:
REMARK  status: ('A' for Active; 'I' for Inactive)
REMARK    1  A    between atoms: O_2  and  C_16 
REMARK    2  A    between atoms: O_2  and  P_7 
REMARK    3  A    between atoms: N_6  and  C_22 
REMARK    4  A    between atoms: P_7  and  O_9 
REMARK    5  A    between atoms: C_14  and  C_27 
REMARK    6  A    between atoms: C_14  and  C_16 
REMARK    7  A    between atoms: C_14  and  N_19 
REMARK       I    between atoms: N_19  and  C_21 
REMARK    8  A    between atoms: C_20  and  C_22 
REMARK    9  A    between atoms: C_20  and  C_25 
REMARK   10  A    between atoms: C_21  and  C_22 
ROOT
HETATM    1  O           1     -20.367  -5.227  -5.917  0.00  0.00    -0.271 OA
HETATM    2  N           1     -22.150  -6.161  -4.948  0.00  0.00    -0.343 N 
HETATM    3  C           1     -21.553  -5.458  -5.960  0.00  0.00     0.249 C 
HETATM    4  H           1     -23.142  -6.355  -4.984  0.00  0.00     0.163 HD
ENDROOT
BRANCH   3   5
HETATM    5  C           1     -22.374  -4.972  -7.127  0.00  0.00     0.280 C 
BRANCH   5   6
HETATM    6  N           1     -23.737  -4.568  -6.646  0.00  0.00    -0.066 N 
HETATM    7  H           1     -23.749  -4.554  -5.601  0.00  0.00     0.275 HD
HETATM    8  H           1     -23.965  -3.615  -7.009  0.00  0.00     0.275 HD
HETATM    9  H           1     -24.446  -5.252  -6.993  0.00  0.00     0.275 HD
ENDBRANCH   5   6
BRANCH   5  10
HETATM   10  C           1     -21.689  -3.772  -7.768  0.00  0.00     0.101 C 
BRANCH  10  11
HETATM   11  C           1     -21.561  -3.998  -9.242  0.00  0.00     0.028 A 
HETATM   12  N           1     -20.435  -3.727  -9.977  0.00  0.00    -0.355 N 
HETATM   13  C           1     -20.736  -4.064 -11.209  0.00  0.00     0.180 A 
ATOM     14  HN          1     -19.552  -3.346  -9.639  1.00  0.00     0.166 HD
HETATM   15  N           1     -22.012  -4.543 -11.299  0.00  0.00    -0.360 N 
HETATM   16  C           1     -22.554  -4.507 -10.044  0.00  0.00     0.114 A 
HETATM   17  H           1     -22.490  -4.878 -12.172  0.00  0.00     0.166 HD
ENDBRANCH  10  11
ENDBRANCH   5  10
ENDBRANCH   3   5
BRANCH   2  18
HETATM   18  C           1     -21.359  -6.629  -3.826  0.00  0.00     0.210 C 
BRANCH  18  19
HETATM   19  C           1     -20.929  -8.054  -4.073  0.00  0.00     0.198 C 
HETATM   20  O           1     -21.780  -8.969  -4.097  0.00  0.00    -0.646 OA
HETATM   21  O           1     -19.721  -8.319  -4.255  0.00  0.00    -0.646 OA
ENDBRANCH  18  19
BRANCH  18  22
HETATM   22  C           1     -22.195  -6.565  -2.555  0.00  0.00     0.217 C 
BRANCH  22  23
HETATM   23  O           1     -21.410  -6.952  -1.459  0.00  0.00    -0.287 OA
BRANCH  23  24
HETATM   24  P           1     -22.096  -7.990  -0.429  0.00  0.00     0.406 P 
HETATM   25  O           1     -23.358  -7.414   0.086  0.00  0.00    -0.624 OA
HETATM   26  O           1     -21.174  -8.245   0.701  0.00  0.00    -0.624 OA
BRANCH  24  27
HETATM   27  O           1     -22.410  -9.378  -1.192  0.00  0.00    -0.300 OA
HETATM   28  H           1     -22.877  -9.901  -0.565  0.00  0.00     0.223 HD
ENDBRANCH  24  27
ENDBRANCH  23  24
ENDBRANCH  22  23
ENDBRANCH  18  22
ENDBRANCH   2  18
TORSDOF 10
ENDMDL
MODEL 7
REMARK VINA RESULT:      -5.9     15.356     17.665
REMARK  10 active torsions:
REMARK  status: ('A' for Active; 'I' for Inactive)
REMARK    1  A    between atoms: O_2  and  C_16 
REMARK    2  A    between atoms: O_2  and  P_7 
REMARK    3  A    between atoms: N_6  and  C_22 
REMARK    4  A    between atoms: P_7  and  O_9 
REMARK    5  A    between atoms: C_14  and  C_27 
REMARK    6  A    between atoms: C_14  and  C_16 
REMARK    7  A    between atoms: C_14  and  N_19 
REMARK       I    between atoms: N_19  and  C_21 
REMARK    8  A    between atoms: C_20  and  C_22 
REMARK    9  A    between atoms: C_20  and  C_25 
REMARK   10  A    between atoms: C_21  and  C_22 
ROOT
HETATM    1  O           1     -19.453  -7.414  -6.380  0.00  0.00    -0.271 OA
HETATM    2  N           1     -20.817  -7.536  -4.616  0.00  0.00    -0.343 N 
HETATM    3  C           1     -20.331  -6.902  -5.728  0.00  0.00     0.249 C 
HETATM    4  H           1     -21.553  -7.107  -4.070  0.00  0.00     0.163 HD
ENDROOT
BRANCH   3   5
HETATM    5  C           1     -20.892  -5.563  -6.138  0.00  0.00     0.280 C 
BRANCH   5   6
HETATM    6  N           1     -20.161  -4.472  -5.413  0.00  0.00    -0.066 N 
HETATM    7  H           1     -19.687  -3.849  -6.106  0.00  0.00     0.275 HD
HETATM    8  H           1     -20.841  -3.912  -4.851  0.00  0.00     0.275 HD
HETATM    9  H           1     -19.447  -4.893  -4.778  0.00  0.00     0.275 HD
ENDBRANCH   5   6
BRANCH   5  10
HETATM   10  C           1     -20.720  -5.377  -7.639  0.00  0.00     0.101 C 
BRANCH  10  11
HETATM   11  C           1     -21.933  -4.704  -8.202  0.00  0.00     0.028 A 
HETATM   12  N           1     -22.045  -4.253  -9.492  0.00  0.00    -0.355 N 
HETATM   13  C           1     -23.249  -3.736  -9.574  0.00  0.00     0.180 A 
ATOM     14  HN          1     -21.344  -4.308 -10.230  1.00  0.00     0.166 HD
HETATM   15  N           1     -23.919  -3.836  -8.388  0.00  0.00    -0.360 N 
HETATM   16  C           1     -23.086  -4.455  -7.498  0.00  0.00     0.114 A 
HETATM   17  H           1     -24.894  -3.499  -8.195  0.00  0.00     0.166 HD
ENDBRANCH  10  11
ENDBRANCH   5  10
ENDBRANCH   3   5
BRANCH   2  18
HETATM   18  C           1     -20.278  -8.823  -4.222  0.00  0.00     0.210 C 
BRANCH  18  19
HETATM   19  C           1     -21.174  -9.923  -4.737  0.00  0.00     0.198 C 
HETATM   20  O           1     -22.041 -10.424  -3.989  0.00  0.00    -0.646 OA
HETATM   21  O           1     -21.050 -10.332  -5.911  0.00  0.00    -0.646 OA
ENDBRANCH  18  19
BRANCH  18  22
HETATM   22  C           1     -20.203  -8.900  -2.703  0.00  0.00     0.217 C 
BRANCH  22  23
HETATM   23  O           1     -20.868  -7.798  -2.147  0.00  0.00    -0.287 OA
BRANCH  23  24
HETATM   24  P           1     -21.818  -8.111  -0.878  0.00  0.00     0.406 P 
HETATM   25  O           1     -22.769  -6.993  -0.685  0.00  0.00    -0.624 OA
HETATM   26  O           1     -20.984  -8.262   0.336  0.00  0.00    -0.624 OA
BRANCH  24  27
HETATM   27  O           1     -22.638  -9.476  -1.143  0.00  0.00    -0.300 OA
HETATM   28  H           1     -22.750  -9.863  -0.293  0.00  0.00     0.223 HD
ENDBRANCH  24  27
ENDBRANCH  23  24
ENDBRANCH  22  23
ENDBRANCH  18  22
ENDBRANCH   2  18
TORSDOF 10
ENDMDL
MODEL 8
REMARK VINA RESULT:      -5.9      3.269      5.946
REMARK  10 active torsions:
REMARK  status: ('A' for Active; 'I' for Inactive)
REMARK    1  A    between atoms: O_2  and  C_16 
REMARK    2  A    between atoms: O_2  and  P_7 
REMARK    3  A    between atoms: N_6  and  C_22 
REMARK    4  A    between atoms: P_7  and  O_9 
REMARK    5  A    between atoms: C_14  and  C_27 
REMARK    6  A    between atoms: C_14  and  C_16 
REMARK    7  A    between atoms: C_14  and  N_19 
REMARK       I    between atoms: N_19  and  C_21 
REMARK    8  A    between atoms: C_20  and  C_22 
REMARK    9  A    between atoms: C_20  and  C_25 
REMARK   10  A    between atoms: C_21  and  C_22 
ROOT
HETATM    1  O           1     -36.427  -2.482 -10.503  0.00  0.00    -0.271 OA
HETATM    2  N           1     -34.985  -2.380 -12.206  0.00  0.00    -0.343 N 
HETATM    3  C           1     -35.888  -1.809 -11.350  0.00  0.00     0.249 C 
HETATM    4  H           1     -34.534  -1.816 -12.915  0.00  0.00     0.163 HD
ENDROOT
BRANCH   3   5
HETATM    5  C           1     -36.212  -0.341 -11.465  0.00  0.00     0.280 C 
BRANCH   5   6
HETATM    6  N           1     -36.314   0.037 -12.914  0.00  0.00    -0.066 N 
HETATM    7  H           1     -35.456  -0.281 -13.419  0.00  0.00     0.275 HD
HETATM    8  H           1     -37.154  -0.422 -13.334  0.00  0.00     0.275 HD
HETATM    9  H           1     -36.405   1.073 -12.998  0.00  0.00     0.275 HD
ENDBRANCH   5   6
BRANCH   5  10
HETATM   10  C           1     -37.539  -0.057 -10.774  0.00  0.00     0.101 C 
BRANCH  10  11
HETATM   11  C           1     -37.284   0.578  -9.443  0.00  0.00     0.028 A 
HETATM   12  N           1     -36.397   0.104  -8.511  0.00  0.00    -0.355 N 
HETATM   13  C           1     -36.475   0.939  -7.502  0.00  0.00     0.180 A 
ATOM     14  HN          1     -35.803  -0.722  -8.586  1.00  0.00     0.166 HD
HETATM   15  N           1     -37.377   1.935  -7.745  0.00  0.00    -0.360 N 
HETATM   16  C           1     -37.904   1.717  -8.988  0.00  0.00     0.114 A 
HETATM   17  H           1     -37.621   2.725  -7.097  0.00  0.00     0.166 HD
ENDBRANCH  10  11
ENDBRANCH   5  10
ENDBRANCH   3   5
BRANCH   2  18
HETATM   18  C           1     -34.673  -3.792 -12.094  0.00  0.00     0.210 C 
BRANCH  18  19
HETATM   19  C           1     -33.334  -3.960 -11.419  0.00  0.00     0.198 C 
HETATM   20  O           1     -32.667  -2.954 -11.094  0.00  0.00    -0.646 OA
HETATM   21  O           1     -32.893  -5.105 -11.183  0.00  0.00    -0.646 OA
ENDBRANCH  18  19
BRANCH  18  22
HETATM   22  C           1     -34.621  -4.411 -13.484  0.00  0.00     0.217 C 
BRANCH  22  23
HETATM   23  O           1     -34.070  -3.490 -14.386  0.00  0.00    -0.287 OA
BRANCH  23  24
HETATM   24  P           1     -33.835  -4.027 -15.892  0.00  0.00     0.406 P 
HETATM   25  O           1     -32.387  -4.222 -16.127  0.00  0.00    -0.624 OA
HETATM   26  O           1     -34.362  -3.036 -16.856  0.00  0.00    -0.624 OA
BRANCH  24  27
HETATM   27  O           1     -34.606  -5.433 -16.088  0.00  0.00    -0.300 OA
HETATM   28  H           1     -34.530  -5.627 -17.006  0.00  0.00     0.223 HD
ENDBRANCH  24  27
ENDBRANCH  23  24
ENDBRANCH  22  23
ENDBRANCH  18  22
ENDBRANCH   2  18
TORSDOF 10
ENDMDL
MODEL 9
REMARK VINA RESULT:      -5.8     14.263     16.932
REMARK  10 active torsions:
REMARK  status: ('A' for Active; 'I' for Inactive)
REMARK    1  A    between atoms: O_2  and  C_16 
REMARK    2  A    between atoms: O_2  and  P_7 
REMARK    3  A    between atoms: N_6  and  C_22 
REMARK    4  A    between atoms: P_7  and  O_9 
REMARK    5  A    between atoms: C_14  and  C_27 
REMARK    6  A    between atoms: C_14  and  C_16 
REMARK    7  A    between atoms: C_14  and  N_19 
REMARK       I    between atoms: N_19  and  C_21 
REMARK    8  A    between atoms: C_20  and  C_22 
REMARK    9  A    between atoms: C_20  and  C_25 
REMARK   10  A    between atoms: C_21  and  C_22 
ROOT
HETATM    1  O           1     -23.011  -5.877  -5.577  0.00  0.00    -0.271 OA
HETATM    2  N           1     -20.995  -6.514  -4.855  0.00  0.00    -0.343 N 
HETATM    3  C           1     -21.811  -5.750  -5.645  0.00  0.00     0.249 C 
HETATM    4  H           1     -19.991  -6.408  -4.913  0.00  0.00     0.163 HD
ENDROOT
BRANCH   3   5
HETATM    5  C           1     -21.212  -4.750  -6.603  0.00  0.00     0.280 C 
BRANCH   5   6
HETATM    6  N           1     -19.765  -4.538  -6.264  0.00  0.00    -0.066 N 
HETATM    7  H           1     -19.546  -5.007  -5.357  0.00  0.00     0.275 HD
HETATM    8  H           1     -19.169  -4.947  -7.019  0.00  0.00     0.275 HD
HETATM    9  H           1     -19.573  -3.515  -6.183  0.00  0.00     0.275 HD
ENDBRANCH   5   6
BRANCH   5  10
HETATM   10  C           1     -21.326  -5.278  -8.027  0.00  0.00     0.101 C 
BRANCH  10  11
HETATM   11  C           1     -22.386  -4.516  -8.759  0.00  0.00     0.028 A 
HETATM   12  N           1     -23.575  -4.110  -8.207  0.00  0.00    -0.355 N 
HETATM   13  C           1     -24.207  -3.482  -9.171  0.00  0.00     0.180 A 
ATOM     14  HN          1     -23.898  -4.262  -7.252  1.00  0.00     0.166 HD
HETATM   15  N           1     -23.474  -3.467 -10.324  0.00  0.00    -0.360 N 
HETATM   16  C           1     -22.303  -4.127 -10.074  0.00  0.00     0.114 A 
HETATM   17  H           1     -23.758  -3.028 -11.235  0.00  0.00     0.166 HD
ENDBRANCH  10  11
ENDBRANCH   5  10
ENDBRANCH   3   5
BRANCH   2  18
HETATM   18  C           1     -21.571  -7.475  -3.934  0.00  0.00     0.210 C 
BRANCH  18  19
HETATM   19  C           1     -21.573  -6.898  -2.540  0.00  0.00     0.198 C 
HETATM   20  O           1     -22.333  -5.947  -2.258  0.00  0.00    -0.646 OA
HETATM   21  O           1     -20.814  -7.371  -1.667  0.00  0.00    -0.646 OA
ENDBRANCH  18  19
BRANCH  18  22
HETATM   22  C           1     -20.746  -8.754  -3.953  0.00  0.00     0.217 C 
BRANCH  22  23
HETATM   23  O           1     -21.493  -9.785  -4.541  0.00  0.00    -0.287 OA
BRANCH  23  24
HETATM   24  P           1     -20.663 -10.833  -5.447  0.00  0.00     0.406 P 
HETATM   25  O           1     -21.421 -11.124  -6.685  0.00  0.00    -0.624 OA
HETATM   26  O           1     -20.459 -12.087  -4.689  0.00  0.00    -0.624 OA
BRANCH  24  27
HETATM   27  O           1     -19.230 -10.195  -5.831  0.00  0.00    -0.300 OA
HETATM   28  H           1     -19.270  -9.305  -5.529  0.00  0.00     0.223 HD
ENDBRANCH  24  27
ENDBRANCH  23  24
ENDBRANCH  22  23
ENDBRANCH  18  22
ENDBRANCH   2  18
TORSDOF 10
ENDMDL
