MODEL 1
REMARK VINA RESULT:      -7.4      0.000      0.000
REMARK  9 active torsions:
REMARK  status: ('A' for Active; 'I' for Inactive)
REMARK    1  A    between atoms: C_2  and  C_3 
REMARK    2  A    between atoms: C_2  and  C_17 
REMARK    3  A    between atoms: C_3  and  C_4 
REMARK    4  A    between atoms: C_3  and  N_22 
REMARK       I    between atoms: C_4  and  N_5 
REMARK    5  A    between atoms: N_5  and  C_15 
REMARK    6  A    between atoms: C_8  and  C_15 
REMARK    7  A    between atoms: C_9  and  O_11 
REMARK    8  A    between atoms: C_15  and  C_25 
REMARK    9  A    between atoms: C_24  and  C_25 
ROOT
HETATM    1  C           1     -21.936  -5.610  -6.889  0.00  0.00     0.278 C 
ENDROOT
BRANCH   1   2
HETATM    2  C           1     -21.048  -4.456  -7.337  0.00  0.00     0.081 C 
BRANCH   2   3
HETATM    3  C           1     -21.211  -4.242  -8.810  0.00  0.00    -0.056 A 
HETATM    4  C           1     -22.420  -3.764  -9.315  0.00  0.00     0.010 A 
HETATM    5  C           1     -22.572  -3.564 -10.687  0.00  0.00     0.037 A 
HETATM    6  C           1     -21.515  -3.842 -11.553  0.00  0.00     0.065 A 
HETATM    7  C           1     -20.305  -4.319 -11.047  0.00  0.00     0.037 A 
HETATM    8  C           1     -20.153  -4.519  -9.676  0.00  0.00     0.010 A 
BRANCH   6   9
HETATM    9  O           1     -21.662  -3.647 -12.887  0.00  0.00    -0.361 OA
HETATM   10  H           1     -20.781  -3.692 -13.295  0.00  0.00     0.217 HD
ENDBRANCH   6   9
ENDBRANCH   2   3
ENDBRANCH   1   2
BRANCH   1  11
HETATM   11  C           1     -21.113  -6.607  -6.111  0.00  0.00     0.249 C 
HETATM   12  O           1     -19.960  -6.805  -6.414  0.00  0.00    -0.271 OA
HETATM   13  N           1     -21.672  -7.288  -5.064  0.00  0.00    -0.344 N 
HETATM   14  H           1     -22.638  -7.122  -4.811  0.00  0.00     0.163 HD
BRANCH  13  15
HETATM   15  C           1     -20.881  -8.246  -4.317  0.00  0.00     0.189 C 
BRANCH  15  16
HETATM   16  C           1     -21.201  -9.642  -4.794  0.00  0.00     0.197 C 
HETATM   17  O           1     -22.007 -10.352  -4.154  0.00  0.00    -0.646 OA
HETATM   18  O           1     -20.662 -10.088  -5.829  0.00  0.00    -0.646 OA
ENDBRANCH  15  16
BRANCH  15  19
HETATM   19  C           1     -21.208  -8.131  -2.835  0.00  0.00     0.014 C 
HETATM   20  C           1     -19.956  -8.412  -2.015  0.00  0.00     0.012 C 
BRANCH  19  21
HETATM   21  C           1     -21.706  -6.724  -2.533  0.00  0.00     0.002 C 
HETATM   22  C           1     -22.307  -6.687  -1.134  0.00  0.00     0.005 C 
ENDBRANCH  19  21
ENDBRANCH  15  19
ENDBRANCH  13  15
ENDBRANCH   1  11
BRANCH   1  23
HETATM   23  N           1     -23.037  -5.083  -6.017  0.00  0.00    -0.066 N 
HETATM   24  H           1     -22.917  -5.449  -5.046  0.00  0.00     0.275 HD
HETATM   25  H           1     -23.960  -5.394  -6.396  0.00  0.00     0.275 HD
HETATM   26  H           1     -23.002  -4.039  -6.002  0.00  0.00     0.275 HD
ENDBRANCH   1  23
TORSDOF 9
ENDMDL
MODEL 2
REMARK VINA RESULT:      -7.4      0.093      1.250
REMARK  9 active torsions:
REMARK  status: ('A' for Active; 'I' for Inactive)
REMARK    1  A    between atoms: C_2  and  C_3 
REMARK    2  A    between atoms: C_2  and  C_17 
REMARK    3  A    between atoms: C_3  and  C_4 
REMARK    4  A    between atoms: C_3  and  N_22 
REMARK       I    between atoms: C_4  and  N_5 
REMARK    5  A    between atoms: N_5  and  C_15 
REMARK    6  A    between atoms: C_8  and  C_15 
REMARK    7  A    between atoms: C_9  and  O_11 
REMARK    8  A    between atoms: C_15  and  C_25 
REMARK    9  A    between atoms: C_24  and  C_25 
ROOT
HETATM    1  C           1     -21.970  -5.587  -6.881  0.00  0.00     0.278 C 
ENDROOT
BRANCH   1   2
HETATM    2  C           1     -21.111  -4.409  -7.322  0.00  0.00     0.081 C 
BRANCH   2   3
HETATM    3  C           1     -21.258  -4.208  -8.799  0.00  0.00    -0.056 A 
HETATM    4  C           1     -20.184  -4.471  -9.648  0.00  0.00     0.010 A 
HETATM    5  C           1     -20.320  -4.285 -11.024  0.00  0.00     0.037 A 
HETATM    6  C           1     -21.531  -3.836 -11.549  0.00  0.00     0.065 A 
HETATM    7  C           1     -22.607  -3.574 -10.700  0.00  0.00     0.037 A 
HETATM    8  C           1     -22.470  -3.760  -9.325  0.00  0.00     0.010 A 
BRANCH   6   9
HETATM    9  O           1     -21.665  -3.655 -12.887  0.00  0.00    -0.361 OA
HETATM   10  H           1     -20.783  -3.729 -13.289  0.00  0.00     0.217 HD
ENDBRANCH   6   9
ENDBRANCH   2   3
ENDBRANCH   1   2
BRANCH   1  11
HETATM   11  C           1     -21.122  -6.570  -6.114  0.00  0.00     0.249 C 
HETATM   12  O           1     -19.975  -6.762  -6.441  0.00  0.00    -0.271 OA
HETATM   13  N           1     -21.651  -7.246  -5.048  0.00  0.00    -0.344 N 
HETATM   14  H           1     -22.612  -7.086  -4.774  0.00  0.00     0.163 HD
BRANCH  13  15
HETATM   15  C           1     -20.835  -8.191  -4.311  0.00  0.00     0.189 C 
BRANCH  15  16
HETATM   16  C           1     -21.081  -9.584  -4.837  0.00  0.00     0.197 C 
HETATM   17  O           1     -20.395 -10.024  -5.785  0.00  0.00    -0.646 OA
HETATM   18  O           1     -21.968 -10.298  -4.324  0.00  0.00    -0.646 OA
ENDBRANCH  15  16
BRANCH  15  19
HETATM   19  C           1     -21.203  -8.137  -2.834  0.00  0.00     0.014 C 
HETATM   20  C           1     -19.982  -8.486  -1.993  0.00  0.00     0.012 C 
BRANCH  19  21
HETATM   21  C           1     -21.678  -6.734  -2.480  0.00  0.00     0.002 C 
HETATM   22  C           1     -22.300  -6.743  -1.090  0.00  0.00     0.005 C 
ENDBRANCH  19  21
ENDBRANCH  15  19
ENDBRANCH  13  15
ENDBRANCH   1  11
BRANCH   1  23
HETATM   23  N           1     -23.081  -5.093  -6.002  0.00  0.00    -0.066 N 
HETATM   24  H           1     -23.497  -5.898  -5.482  0.00  0.00     0.275 HD
HETATM   25  H           1     -23.816  -4.641  -6.592  0.00  0.00     0.275 HD
HETATM   26  H           1     -22.704  -4.396  -5.321  0.00  0.00     0.275 HD
ENDBRANCH   1  23
TORSDOF 9
ENDMDL
MODEL 3
REMARK VINA RESULT:      -7.4     13.616     14.829
REMARK  9 active torsions:
REMARK  status: ('A' for Active; 'I' for Inactive)
REMARK    1  A    between atoms: C_2  and  C_3 
REMARK    2  A    between atoms: C_2  and  C_17 
REMARK    3  A    between atoms: C_3  and  C_4 
REMARK    4  A    between atoms: C_3  and  N_22 
REMARK       I    between atoms: C_4  and  N_5 
REMARK    5  A    between atoms: N_5  and  C_15 
REMARK    6  A    between atoms: C_8  and  C_15 
REMARK    7  A    between atoms: C_9  and  O_11 
REMARK    8  A    between atoms: C_15  and  C_25 
REMARK    9  A    between atoms: C_24  and  C_25 
ROOT
HETATM    1  C           1     -33.039  -4.520 -16.606  0.00  0.00     0.278 C 
ENDROOT
BRANCH   1   2
HETATM    2  C           1     -31.583  -4.427 -16.168  0.00  0.00     0.081 C 
BRANCH   2   3
HETATM    3  C           1     -30.741  -5.305 -17.041  0.00  0.00    -0.056 A 
HETATM    4  C           1     -29.572  -4.803 -17.613  0.00  0.00     0.010 A 
HETATM    5  C           1     -28.787  -5.621 -18.426  0.00  0.00     0.037 A 
HETATM    6  C           1     -29.171  -6.940 -18.666  0.00  0.00     0.065 A 
HETATM    7  C           1     -30.340  -7.442 -18.093  0.00  0.00     0.037 A 
HETATM    8  C           1     -31.125  -6.624 -17.280  0.00  0.00     0.010 A 
BRANCH   6   9
HETATM    9  O           1     -28.408  -7.735 -19.456  0.00  0.00    -0.361 OA
HETATM   10  H           1     -28.273  -7.277 -20.302  0.00  0.00     0.217 HD
ENDBRANCH   6   9
ENDBRANCH   2   3
ENDBRANCH   1   2
BRANCH   1  11
HETATM   11  C           1     -33.930  -4.554 -15.389  0.00  0.00     0.249 C 
HETATM   12  O           1     -35.036  -5.034 -15.463  0.00  0.00    -0.271 OA
HETATM   13  N           1     -33.486  -4.040 -14.200  0.00  0.00    -0.344 N 
HETATM   14  H           1     -32.560  -3.637 -14.139  0.00  0.00     0.163 HD
BRANCH  13  15
HETATM   15  C           1     -34.343  -4.072 -13.031  0.00  0.00     0.189 C 
BRANCH  15  16
HETATM   16  C           1     -35.010  -2.729 -12.860  0.00  0.00     0.197 C 
HETATM   17  O           1     -34.739  -1.792 -13.641  0.00  0.00    -0.646 OA
HETATM   18  O           1     -35.835  -2.555 -11.937  0.00  0.00    -0.646 OA
ENDBRANCH  15  16
BRANCH  15  19
HETATM   19  C           1     -33.506  -4.382 -11.797  0.00  0.00     0.014 C 
HETATM   20  C           1     -32.843  -3.105 -11.299  0.00  0.00     0.012 C 
BRANCH  19  21
HETATM   21  C           1     -34.404  -4.947 -10.704  0.00  0.00     0.002 C 
HETATM   22  C           1     -34.251  -6.461 -10.653  0.00  0.00     0.005 C 
ENDBRANCH  19  21
ENDBRANCH  15  19
ENDBRANCH  13  15
ENDBRANCH   1  11
BRANCH   1  23
HETATM   23  N           1     -33.386  -3.327 -17.446  0.00  0.00    -0.066 N 
HETATM   24  H           1     -34.410  -3.134 -17.371  0.00  0.00     0.275 HD
HETATM   25  H           1     -33.138  -3.520 -18.443  0.00  0.00     0.275 HD
HETATM   26  H           1     -32.850  -2.495 -17.109  0.00  0.00     0.275 HD
ENDBRANCH   1  23
TORSDOF 9
ENDMDL
MODEL 4
REMARK VINA RESULT:      -6.9      1.951      2.823
REMARK  9 active torsions:
REMARK  status: ('A' for Active; 'I' for Inactive)
REMARK    1  A    between atoms: C_2  and  C_3 
REMARK    2  A    between atoms: C_2  and  C_17 
REMARK    3  A    between atoms: C_3  and  C_4 
REMARK    4  A    between atoms: C_3  and  N_22 
REMARK       I    between atoms: C_4  and  N_5 
REMARK    5  A    between atoms: N_5  and  C_15 
REMARK    6  A    between atoms: C_8  and  C_15 
REMARK    7  A    between atoms: C_9  and  O_11 
REMARK    8  A    between atoms: C_15  and  C_25 
REMARK    9  A    between atoms: C_24  and  C_25 
ROOT
HETATM    1  C           1     -20.388  -5.212  -6.418  0.00  0.00     0.278 C 
ENDROOT
BRANCH   1   2
HETATM    2  C           1     -21.126  -3.969  -6.896  0.00  0.00     0.081 C 
BRANCH   2   3
HETATM    3  C           1     -21.412  -4.089  -8.362  0.00  0.00    -0.056 A 
HETATM    4  C           1     -20.386  -3.904  -9.289  0.00  0.00     0.010 A 
HETATM    5  C           1     -20.651  -4.017 -10.654  0.00  0.00     0.037 A 
HETATM    6  C           1     -21.942  -4.315 -11.090  0.00  0.00     0.065 A 
HETATM    7  C           1     -22.967  -4.501 -10.163  0.00  0.00     0.037 A 
HETATM    8  C           1     -22.702  -4.388  -8.798  0.00  0.00     0.010 A 
BRANCH   6   9
HETATM    9  O           1     -22.201  -4.425 -12.417  0.00  0.00    -0.361 OA
HETATM   10  H           1     -21.353  -4.391 -12.891  0.00  0.00     0.217 HD
ENDBRANCH   6   9
ENDBRANCH   2   3
ENDBRANCH   1   2
BRANCH   1  11
HETATM   11  C           1     -21.272  -5.992  -5.476  0.00  0.00     0.249 C 
HETATM   12  O           1     -22.472  -5.858  -5.525  0.00  0.00    -0.271 OA
HETATM   13  N           1     -20.715  -6.849  -4.566  0.00  0.00    -0.344 N 
HETATM   14  H           1     -19.710  -6.960  -4.525  0.00  0.00     0.163 HD
BRANCH  13  15
HETATM   15  C           1     -21.565  -7.598  -3.661  0.00  0.00     0.189 C 
BRANCH  15  16
HETATM   16  C           1     -21.635  -6.886  -2.332  0.00  0.00     0.197 C 
HETATM   17  O           1     -21.003  -7.331  -1.350  0.00  0.00    -0.646 OA
HETATM   18  O           1     -22.322  -5.849  -2.214  0.00  0.00    -0.646 OA
ENDBRANCH  15  16
BRANCH  15  19
HETATM   19  C           1     -20.988  -8.992  -3.457  0.00  0.00     0.014 C 
HETATM   20  C           1     -21.913 -10.022  -4.092  0.00  0.00     0.012 C 
BRANCH  19  21
HETATM   21  C           1     -19.614  -9.074  -4.111  0.00  0.00     0.002 C 
HETATM   22  C           1     -18.566  -9.387  -3.052  0.00  0.00     0.005 C 
ENDBRANCH  19  21
ENDBRANCH  15  19
ENDBRANCH  13  15
ENDBRANCH   1  11
BRANCH   1  23
HETATM   23  N           1     -20.037  -6.070  -7.598  0.00  0.00    -0.066 N 
HETATM   24  H           1     -20.038  -5.486  -8.464  0.00  0.00     0.275 HD
HETATM   25  H           1     -20.740  -6.836  -7.692  0.00  0.00     0.275 HD
HETATM   26  H           1     -19.088  -6.484  -7.458  0.00  0.00     0.275 HD
ENDBRANCH   1  23
TORSDOF 9
ENDMDL
MODEL 5
REMARK VINA RESULT:      -6.6     11.480     13.983
REMARK  9 active torsions:
REMARK  status: ('A' for Active; 'I' for Inactive)
REMARK    1  A    between atoms: C_2  and  C_3 
REMARK    2  A    between atoms: C_2  and  C_17 
REMARK    3  A    between atoms: C_3  and  C_4 
REMARK    4  A    between atoms: C_3  and  N_22 
REMARK       I    between atoms: C_4  and  N_5 
REMARK    5  A    between atoms: N_5  and  C_15 
REMARK    6  A    between atoms: C_8  and  C_15 
REMARK    7  A    between atoms: C_9  and  O_11 
REMARK    8  A    between atoms: C_15  and  C_25 
REMARK    9  A    between atoms: C_24  and  C_25 
ROOT
HETATM    1  C           1     -25.815  -7.627 -20.118  0.00  0.00     0.278 C 
ENDROOT
BRANCH   1   2
HETATM    2  C           1     -24.954  -6.877 -21.126  0.00  0.00     0.081 C 
BRANCH   2   3
HETATM    3  C           1     -23.700  -7.653 -21.388  0.00  0.00    -0.056 A 
HETATM    4  C           1     -22.773  -7.844 -20.365  0.00  0.00     0.010 A 
HETATM    5  C           1     -21.604  -8.567 -20.608  0.00  0.00     0.037 A 
HETATM    6  C           1     -21.365  -9.098 -21.875  0.00  0.00     0.065 A 
HETATM    7  C           1     -22.294  -8.908 -22.899  0.00  0.00     0.037 A 
HETATM    8  C           1     -23.462  -8.185 -22.655  0.00  0.00     0.010 A 
BRANCH   6   9
HETATM    9  O           1     -20.231  -9.801 -22.113  0.00  0.00    -0.361 OA
HETATM   10  H           1     -20.290 -10.640 -21.627  0.00  0.00     0.217 HD
ENDBRANCH   6   9
ENDBRANCH   2   3
ENDBRANCH   1   2
BRANCH   1  11
HETATM   11  C           1     -25.865  -6.852 -18.824  0.00  0.00     0.249 C 
HETATM   12  O           1     -24.858  -6.359 -18.376  0.00  0.00    -0.271 OA
HETATM   13  N           1     -27.052  -6.709 -18.157  0.00  0.00    -0.344 N 
HETATM   14  H           1     -27.896  -7.123 -18.533  0.00  0.00     0.163 HD
BRANCH  13  15
HETATM   15  C           1     -27.100  -5.965 -16.914  0.00  0.00     0.189 C 
BRANCH  15  16
HETATM   16  C           1     -26.896  -6.910 -15.755  0.00  0.00     0.197 C 
HETATM   17  O           1     -25.743  -7.130 -15.324  0.00  0.00    -0.646 OA
HETATM   18  O           1     -27.879  -7.470 -15.225  0.00  0.00    -0.646 OA
ENDBRANCH  15  16
BRANCH  15  19
HETATM   19  C           1     -28.457  -5.287 -16.780  0.00  0.00     0.014 C 
HETATM   20  C           1     -28.277  -3.775 -16.838  0.00  0.00     0.012 C 
BRANCH  19  21
HETATM   21  C           1     -29.364  -5.734 -17.919  0.00  0.00     0.002 C 
HETATM   22  C           1     -30.573  -6.464 -17.350  0.00  0.00     0.005 C 
ENDBRANCH  19  21
ENDBRANCH  15  19
ENDBRANCH  13  15
ENDBRANCH   1  11
BRANCH   1  23
HETATM   23  N           1     -27.204  -7.780 -20.663  0.00  0.00    -0.066 N 
HETATM   24  H           1     -27.873  -7.928 -19.874  0.00  0.00     0.275 HD
HETATM   25  H           1     -27.235  -8.603 -21.307  0.00  0.00     0.275 HD
HETATM   26  H           1     -27.470  -6.917 -21.188  0.00  0.00     0.275 HD
ENDBRANCH   1  23
TORSDOF 9
ENDMDL
MODEL 6
REMARK VINA RESULT:      -6.5     13.843     17.494
REMARK  9 active torsions:
REMARK  status: ('A' for Active; 'I' for Inactive)
REMARK    1  A    between atoms: C_2  and  C_3 
REMARK    2  A    between atoms: C_2  and  C_17 
REMARK    3  A    between atoms: C_3  and  C_4 
REMARK    4  A    between atoms: C_3  and  N_22 
REMARK       I    between atoms: C_4  and  N_5 
REMARK    5  A    between atoms: N_5  and  C_15 
REMARK    6  A    between atoms: C_8  and  C_15 
REMARK    7  A    between atoms: C_9  and  O_11 
REMARK    8  A    between atoms: C_15  and  C_25 
REMARK    9  A    between atoms: C_24  and  C_25 
ROOT
HETATM    1  C           1     -35.610  -0.425 -11.497  0.00  0.00     0.278 C 
ENDROOT
BRANCH   1   2
HETATM    2  C           1     -35.879  -1.551 -10.507  0.00  0.00     0.081 C 
BRANCH   2   3
HETATM    3  C           1     -34.990  -2.715 -10.820  0.00  0.00    -0.056 A 
HETATM    4  C           1     -33.648  -2.503 -11.132  0.00  0.00     0.010 A 
HETATM    5  C           1     -32.819  -3.587 -11.423  0.00  0.00     0.037 A 
HETATM    6  C           1     -33.334  -4.883 -11.401  0.00  0.00     0.065 A 
HETATM    7  C           1     -34.677  -5.095 -11.089  0.00  0.00     0.037 A 
HETATM    8  C           1     -35.505  -4.011 -10.798  0.00  0.00     0.010 A 
BRANCH   6   9
HETATM    9  O           1     -32.530  -5.937 -11.684  0.00  0.00    -0.361 OA
HETATM   10  H           1     -32.355  -5.933 -12.640  0.00  0.00     0.217 HD
ENDBRANCH   6   9
ENDBRANCH   2   3
ENDBRANCH   1   2
BRANCH   1  11
HETATM   11  C           1     -36.308  -0.723 -12.801  0.00  0.00     0.249 C 
HETATM   12  O           1     -37.492  -0.963 -12.811  0.00  0.00    -0.271 OA
HETATM   13  N           1     -35.600  -0.721 -13.973  0.00  0.00    -0.344 N 
HETATM   14  H           1     -34.608  -0.520 -13.964  0.00  0.00     0.163 HD
BRANCH  13  15
HETATM   15  C           1     -36.271  -1.008 -15.226  0.00  0.00     0.189 C 
BRANCH  15  16
HETATM   16  C           1     -35.365  -1.839 -16.102  0.00  0.00     0.197 C 
HETATM   17  O           1     -34.757  -2.819 -15.620  0.00  0.00    -0.646 OA
HETATM   18  O           1     -35.225  -1.548 -17.309  0.00  0.00    -0.646 OA
ENDBRANCH  15  16
BRANCH  15  19
HETATM   19  C           1     -36.601   0.298 -15.935  0.00  0.00     0.014 C 
HETATM   20  C           1     -38.061   0.655 -15.690  0.00  0.00     0.012 C 
BRANCH  19  21
HETATM   21  C           1     -35.711   1.410 -15.395  0.00  0.00     0.002 C 
HETATM   22  C           1     -35.981   2.697 -16.163  0.00  0.00     0.005 C 
ENDBRANCH  19  21
ENDBRANCH  15  19
ENDBRANCH  13  15
ENDBRANCH   1  11
BRANCH   1  23
HETATM   23  N           1     -36.127   0.867 -10.937  0.00  0.00    -0.066 N 
HETATM   24  H           1     -36.326   0.749  -9.918  0.00  0.00     0.275 HD
HETATM   25  H           1     -37.006   1.134 -11.435  0.00  0.00     0.275 HD
HETATM   26  H           1     -35.411   1.616 -11.068  0.00  0.00     0.275 HD
ENDBRANCH   1  23
TORSDOF 9
ENDMDL
MODEL 7
REMARK VINA RESULT:      -6.4      1.918      3.039
REMARK  9 active torsions:
REMARK  status: ('A' for Active; 'I' for Inactive)
REMARK    1  A    between atoms: C_2  and  C_3 
REMARK    2  A    between atoms: C_2  and  C_17 
REMARK    3  A    between atoms: C_3  and  C_4 
REMARK    4  A    between atoms: C_3  and  N_22 
REMARK       I    between atoms: C_4  and  N_5 
REMARK    5  A    between atoms: N_5  and  C_15 
REMARK    6  A    between atoms: C_8  and  C_15 
REMARK    7  A    between atoms: C_9  and  O_11 
REMARK    8  A    between atoms: C_15  and  C_25 
REMARK    9  A    between atoms: C_24  and  C_25 
ROOT
HETATM    1  C           1     -20.213  -7.523  -5.446  0.00  0.00     0.278 C 
ENDROOT
BRANCH   1   2
HETATM    2  C           1     -20.617  -6.070  -5.232  0.00  0.00     0.081 C 
BRANCH   2   3
HETATM    3  C           1     -20.836  -5.411  -6.559  0.00  0.00    -0.056 A 
HETATM    4  C           1     -19.791  -5.332  -7.479  0.00  0.00     0.010 A 
HETATM    5  C           1     -19.994  -4.719  -8.715  0.00  0.00     0.037 A 
HETATM    6  C           1     -21.243  -4.185  -9.031  0.00  0.00     0.065 A 
HETATM    7  C           1     -22.289  -4.265  -8.111  0.00  0.00     0.037 A 
HETATM    8  C           1     -22.086  -4.878  -6.875  0.00  0.00     0.010 A 
BRANCH   6   9
HETATM    9  O           1     -21.442  -3.589 -10.233  0.00  0.00    -0.361 OA
HETATM   10  H           1     -22.371  -3.309 -10.278  0.00  0.00     0.217 HD
ENDBRANCH   6   9
ENDBRANCH   2   3
ENDBRANCH   1   2
BRANCH   1  11
HETATM   11  C           1     -19.946  -8.174  -4.111  0.00  0.00     0.249 C 
HETATM   12  O           1     -18.901  -8.747  -3.917  0.00  0.00    -0.271 OA
HETATM   13  N           1     -20.890  -8.115  -3.121  0.00  0.00    -0.344 N 
HETATM   14  H           1     -21.765  -7.635  -3.285  0.00  0.00     0.163 HD
BRANCH  13  15
HETATM   15  C           1     -20.633  -8.741  -1.839  0.00  0.00     0.189 C 
BRANCH  15  16
HETATM   16  C           1     -21.302 -10.094  -1.797  0.00  0.00     0.197 C 
HETATM   17  O           1     -22.426 -10.252  -2.321  0.00  0.00    -0.646 OA
HETATM   18  O           1     -20.731 -11.055  -1.240  0.00  0.00    -0.646 OA
ENDBRANCH  15  16
BRANCH  15  19
HETATM   19  C           1     -21.193  -7.866  -0.725  0.00  0.00     0.014 C 
HETATM   20  C           1     -22.193  -6.877  -1.310  0.00  0.00     0.012 C 
BRANCH  19  21
HETATM   21  C           1     -21.890  -8.741   0.307  0.00  0.00     0.002 C 
HETATM   22  C           1     -23.254  -8.149   0.639  0.00  0.00     0.005 C 
ENDBRANCH  19  21
ENDBRANCH  15  19
ENDBRANCH  13  15
ENDBRANCH   1  11
BRANCH   1  23
HETATM   23  N           1     -21.321  -8.252  -6.146  0.00  0.00    -0.066 N 
HETATM   24  H           1     -20.915  -8.975  -6.782  0.00  0.00     0.275 HD
HETATM   25  H           1     -21.885  -7.572  -6.705  0.00  0.00     0.275 HD
HETATM   26  H           1     -21.935  -8.715  -5.439  0.00  0.00     0.275 HD
ENDBRANCH   1  23
TORSDOF 9
ENDMDL
MODEL 8
REMARK VINA RESULT:      -6.4     12.704     14.699
REMARK  9 active torsions:
REMARK  status: ('A' for Active; 'I' for Inactive)
REMARK    1  A    between atoms: C_2  and  C_3 
REMARK    2  A    between atoms: C_2  and  C_17 
REMARK    3  A    between atoms: C_3  and  C_4 
REMARK    4  A    between atoms: C_3  and  N_22 
REMARK       I    between atoms: C_4  and  N_5 
REMARK    5  A    between atoms: N_5  and  C_15 
REMARK    6  A    between atoms: C_8  and  C_15 
REMARK    7  A    between atoms: C_9  and  O_11 
REMARK    8  A    between atoms: C_15  and  C_25 
REMARK    9  A    between atoms: C_24  and  C_25 
ROOT
HETATM    1  C           1     -26.126  -7.498 -20.446  0.00  0.00     0.278 C 
ENDROOT
BRANCH   1   2
HETATM    2  C           1     -25.239  -6.871 -21.513  0.00  0.00     0.081 C 
BRANCH   2   3
HETATM    3  C           1     -23.947  -7.623 -21.595  0.00  0.00    -0.056 A 
HETATM    4  C           1     -23.506  -8.119 -22.821  0.00  0.00     0.010 A 
HETATM    5  C           1     -22.302  -8.820 -22.899  0.00  0.00     0.037 A 
HETATM    6  C           1     -21.540  -9.024 -21.748  0.00  0.00     0.065 A 
HETATM    7  C           1     -21.981  -8.527 -20.522  0.00  0.00     0.037 A 
HETATM    8  C           1     -23.184  -7.827 -20.445  0.00  0.00     0.010 A 
BRANCH   6   9
HETATM    9  O           1     -20.370  -9.705 -21.823  0.00  0.00    -0.361 OA
HETATM   10  H           1     -19.777  -9.359 -21.135  0.00  0.00     0.217 HD
ENDBRANCH   6   9
ENDBRANCH   2   3
ENDBRANCH   1   2
BRANCH   1  11
HETATM   11  C           1     -27.056  -6.450 -19.884  0.00  0.00     0.249 C 
HETATM   12  O           1     -27.400  -5.518 -20.571  0.00  0.00    -0.271 OA
HETATM   13  N           1     -27.507  -6.555 -18.596  0.00  0.00    -0.344 N 
HETATM   14  H           1     -27.218  -7.336 -18.021  0.00  0.00     0.163 HD
BRANCH  13  15
HETATM   15  C           1     -28.400  -5.548 -18.057  0.00  0.00     0.189 C 
BRANCH  15  16
HETATM   16  C           1     -27.789  -4.949 -16.813  0.00  0.00     0.197 C 
HETATM   17  O           1     -27.948  -3.736 -16.560  0.00  0.00    -0.646 OA
HETATM   18  O           1     -27.125  -5.667 -16.036  0.00  0.00    -0.646 OA
ENDBRANCH  15  16
BRANCH  15  19
HETATM   19  C           1     -29.736  -6.189 -17.705  0.00  0.00     0.014 C 
HETATM   20  C           1     -29.520  -7.657 -17.363  0.00  0.00     0.012 C 
BRANCH  19  21
HETATM   21  C           1     -30.343  -5.473 -16.505  0.00  0.00     0.002 C 
HETATM   22  C           1     -31.451  -4.541 -16.977  0.00  0.00     0.005 C 
ENDBRANCH  19  21
ENDBRANCH  15  19
ENDBRANCH  13  15
ENDBRANCH   1  11
BRANCH   1  23
HETATM   23  N           1     -26.933  -8.606 -21.055  0.00  0.00    -0.066 N 
HETATM   24  H           1     -26.627  -8.756 -22.043  0.00  0.00     0.275 HD
HETATM   25  H           1     -27.946  -8.349 -21.037  0.00  0.00     0.275 HD
HETATM   26  H           1     -26.787  -9.485 -20.509  0.00  0.00     0.275 HD
ENDBRANCH   1  23
TORSDOF 9
ENDMDL
MODEL 9
REMARK VINA RESULT:      -6.3      6.798      8.871
REMARK  9 active torsions:
REMARK  status: ('A' for Active; 'I' for Inactive)
REMARK    1  A    between atoms: C_2  and  C_3 
REMARK    2  A    between atoms: C_2  and  C_17 
REMARK    3  A    between atoms: C_3  and  C_4 
REMARK    4  A    between atoms: C_3  and  N_22 
REMARK       I    between atoms: C_4  and  N_5 
REMARK    5  A    between atoms: N_5  and  C_15 
REMARK    6  A    between atoms: C_8  and  C_15 
REMARK    7  A    between atoms: C_9  and  O_11 
REMARK    8  A    between atoms: C_15  and  C_25 
REMARK    9  A    between atoms: C_24  and  C_25 
ROOT
HETATM    1  C           1     -20.834 -11.674  -0.324  0.00  0.00     0.278 C 
ENDROOT
BRANCH   1   2
HETATM    2  C           1     -20.656 -10.471   0.594  0.00  0.00     0.081 C 
BRANCH   2   3
HETATM    3  C           1     -21.165  -9.240  -0.091  0.00  0.00    -0.056 A 
HETATM    4  C           1     -22.208  -8.508   0.475  0.00  0.00     0.010 A 
HETATM    5  C           1     -22.682  -7.361  -0.162  0.00  0.00     0.037 A 
HETATM    6  C           1     -22.111  -6.946  -1.365  0.00  0.00     0.065 A 
HETATM    7  C           1     -21.066  -7.678  -1.930  0.00  0.00     0.037 A 
HETATM    8  C           1     -20.593  -8.824  -1.293  0.00  0.00     0.010 A 
BRANCH   6   9
HETATM    9  O           1     -22.570  -5.831  -1.984  0.00  0.00    -0.361 OA
HETATM   10  H           1     -23.459  -6.023  -2.327  0.00  0.00     0.217 HD
ENDBRANCH   6   9
ENDBRANCH   2   3
ENDBRANCH   1   2
BRANCH   1  11
HETATM   11  C           1     -19.506 -12.363  -0.514  0.00  0.00     0.249 C 
HETATM   12  O           1     -19.466 -13.556  -0.702  0.00  0.00    -0.271 OA
HETATM   13  N           1     -18.346 -11.638  -0.473  0.00  0.00    -0.344 N 
HETATM   14  H           1     -18.379 -10.639  -0.316  0.00  0.00     0.163 HD
BRANCH  13  15
HETATM   15  C           1     -17.069 -12.301  -0.656  0.00  0.00     0.189 C 
BRANCH  15  16
HETATM   16  C           1     -16.414 -12.509   0.688  0.00  0.00     0.197 C 
HETATM   17  O           1     -16.724 -13.497   1.388  0.00  0.00    -0.646 OA
HETATM   18  O           1     -15.561 -11.695   1.099  0.00  0.00    -0.646 OA
ENDBRANCH  15  16
BRANCH  15  19
HETATM   19  C           1     -16.169 -11.438  -1.529  0.00  0.00     0.014 C 
HETATM   20  C           1     -15.397 -12.326  -2.497  0.00  0.00     0.012 C 
BRANCH  19  21
HETATM   21  C           1     -17.019 -10.450  -2.316  0.00  0.00     0.002 C 
HETATM   22  C           1     -16.114  -9.454  -3.029  0.00  0.00     0.005 C 
ENDBRANCH  19  21
ENDBRANCH  15  19
ENDBRANCH  13  15
ENDBRANCH   1  11
BRANCH   1  23
HETATM   23  N           1     -21.811 -12.631   0.292  0.00  0.00    -0.066 N 
HETATM   24  H           1     -21.324 -13.528   0.516  0.00  0.00     0.275 HD
HETATM   25  H           1     -22.589 -12.814  -0.381  0.00  0.00     0.275 HD
HETATM   26  H           1     -22.200 -12.217   1.169  0.00  0.00     0.275 HD
ENDBRANCH   1  23
TORSDOF 9
ENDMDL
