MODEL 1
REMARK VINA RESULT:      -5.4      0.000      0.000
REMARK  9 active torsions:
REMARK  status: ('A' for Active; 'I' for Inactive)
REMARK    1  A    between atoms: N_2  and  C_5 
REMARK    2  A    between atoms: C_5  and  C_8 
REMARK    3  A    between atoms: C_5  and  C_12 
REMARK    4  A    between atoms: N_6  and  C_7 
REMARK       I    between atoms: N_6  and  C_8 
REMARK    5  A    between atoms: C_7  and  C_16 
REMARK    6  A    between atoms: C_7  and  C_13 
REMARK    7  A    between atoms: S_11  and  C_14 
REMARK    8  A    between atoms: C_12  and  C_14 
REMARK    9  A    between atoms: Se_15  and  C_16 
ROOT
HETATM    1  H           1     -35.276  -1.879 -14.000  0.00  0.00     0.163 HD
HETATM    2  O           1     -33.925  -1.874 -11.170  0.00  0.00    -0.271 OA
HETATM    3  N           1     -34.958  -1.507 -13.115  0.00  0.00    -0.345 N 
HETATM    4  C           1     -34.306  -2.319 -12.227  0.00  0.00     0.249 C 
ENDROOT
BRANCH   4   5
HETATM    5  C           1     -34.062  -3.769 -12.567  0.00  0.00     0.275 C 
BRANCH   5   6
HETATM    6  N           1     -33.876  -3.909 -14.049  0.00  0.00    -0.066 N 
HETATM    7  H           1     -32.994  -3.429 -14.337  0.00  0.00     0.275 HD
HETATM    8  H           1     -33.818  -4.922 -14.298  0.00  0.00     0.275 HD
HETATM    9  H           1     -34.687  -3.474 -14.544  0.00  0.00     0.275 HD
ENDBRANCH   5   6
BRANCH   5  10
HETATM   10  C           1     -32.809  -4.256 -11.851  0.00  0.00     0.053 C 
BRANCH  10  11
HETATM   11  C           1     -33.054  -5.652 -11.292  0.00  0.00     0.076 C 
BRANCH  11  12
HETATM   12  S           1     -34.670  -5.699 -10.468  0.00  0.00    -0.173 SA
HETATM   13  C           1     -34.682  -7.487 -10.156  0.00  0.00     0.089 C 
ENDBRANCH  11  12
ENDBRANCH  10  11
ENDBRANCH   5  10
ENDBRANCH   4   5
BRANCH   3  14
HETATM   14  C           1     -35.192  -0.114 -12.788  0.00  0.00     0.185 C 
BRANCH  14  15
HETATM   15  C           1     -35.365   0.686 -14.072  0.00  0.00     0.039 C 
BRANCH  15  16
HETATM   16 Se           1     -35.680  -0.533 -15.560  0.00  0.00     0.000 Se
HETATM   17  H           1     -36.750   0.284 -16.155  0.00  0.00     0.000 HD
ENDBRANCH  15  16
ENDBRANCH  14  15
BRANCH  14  18
HETATM   18  C           1     -36.441   0.002 -11.950  0.00  0.00     0.196 C 
HETATM   19  O           1     -37.542  -0.364 -12.416  0.00  0.00    -0.646 OA
HETATM   20  O           1     -36.376   0.462 -10.790  0.00  0.00    -0.646 OA
ENDBRANCH  14  18
ENDBRANCH   3  14
TORSDOF 9
ENDMDL
MODEL 2
REMARK VINA RESULT:      -5.3     12.414     13.941
REMARK  9 active torsions:
REMARK  status: ('A' for Active; 'I' for Inactive)
REMARK    1  A    between atoms: N_2  and  C_5 
REMARK    2  A    between atoms: C_5  and  C_8 
REMARK    3  A    between atoms: C_5  and  C_12 
REMARK    4  A    between atoms: N_6  and  C_7 
REMARK       I    between atoms: N_6  and  C_8 
REMARK    5  A    between atoms: C_7  and  C_16 
REMARK    6  A    between atoms: C_7  and  C_13 
REMARK    7  A    between atoms: S_11  and  C_14 
REMARK    8  A    between atoms: C_12  and  C_14 
REMARK    9  A    between atoms: Se_15  and  C_16 
ROOT
HETATM    1  H           1     -22.363  -5.690  -9.443  0.00  0.00     0.163 HD
HETATM    2  O           1     -21.802  -3.574  -7.197  0.00  0.00    -0.271 OA
HETATM    3  N           1     -22.348  -4.785  -8.991  0.00  0.00    -0.345 N 
HETATM    4  C           1     -21.821  -4.655  -7.735  0.00  0.00     0.249 C 
ENDROOT
BRANCH   4   5
HETATM    5  C           1     -21.261  -5.862  -7.023  0.00  0.00     0.275 C 
BRANCH   5   6
HETATM    6  N           1     -19.856  -6.107  -7.486  0.00  0.00    -0.066 N 
HETATM    7  H           1     -19.835  -6.947  -8.107  0.00  0.00     0.275 HD
HETATM    8  H           1     -19.513  -5.274  -8.016  0.00  0.00     0.275 HD
HETATM    9  H           1     -19.240  -6.271  -6.658  0.00  0.00     0.275 HD
ENDBRANCH   5   6
BRANCH   5  10
HETATM   10  C           1     -21.264  -5.612  -5.520  0.00  0.00     0.053 C 
BRANCH  10  11
HETATM   11  C           1     -22.169  -6.630  -4.838  0.00  0.00     0.076 C 
BRANCH  11  12
HETATM   12  S           1     -21.327  -7.305  -3.378  0.00  0.00    -0.173 SA
HETATM   13  C           1     -22.088  -6.182  -2.172  0.00  0.00     0.089 C 
ENDBRANCH  11  12
ENDBRANCH  10  11
ENDBRANCH   5  10
ENDBRANCH   4   5
BRANCH   3  14
HETATM   14  C           1     -22.886  -3.625  -9.676  0.00  0.00     0.185 C 
BRANCH  14  15
HETATM   15  C           1     -22.040  -3.326 -10.907  0.00  0.00     0.039 C 
BRANCH  15  16
HETATM   16 Se           1     -20.385  -4.351 -10.823  0.00  0.00     0.000 Se
HETATM   17  H           1     -19.971  -4.017 -12.195  0.00  0.00     0.000 HD
ENDBRANCH  15  16
ENDBRANCH  14  15
BRANCH  14  18
HETATM   18  C           1     -24.307  -3.905 -10.097  0.00  0.00     0.196 C 
HETATM   19  O           1     -24.870  -4.962  -9.735  0.00  0.00    -0.646 OA
HETATM   20  O           1     -24.923  -3.082 -10.808  0.00  0.00    -0.646 OA
ENDBRANCH  14  18
ENDBRANCH   3  14
TORSDOF 9
ENDMDL
MODEL 3
REMARK VINA RESULT:      -5.3      2.433      2.693
REMARK  9 active torsions:
REMARK  status: ('A' for Active; 'I' for Inactive)
REMARK    1  A    between atoms: N_2  and  C_5 
REMARK    2  A    between atoms: C_5  and  C_8 
REMARK    3  A    between atoms: C_5  and  C_12 
REMARK    4  A    between atoms: N_6  and  C_7 
REMARK       I    between atoms: N_6  and  C_8 
REMARK    5  A    between atoms: C_7  and  C_16 
REMARK    6  A    between atoms: C_7  and  C_13 
REMARK    7  A    between atoms: S_11  and  C_14 
REMARK    8  A    between atoms: C_12  and  C_14 
REMARK    9  A    between atoms: Se_15  and  C_16 
ROOT
HETATM    1  H           1     -35.556  -0.014 -11.848  0.00  0.00     0.163 HD
HETATM    2  O           1     -34.706  -2.560 -13.470  0.00  0.00    -0.271 OA
HETATM    3  N           1     -35.554  -0.684 -12.606  0.00  0.00    -0.345 N 
HETATM    4  C           1     -34.708  -1.760 -12.565  0.00  0.00     0.249 C 
ENDROOT
BRANCH   4   5
HETATM    5  C           1     -33.778  -1.946 -11.391  0.00  0.00     0.275 C 
BRANCH   5   6
HETATM    6  N           1     -34.551  -1.796 -10.115  0.00  0.00    -0.066 N 
HETATM    7  H           1     -34.501  -0.804  -9.791  0.00  0.00     0.275 HD
HETATM    8  H           1     -35.549  -2.057 -10.279  0.00  0.00     0.275 HD
HETATM    9  H           1     -34.142  -2.422  -9.385  0.00  0.00     0.275 HD
ENDBRANCH   5   6
BRANCH   5  10
HETATM   10  C           1     -33.158  -3.335 -11.449  0.00  0.00     0.053 C 
BRANCH  10  11
HETATM   11  C           1     -33.937  -4.277 -10.539  0.00  0.00     0.076 C 
BRANCH  11  12
HETATM   12  S           1     -34.536  -5.693 -11.504  0.00  0.00    -0.173 SA
HETATM   13  C           1     -34.644  -6.852 -10.111  0.00  0.00     0.089 C 
ENDBRANCH  11  12
ENDBRANCH  10  11
ENDBRANCH   5  10
ENDBRANCH   4   5
BRANCH   3  14
HETATM   14  C           1     -36.447  -0.506 -13.734  0.00  0.00     0.185 C 
BRANCH  14  15
HETATM   15  C           1     -37.824  -0.093 -13.229  0.00  0.00     0.039 C 
BRANCH  15  16
HETATM   16 Se           1     -37.841  -0.131 -11.281  0.00  0.00     0.000 Se
HETATM   17  H           1     -39.290  -0.367 -11.182  0.00  0.00     0.000 HD
ENDBRANCH  15  16
ENDBRANCH  14  15
BRANCH  14  18
HETATM   18  C           1     -35.901   0.569 -14.641  0.00  0.00     0.196 C 
HETATM   19  O           1     -36.368   0.712 -15.792  0.00  0.00    -0.646 OA
HETATM   20  O           1     -34.981   1.315 -14.243  0.00  0.00    -0.646 OA
ENDBRANCH  14  18
ENDBRANCH   3  14
TORSDOF 9
ENDMDL
MODEL 4
REMARK VINA RESULT:      -4.6      2.091      5.904
REMARK  9 active torsions:
REMARK  status: ('A' for Active; 'I' for Inactive)
REMARK    1  A    between atoms: N_2  and  C_5 
REMARK    2  A    between atoms: C_5  and  C_8 
REMARK    3  A    between atoms: C_5  and  C_12 
REMARK    4  A    between atoms: N_6  and  C_7 
REMARK       I    between atoms: N_6  and  C_8 
REMARK    5  A    between atoms: C_7  and  C_16 
REMARK    6  A    between atoms: C_7  and  C_13 
REMARK    7  A    between atoms: S_11  and  C_14 
REMARK    8  A    between atoms: C_12  and  C_14 
REMARK    9  A    between atoms: Se_15  and  C_16 
ROOT
HETATM    1  H           1     -36.222  -3.462 -11.907  0.00  0.00     0.163 HD
HETATM    2  O           1     -34.102  -1.931 -10.175  0.00  0.00    -0.271 OA
HETATM    3  N           1     -35.356  -3.307 -11.408  0.00  0.00    -0.345 N 
HETATM    4  C           1     -35.136  -2.115 -10.772  0.00  0.00     0.249 C 
ENDROOT
BRANCH   4   5
HETATM    5  C           1     -36.185  -1.031 -10.817  0.00  0.00     0.275 C 
BRANCH   5   6
HETATM    6  N           1     -36.177  -0.276  -9.521  0.00  0.00    -0.066 N 
HETATM    7  H           1     -35.804  -0.890  -8.762  0.00  0.00     0.275 HD
HETATM    8  H           1     -35.569   0.569  -9.614  0.00  0.00     0.275 HD
HETATM    9  H           1     -37.150   0.020  -9.284  0.00  0.00     0.275 HD
ENDBRANCH   5   6
BRANCH   5  10
HETATM   10  C           1     -35.881  -0.075 -11.962  0.00  0.00     0.053 C 
BRANCH  10  11
HETATM   11  C           1     -36.926  -0.245 -13.057  0.00  0.00     0.076 C 
BRANCH  11  12
HETATM   12  S           1     -36.205   0.213 -14.659  0.00  0.00    -0.173 SA
HETATM   13  C           1     -34.716   1.005 -13.988  0.00  0.00     0.089 C 
ENDBRANCH  11  12
ENDBRANCH  10  11
ENDBRANCH   5  10
ENDBRANCH   4   5
BRANCH   3  14
HETATM   14  C           1     -34.348  -4.349 -11.365  0.00  0.00     0.185 C 
BRANCH  14  15
HETATM   15  C           1     -35.006  -5.701 -11.608  0.00  0.00     0.039 C 
BRANCH  15  16
HETATM   16 Se           1     -34.620  -6.890 -10.113  0.00  0.00     0.000 Se
HETATM   17  H           1     -33.224  -6.447  -9.970  0.00  0.00     0.000 HD
ENDBRANCH  15  16
ENDBRANCH  14  15
BRANCH  14  18
HETATM   18  C           1     -33.315  -4.092 -12.434  0.00  0.00     0.196 C 
HETATM   19  O           1     -32.107  -4.319 -12.204  0.00  0.00    -0.646 OA
HETATM   20  O           1     -33.666  -3.652 -13.550  0.00  0.00    -0.646 OA
ENDBRANCH  14  18
ENDBRANCH   3  14
TORSDOF 9
ENDMDL
MODEL 5
REMARK VINA RESULT:      -4.6     12.760     14.373
REMARK  9 active torsions:
REMARK  status: ('A' for Active; 'I' for Inactive)
REMARK    1  A    between atoms: N_2  and  C_5 
REMARK    2  A    between atoms: C_5  and  C_8 
REMARK    3  A    between atoms: C_5  and  C_12 
REMARK    4  A    between atoms: N_6  and  C_7 
REMARK       I    between atoms: N_6  and  C_8 
REMARK    5  A    between atoms: C_7  and  C_16 
REMARK    6  A    between atoms: C_7  and  C_13 
REMARK    7  A    between atoms: S_11  and  C_14 
REMARK    8  A    between atoms: C_12  and  C_14 
REMARK    9  A    between atoms: Se_15  and  C_16 
ROOT
HETATM    1  H           1     -22.549  -3.569  -8.933  0.00  0.00     0.163 HD
HETATM    2  O           1     -19.855  -5.027  -9.605  0.00  0.00    -0.271 OA
HETATM    3  N           1     -21.884  -4.104  -9.476  0.00  0.00    -0.345 N 
HETATM    4  C           1     -20.649  -4.387  -8.958  0.00  0.00     0.249 C 
ENDROOT
BRANCH   4   5
HETATM    5  C           1     -20.279  -3.900  -7.578  0.00  0.00     0.275 C 
BRANCH   5   6
HETATM    6  N           1     -21.472  -3.251  -6.942  0.00  0.00    -0.066 N 
HETATM    7  H           1     -21.206  -2.306  -6.585  0.00  0.00     0.275 HD
HETATM    8  H           1     -22.234  -3.153  -7.650  0.00  0.00     0.275 HD
HETATM    9  H           1     -21.808  -3.842  -6.148  0.00  0.00     0.275 HD
ENDBRANCH   5   6
BRANCH   5  10
HETATM   10  C           1     -19.829  -5.079  -6.726  0.00  0.00     0.053 C 
BRANCH  10  11
HETATM   11  C           1     -20.527  -5.024  -5.373  0.00  0.00     0.076 C 
BRANCH  11  12
HETATM   12  S           1     -21.100  -6.686  -4.920  0.00  0.00    -0.173 SA
HETATM   13  C           1     -21.504  -6.294  -3.195  0.00  0.00     0.089 C 
ENDBRANCH  11  12
ENDBRANCH  10  11
ENDBRANCH   5  10
ENDBRANCH   4   5
BRANCH   3  14
HETATM   14  C           1     -22.239  -4.573 -10.801  0.00  0.00     0.185 C 
BRANCH  14  15
HETATM   15  C           1     -23.739  -4.832 -10.862  0.00  0.00     0.039 C 
BRANCH  15  16
HETATM   16 Se           1     -24.677  -3.469  -9.833  0.00  0.00     0.000 Se
HETATM   17  H           1     -24.704  -4.258  -8.591  0.00  0.00     0.000 HD
ENDBRANCH  15  16
ENDBRANCH  14  15
BRANCH  14  18
HETATM   18  C           1     -21.868  -3.523 -11.820  0.00  0.00     0.196 C 
HETATM   19  O           1     -21.533  -2.379 -11.444  0.00  0.00    -0.646 OA
HETATM   20  O           1     -21.896  -3.798 -13.039  0.00  0.00    -0.646 OA
ENDBRANCH  14  18
ENDBRANCH   3  14
TORSDOF 9
ENDMDL
MODEL 6
REMARK VINA RESULT:      -4.5     12.512     14.044
REMARK  9 active torsions:
REMARK  status: ('A' for Active; 'I' for Inactive)
REMARK    1  A    between atoms: N_2  and  C_5 
REMARK    2  A    between atoms: C_5  and  C_8 
REMARK    3  A    between atoms: C_5  and  C_12 
REMARK    4  A    between atoms: N_6  and  C_7 
REMARK       I    between atoms: N_6  and  C_8 
REMARK    5  A    between atoms: C_7  and  C_16 
REMARK    6  A    between atoms: C_7  and  C_13 
REMARK    7  A    between atoms: S_11  and  C_14 
REMARK    8  A    between atoms: C_12  and  C_14 
REMARK    9  A    between atoms: Se_15  and  C_16 
ROOT
HETATM    1  H           1     -22.992  -5.732  -8.374  0.00  0.00     0.163 HD
HETATM    2  O           1     -21.411  -3.243  -7.303  0.00  0.00    -0.271 OA
HETATM    3  N           1     -22.587  -4.804  -8.382  0.00  0.00    -0.345 N 
HETATM    4  C           1     -21.895  -4.350  -7.292  0.00  0.00     0.249 C 
ENDROOT
BRANCH   4   5
HETATM    5  C           1     -21.736  -5.232  -6.078  0.00  0.00     0.275 C 
BRANCH   5   6
HETATM    6  N           1     -23.080  -5.743  -5.653  0.00  0.00    -0.066 N 
HETATM    7  H           1     -23.143  -6.766  -5.853  0.00  0.00     0.275 HD
HETATM    8  H           1     -23.206  -5.580  -4.628  0.00  0.00     0.275 HD
HETATM    9  H           1     -23.827  -5.238  -6.180  0.00  0.00     0.275 HD
ENDBRANCH   5   6
BRANCH   5  10
HETATM   10  C           1     -20.830  -6.408  -6.418  0.00  0.00     0.053 C 
BRANCH  10  11
HETATM   11  C           1     -21.355  -7.666  -5.737  0.00  0.00     0.076 C 
BRANCH  11  12
HETATM   12  S           1     -20.388  -7.990  -4.236  0.00  0.00    -0.173 SA
HETATM   13  C           1     -19.147  -9.054  -5.024  0.00  0.00     0.089 C 
ENDBRANCH  11  12
ENDBRANCH  10  11
ENDBRANCH   5  10
ENDBRANCH   4   5
BRANCH   3  14
HETATM   14  C           1     -22.740  -3.957  -9.549  0.00  0.00     0.185 C 
BRANCH  14  15
HETATM   15  C           1     -21.915  -4.523 -10.698  0.00  0.00     0.039 C 
BRANCH  15  16
HETATM   16 Se           1     -20.518  -3.252 -11.183  0.00  0.00     0.000 Se
HETATM   17  H           1     -19.590  -3.693 -10.129  0.00  0.00     0.000 HD
ENDBRANCH  15  16
ENDBRANCH  14  15
BRANCH  14  18
HETATM   18  C           1     -24.194  -3.911  -9.949  0.00  0.00     0.196 C 
HETATM   19  O           1     -24.648  -2.909 -10.543  0.00  0.00    -0.646 OA
HETATM   20  O           1     -24.945  -4.875  -9.686  0.00  0.00    -0.646 OA
ENDBRANCH  14  18
ENDBRANCH   3  14
TORSDOF 9
ENDMDL
MODEL 7
REMARK VINA RESULT:      -4.4     13.860     16.227
REMARK  9 active torsions:
REMARK  status: ('A' for Active; 'I' for Inactive)
REMARK    1  A    between atoms: N_2  and  C_5 
REMARK    2  A    between atoms: C_5  and  C_8 
REMARK    3  A    between atoms: C_5  and  C_12 
REMARK    4  A    between atoms: N_6  and  C_7 
REMARK       I    between atoms: N_6  and  C_8 
REMARK    5  A    between atoms: C_7  and  C_16 
REMARK    6  A    between atoms: C_7  and  C_13 
REMARK    7  A    between atoms: S_11  and  C_14 
REMARK    8  A    between atoms: C_12  and  C_14 
REMARK    9  A    between atoms: Se_15  and  C_16 
ROOT
HETATM    1  H           1     -19.931  -6.438  -4.815  0.00  0.00     0.163 HD
HETATM    2  O           1     -22.923  -5.872  -5.568  0.00  0.00    -0.271 OA
HETATM    3  N           1     -20.938  -6.531  -4.785  0.00  0.00    -0.345 N 
HETATM    4  C           1     -21.720  -5.761  -5.603  0.00  0.00     0.249 C 
ENDROOT
BRANCH   4   5
HETATM    5  C           1     -21.081  -4.774  -6.549  0.00  0.00     0.275 C 
BRANCH   5   6
HETATM    6  N           1     -19.602  -4.735  -6.305  0.00  0.00    -0.066 N 
HETATM    7  H           1     -19.413  -4.877  -5.287  0.00  0.00     0.275 HD
HETATM    8  H           1     -19.138  -5.494  -6.853  0.00  0.00     0.275 HD
HETATM    9  H           1     -19.224  -3.808  -6.603  0.00  0.00     0.275 HD
ENDBRANCH   5   6
BRANCH   5  10
HETATM   10  C           1     -21.346  -5.203  -7.987  0.00  0.00     0.053 C 
BRANCH  10  11
HETATM   11  C           1     -21.806  -3.999  -8.799  0.00  0.00     0.076 C 
BRANCH  11  12
HETATM   12  S           1     -23.611  -4.048  -8.984  0.00  0.00    -0.173 SA
HETATM   13  C           1     -23.622  -4.817 -10.628  0.00  0.00     0.089 C 
ENDBRANCH  11  12
ENDBRANCH  10  11
ENDBRANCH   5  10
ENDBRANCH   4   5
BRANCH   3  14
HETATM   14  C           1     -21.552  -7.479  -3.876  0.00  0.00     0.185 C 
BRANCH  14  15
HETATM   15  C           1     -20.744  -8.770  -3.868  0.00  0.00     0.039 C 
BRANCH  15  16
HETATM   16 Se           1     -21.948 -10.289  -3.668  0.00  0.00     0.000 Se
HETATM   17  H           1     -22.079 -10.142  -2.209  0.00  0.00     0.000 HD
ENDBRANCH  15  16
ENDBRANCH  14  15
BRANCH  14  18
HETATM   18  C           1     -21.581  -6.894  -2.485  0.00  0.00     0.196 C 
HETATM   19  O           1     -20.882  -7.399  -1.580  0.00  0.00    -0.646 OA
HETATM   20  O           1     -22.303  -5.905  -2.238  0.00  0.00    -0.646 OA
ENDBRANCH  14  18
ENDBRANCH   3  14
TORSDOF 9
ENDMDL
MODEL 8
REMARK VINA RESULT:      -4.4     25.189     26.318
REMARK  9 active torsions:
REMARK  status: ('A' for Active; 'I' for Inactive)
REMARK    1  A    between atoms: N_2  and  C_5 
REMARK    2  A    between atoms: C_5  and  C_8 
REMARK    3  A    between atoms: C_5  and  C_12 
REMARK    4  A    between atoms: N_6  and  C_7 
REMARK       I    between atoms: N_6  and  C_8 
REMARK    5  A    between atoms: C_7  and  C_16 
REMARK    6  A    between atoms: C_7  and  C_13 
REMARK    7  A    between atoms: S_11  and  C_14 
REMARK    8  A    between atoms: C_12  and  C_14 
REMARK    9  A    between atoms: Se_15  and  C_16 
ROOT
HETATM    1  H           1     -12.205   5.090 -19.365  0.00  0.00     0.163 HD
HETATM    2  O           1     -11.132   6.197 -22.097  0.00  0.00    -0.271 OA
HETATM    3  N           1     -12.163   5.235 -20.366  0.00  0.00    -0.345 N 
HETATM    4  C           1     -11.183   6.025 -20.902  0.00  0.00     0.249 C 
ENDROOT
BRANCH   4   5
HETATM    5  C           1     -10.164   6.680 -20.002  0.00  0.00     0.275 C 
BRANCH   5   6
HETATM    6  N           1      -9.338   5.624 -19.331  0.00  0.00    -0.066 N 
HETATM    7  H           1      -8.462   6.053 -18.955  0.00  0.00     0.275 HD
HETATM    8  H           1      -9.882   5.201 -18.546  0.00  0.00     0.275 HD
HETATM    9  H           1      -9.093   4.881 -20.024  0.00  0.00     0.275 HD
ENDBRANCH   5   6
BRANCH   5  10
HETATM   10  C           1      -9.259   7.583 -20.830  0.00  0.00     0.053 C 
BRANCH  10  11
HETATM   11  C           1      -9.631   9.039 -20.583  0.00  0.00     0.076 C 
BRANCH  11  12
HETATM   12  S           1     -10.777   9.142 -19.180  0.00  0.00    -0.173 SA
HETATM   13  C           1     -12.203   9.742 -20.130  0.00  0.00     0.089 C 
ENDBRANCH  11  12
ENDBRANCH  10  11
ENDBRANCH   5  10
ENDBRANCH   4   5
BRANCH   3  14
HETATM   14  C           1     -13.142   4.605 -21.231  0.00  0.00     0.185 C 
BRANCH  14  15
HETATM   15  C           1     -13.069   3.093 -21.062  0.00  0.00     0.039 C 
BRANCH  15  16
HETATM   16 Se           1     -11.223   2.564 -20.729  0.00  0.00     0.000 Se
HETATM   17  H           1     -11.533   1.131 -20.606  0.00  0.00     0.000 HD
ENDBRANCH  15  16
ENDBRANCH  14  15
BRANCH  14  18
HETATM   18  C           1     -14.523   5.087 -20.861  0.00  0.00     0.196 C 
HETATM   19  O           1     -14.836   5.221 -19.658  0.00  0.00    -0.646 OA
HETATM   20  O           1     -15.353   5.353 -21.756  0.00  0.00    -0.646 OA
ENDBRANCH  14  18
ENDBRANCH   3  14
TORSDOF 9
ENDMDL
MODEL 9
REMARK VINA RESULT:      -4.3     14.266     16.254
REMARK  9 active torsions:
REMARK  status: ('A' for Active; 'I' for Inactive)
REMARK    1  A    between atoms: N_2  and  C_5 
REMARK    2  A    between atoms: C_5  and  C_8 
REMARK    3  A    between atoms: C_5  and  C_12 
REMARK    4  A    between atoms: N_6  and  C_7 
REMARK       I    between atoms: N_6  and  C_8 
REMARK    5  A    between atoms: C_7  and  C_16 
REMARK    6  A    between atoms: C_7  and  C_13 
REMARK    7  A    between atoms: S_11  and  C_14 
REMARK    8  A    between atoms: C_12  and  C_14 
REMARK    9  A    between atoms: Se_15  and  C_16 
ROOT
HETATM    1  H           1     -23.070  -6.113  -4.897  0.00  0.00     0.163 HD
HETATM    2  O           1     -20.171  -5.427  -5.880  0.00  0.00    -0.271 OA
HETATM    3  N           1     -22.060  -6.054  -4.868  0.00  0.00    -0.345 N 
HETATM    4  C           1     -21.377  -5.498  -5.916  0.00  0.00     0.249 C 
ENDROOT
BRANCH   4   5
HETATM    5  C           1     -22.128  -4.974  -7.114  0.00  0.00     0.275 C 
BRANCH   5   6
HETATM    6  N           1     -23.514  -4.576  -6.700  0.00  0.00    -0.066 N 
HETATM    7  H           1     -23.989  -5.388  -6.245  0.00  0.00     0.275 HD
HETATM    8  H           1     -23.460  -3.782  -6.022  0.00  0.00     0.275 HD
HETATM    9  H           1     -24.058  -4.279  -7.541  0.00  0.00     0.275 HD
ENDBRANCH   5   6
BRANCH   5  10
HETATM   10  C           1     -21.401  -3.762  -7.681  0.00  0.00     0.053 C 
BRANCH  10  11
HETATM   11  C           1     -20.984  -4.046  -9.118  0.00  0.00     0.076 C 
BRANCH  11  12
HETATM   12  S           1     -22.453  -4.063 -10.183  0.00  0.00    -0.173 SA
HETATM   13  C           1     -21.557  -4.174 -11.758  0.00  0.00     0.089 C 
ENDBRANCH  11  12
ENDBRANCH  10  11
ENDBRANCH   5  10
ENDBRANCH   4   5
BRANCH   3  14
HETATM   14  C           1     -21.338  -6.558  -3.716  0.00  0.00     0.185 C 
BRANCH  14  15
HETATM   15  C           1     -22.216  -6.443  -2.477  0.00  0.00     0.039 C 
BRANCH  15  16
HETATM   16 Se           1     -21.537  -7.628  -1.087  0.00  0.00     0.000 Se
HETATM   17  H           1     -20.175  -7.070  -1.114  0.00  0.00     0.000 HD
ENDBRANCH  15  16
ENDBRANCH  14  15
BRANCH  14  18
HETATM   18  C           1     -20.975  -8.005  -3.945  0.00  0.00     0.196 C 
HETATM   19  O           1     -21.866  -8.834  -4.232  0.00  0.00    -0.646 OA
HETATM   20  O           1     -19.785  -8.374  -3.847  0.00  0.00    -0.646 OA
ENDBRANCH  14  18
ENDBRANCH   3  14
TORSDOF 9
ENDMDL
