MODEL 1
REMARK VINA RESULT:      -5.2      0.000      0.000
REMARK  6 active torsions:
REMARK  status: ('A' for Active; 'I' for Inactive)
REMARK    1  A    between atoms: N_1  and  C_3 
REMARK    2  A    between atoms: C_3  and  C_11 
REMARK    3  A    between atoms: S_4  and  C_5 
REMARK    4  A    between atoms: C_5  and  C_6 
REMARK    5  A    between atoms: C_6  and  C_7 
REMARK    6  A    between atoms: C_6  and  N_10 
REMARK       I    between atoms: N_10  and  C_11 
ROOT
HETATM    1  N           1     -26.519  -6.633 -18.258  0.00  0.00    -0.344 N 
HETATM    2  C           1     -25.362  -6.834 -18.962  0.00  0.00     0.248 C 
HETATM    3  O           1     -24.305  -6.474 -18.502  0.00  0.00    -0.271 OA
HETATM    4  H           1     -27.405  -6.936 -18.643  0.00  0.00     0.163 HD
ENDROOT
BRANCH   1   5
HETATM    5  C           1     -26.476  -5.987 -16.961  0.00  0.00     0.194 C 
BRANCH   5   6
HETATM    6  C           1     -27.707  -5.107 -16.791  0.00  0.00     0.106 C 
BRANCH   6   7
HETATM    7  S           1     -28.771  -5.263 -18.253  0.00  0.00    -0.180 SA
HETATM    8  H           1     -27.869  -5.909 -19.014  0.00  0.00     0.101 HD
ENDBRANCH   6   7
ENDBRANCH   5   6
BRANCH   5   9
HETATM    9  C           1     -26.453  -7.036 -15.877  0.00  0.00     0.197 C 
HETATM   10  O           1     -25.363  -7.498 -15.477  0.00  0.00    -0.646 OA
HETATM   11  O           1     -27.525  -7.444 -15.379  0.00  0.00    -0.646 OA
ENDBRANCH   5   9
ENDBRANCH   1   5
BRANCH   2  12
HETATM   12  C           1     -25.408  -7.508 -20.312  0.00  0.00     0.270 C 
HETATM   13  C           1     -24.953  -6.527 -21.384  0.00  0.00     0.050 C 
BRANCH  12  14
HETATM   14  N           1     -26.812  -7.949 -20.603  0.00  0.00    -0.067 N 
HETATM   15  H           1     -27.402  -7.821 -19.750  0.00  0.00     0.275 HD
HETATM   16  H           1     -27.202  -7.375 -21.385  0.00  0.00     0.275 HD
HETATM   17  H           1     -26.810  -8.957 -20.877  0.00  0.00     0.275 HD
ENDBRANCH  12  14
ENDBRANCH   2  12
TORSDOF 6
ENDMDL
MODEL 2
REMARK VINA RESULT:      -5.1     11.346     12.269
REMARK  6 active torsions:
REMARK  status: ('A' for Active; 'I' for Inactive)
REMARK    1  A    between atoms: N_1  and  C_3 
REMARK    2  A    between atoms: C_3  and  C_11 
REMARK    3  A    between atoms: S_4  and  C_5 
REMARK    4  A    between atoms: C_5  and  C_6 
REMARK    5  A    between atoms: C_6  and  C_7 
REMARK    6  A    between atoms: C_6  and  N_10 
REMARK       I    between atoms: N_10  and  C_11 
ROOT
HETATM    1  N           1     -35.046  -1.175 -12.301  0.00  0.00    -0.344 N 
HETATM    2  C           1     -34.379  -2.369 -12.344  0.00  0.00     0.248 C 
HETATM    3  O           1     -34.478  -3.083 -13.314  0.00  0.00    -0.271 OA
HETATM    4  H           1     -34.963  -0.577 -11.489  0.00  0.00     0.163 HD
ENDROOT
BRANCH   1   5
HETATM    5  C           1     -35.873  -0.766 -13.420  0.00  0.00     0.194 C 
BRANCH   5   6
HETATM    6  C           1     -37.153  -0.127 -12.900  0.00  0.00     0.106 C 
BRANCH   6   7
HETATM    7  S           1     -37.110  -0.073 -11.086  0.00  0.00    -0.180 SA
HETATM    8  H           1     -35.978  -0.787 -10.951  0.00  0.00     0.101 HD
ENDBRANCH   6   7
ENDBRANCH   5   6
BRANCH   5   9
HETATM    9  C           1     -35.118   0.233 -14.264  0.00  0.00     0.197 C 
HETATM   10  O           1     -34.774  -0.066 -15.427  0.00  0.00    -0.646 OA
HETATM   11  O           1     -34.836   1.358 -13.797  0.00  0.00    -0.646 OA
ENDBRANCH   5   9
ENDBRANCH   1   5
BRANCH   2  12
HETATM   12  C           1     -33.520  -2.794 -11.179  0.00  0.00     0.270 C 
HETATM   13  C           1     -33.977  -4.159 -10.681  0.00  0.00     0.050 C 
BRANCH  12  14
HETATM   14  N           1     -33.647  -1.791 -10.071  0.00  0.00    -0.067 N 
HETATM   15  H           1     -33.122  -2.128  -9.233  0.00  0.00     0.275 HD
HETATM   16  H           1     -33.254  -0.875 -10.385  0.00  0.00     0.275 HD
HETATM   17  H           1     -34.656  -1.671  -9.824  0.00  0.00     0.275 HD
ENDBRANCH  12  14
ENDBRANCH   2  12
TORSDOF 6
ENDMDL
MODEL 3
REMARK VINA RESULT:      -5.0     10.738     12.062
REMARK  6 active torsions:
REMARK  status: ('A' for Active; 'I' for Inactive)
REMARK    1  A    between atoms: N_1  and  C_3 
REMARK    2  A    between atoms: C_3  and  C_11 
REMARK    3  A    between atoms: S_4  and  C_5 
REMARK    4  A    between atoms: C_5  and  C_6 
REMARK    5  A    between atoms: C_6  and  C_7 
REMARK    6  A    between atoms: C_6  and  N_10 
REMARK       I    between atoms: N_10  and  C_11 
ROOT
HETATM    1  N           1     -34.809  -1.477 -13.338  0.00  0.00    -0.344 N 
HETATM    2  C           1     -35.921  -0.779 -13.726  0.00  0.00     0.248 C 
HETATM    3  O           1     -36.981  -0.979 -13.182  0.00  0.00    -0.271 OA
HETATM    4  H           1     -33.921  -1.308 -13.793  0.00  0.00     0.163 HD
ENDROOT
BRANCH   1   5
HETATM    5  C           1     -34.903  -2.457 -12.274  0.00  0.00     0.194 C 
BRANCH   5   6
HETATM    6  C           1     -33.997  -3.639 -12.591  0.00  0.00     0.106 C 
BRANCH   6   7
HETATM    7  S           1     -34.656  -5.137 -11.805  0.00  0.00    -0.180 SA
HETATM    8  H           1     -35.767  -5.214 -12.561  0.00  0.00     0.101 HD
ENDBRANCH   6   7
ENDBRANCH   5   6
BRANCH   5   9
HETATM    9  C           1     -34.473  -1.828 -10.971  0.00  0.00     0.197 C 
HETATM   10  O           1     -35.321  -1.290 -10.227  0.00  0.00    -0.646 OA
HETATM   11  O           1     -33.269  -1.845 -10.637  0.00  0.00    -0.646 OA
ENDBRANCH   5   9
ENDBRANCH   1   5
BRANCH   2  12
HETATM   12  C           1     -35.822   0.241 -14.833  0.00  0.00     0.270 C 
HETATM   13  C           1     -34.914   1.382 -14.393  0.00  0.00     0.050 C 
BRANCH  12  14
HETATM   14  N           1     -37.188   0.781 -15.140  0.00  0.00    -0.067 N 
HETATM   15  H           1     -37.749   0.049 -15.632  0.00  0.00     0.275 HD
HETATM   16  H           1     -37.665   1.046 -14.249  0.00  0.00     0.275 HD
HETATM   17  H           1     -37.099   1.623 -15.753  0.00  0.00     0.275 HD
ENDBRANCH  12  14
ENDBRANCH   2  12
TORSDOF 6
ENDMDL
MODEL 4
REMARK VINA RESULT:      -5.0      9.741     11.339
REMARK  6 active torsions:
REMARK  status: ('A' for Active; 'I' for Inactive)
REMARK    1  A    between atoms: N_1  and  C_3 
REMARK    2  A    between atoms: C_3  and  C_11 
REMARK    3  A    between atoms: S_4  and  C_5 
REMARK    4  A    between atoms: C_5  and  C_6 
REMARK    5  A    between atoms: C_6  and  C_7 
REMARK    6  A    between atoms: C_6  and  N_10 
REMARK       I    between atoms: N_10  and  C_11 
ROOT
HETATM    1  N           1     -22.210  -4.650  -8.720  0.00  0.00    -0.344 N 
HETATM    2  C           1     -21.603  -4.362  -7.527  0.00  0.00     0.248 C 
HETATM    3  O           1     -21.526  -3.217  -7.149  0.00  0.00    -0.271 OA
HETATM    4  H           1     -22.275  -5.609  -9.036  0.00  0.00     0.163 HD
ENDROOT
BRANCH   1   5
HETATM    5  C           1     -22.759  -3.581  -9.530  0.00  0.00     0.194 C 
BRANCH   5   6
HETATM    6  C           1     -22.116  -3.608 -10.910  0.00  0.00     0.106 C 
BRANCH   6   7
HETATM    7  S           1     -20.444  -4.303 -10.787  0.00  0.00    -0.180 SA
HETATM    8  H           1     -19.863  -3.188 -10.309  0.00  0.00     0.101 HD
ENDBRANCH   6   7
ENDBRANCH   5   6
BRANCH   5   9
HETATM    9  C           1     -24.251  -3.770  -9.666  0.00  0.00     0.197 C 
HETATM   10  O           1     -24.716  -4.897  -9.941  0.00  0.00    -0.646 OA
HETATM   11  O           1     -25.021  -2.798  -9.505  0.00  0.00    -0.646 OA
ENDBRANCH   5   9
ENDBRANCH   1   5
BRANCH   2  12
HETATM   12  C           1     -21.031  -5.475  -6.684  0.00  0.00     0.270 C 
HETATM   13  C           1     -20.368  -4.885  -5.446  0.00  0.00     0.050 C 
BRANCH  12  14
HETATM   14  N           1     -20.013  -6.234  -7.482  0.00  0.00    -0.067 N 
HETATM   15  H           1     -20.012  -7.236  -7.183  0.00  0.00     0.275 HD
HETATM   16  H           1     -20.252  -6.174  -8.498  0.00  0.00     0.275 HD
HETATM   17  H           1     -19.066  -5.821  -7.321  0.00  0.00     0.275 HD
ENDBRANCH  12  14
ENDBRANCH   2  12
TORSDOF 6
ENDMDL
MODEL 5
REMARK VINA RESULT:      -4.9      2.430      2.803
REMARK  6 active torsions:
REMARK  status: ('A' for Active; 'I' for Inactive)
REMARK    1  A    between atoms: N_1  and  C_3 
REMARK    2  A    between atoms: C_3  and  C_11 
REMARK    3  A    between atoms: S_4  and  C_5 
REMARK    4  A    between atoms: C_5  and  C_6 
REMARK    5  A    between atoms: C_6  and  C_7 
REMARK    6  A    between atoms: C_6  and  N_10 
REMARK       I    between atoms: N_10  and  C_11 
ROOT
HETATM    1  N           1     -26.775  -6.327 -18.132  0.00  0.00    -0.344 N 
HETATM    2  C           1     -26.204  -6.504 -19.363  0.00  0.00     0.248 C 
HETATM    3  O           1     -26.869  -6.365 -20.363  0.00  0.00    -0.271 OA
HETATM    4  H           1     -26.218  -6.442 -17.294  0.00  0.00     0.163 HD
ENDROOT
BRANCH   1   5
HETATM    5  C           1     -28.177  -5.974 -18.026  0.00  0.00     0.194 C 
BRANCH   5   6
HETATM    6  C           1     -28.889  -6.981 -17.133  0.00  0.00     0.106 C 
BRANCH   6   7
HETATM    7  S           1     -30.643  -7.064 -17.591  0.00  0.00    -0.180 SA
HETATM    8  H           1     -30.633  -8.359 -17.954  0.00  0.00     0.101 HD
ENDBRANCH   6   7
ENDBRANCH   5   6
BRANCH   5   9
HETATM    9  C           1     -28.304  -4.593 -17.429  0.00  0.00     0.197 C 
HETATM   10  O           1     -27.538  -4.238 -16.508  0.00  0.00    -0.646 OA
HETATM   11  O           1     -29.177  -3.806 -17.855  0.00  0.00    -0.646 OA
ENDBRANCH   5   9
ENDBRANCH   1   5
BRANCH   2  12
HETATM   12  C           1     -24.745  -6.871 -19.472  0.00  0.00     0.270 C 
HETATM   13  C           1     -24.555  -7.867 -20.609  0.00  0.00     0.050 C 
BRANCH  12  14
HETATM   14  N           1     -24.288  -7.491 -18.185  0.00  0.00    -0.067 N 
HETATM   15  H           1     -24.817  -7.071 -17.388  0.00  0.00     0.275 HD
HETATM   16  H           1     -24.462  -8.521 -18.214  0.00  0.00     0.275 HD
HETATM   17  H           1     -23.266  -7.313 -18.056  0.00  0.00     0.275 HD
ENDBRANCH  12  14
ENDBRANCH   2  12
TORSDOF 6
ENDMDL
MODEL 6
REMARK VINA RESULT:      -4.7     12.324     12.966
REMARK  6 active torsions:
REMARK  status: ('A' for Active; 'I' for Inactive)
REMARK    1  A    between atoms: N_1  and  C_3 
REMARK    2  A    between atoms: C_3  and  C_11 
REMARK    3  A    between atoms: S_4  and  C_5 
REMARK    4  A    between atoms: C_5  and  C_6 
REMARK    5  A    between atoms: C_6  and  C_7 
REMARK    6  A    between atoms: C_6  and  N_10 
REMARK       I    between atoms: N_10  and  C_11 
ROOT
HETATM    1  N           1     -36.750  -0.313 -13.109  0.00  0.00    -0.344 N 
HETATM    2  C           1     -36.084   0.403 -14.067  0.00  0.00     0.248 C 
HETATM    3  O           1     -35.092   1.028 -13.775  0.00  0.00    -0.271 OA
HETATM    4  H           1     -37.580  -0.837 -13.354  0.00  0.00     0.163 HD
ENDROOT
BRANCH   1   5
HETATM    5  C           1     -36.265  -0.321 -11.743  0.00  0.00     0.194 C 
BRANCH   5   6
HETATM    6  C           1     -37.447  -0.358 -10.784  0.00  0.00     0.106 C 
BRANCH   6   7
HETATM    7  S           1     -37.192   0.854  -9.457  0.00  0.00    -0.180 SA
HETATM    8  H           1     -35.906   1.116  -9.753  0.00  0.00     0.101 HD
ENDBRANCH   6   7
ENDBRANCH   5   6
BRANCH   5   9
HETATM    9  C           1     -35.399  -1.538 -11.523  0.00  0.00     0.197 C 
HETATM   10  O           1     -34.491  -1.512 -10.666  0.00  0.00    -0.646 OA
HETATM   11  O           1     -35.591  -2.571 -12.201  0.00  0.00    -0.646 OA
ENDBRANCH   5   9
ENDBRANCH   1   5
BRANCH   2  12
HETATM   12  C           1     -36.590   0.410 -15.489  0.00  0.00     0.270 C 
HETATM   13  C           1     -35.867  -0.664 -16.291  0.00  0.00     0.050 C 
BRANCH  12  14
HETATM   14  N           1     -36.330   1.753 -16.105  0.00  0.00    -0.067 N 
HETATM   15  H           1     -36.598   1.731 -17.115  0.00  0.00     0.275 HD
HETATM   16  H           1     -36.896   2.479 -15.610  0.00  0.00     0.275 HD
HETATM   17  H           1     -35.314   1.984 -16.019  0.00  0.00     0.275 HD
ENDBRANCH  12  14
ENDBRANCH   2  12
TORSDOF 6
ENDMDL
MODEL 7
REMARK VINA RESULT:      -4.6      9.482     11.156
REMARK  6 active torsions:
REMARK  status: ('A' for Active; 'I' for Inactive)
REMARK    1  A    between atoms: N_1  and  C_3 
REMARK    2  A    between atoms: C_3  and  C_11 
REMARK    3  A    between atoms: S_4  and  C_5 
REMARK    4  A    between atoms: C_5  and  C_6 
REMARK    5  A    between atoms: C_6  and  C_7 
REMARK    6  A    between atoms: C_6  and  N_10 
REMARK       I    between atoms: N_10  and  C_11 
ROOT
HETATM    1  N           1     -22.167  -4.280  -8.890  0.00  0.00    -0.344 N 
HETATM    2  C           1     -21.329  -4.937  -8.029  0.00  0.00     0.248 C 
HETATM    3  O           1     -20.602  -5.810  -8.441  0.00  0.00    -0.271 OA
HETATM    4  H           1     -22.775  -3.549  -8.546  0.00  0.00     0.163 HD
ENDROOT
BRANCH   1   5
HETATM    5  C           1     -22.182  -4.633 -10.297  0.00  0.00     0.194 C 
BRANCH   5   6
HETATM    6  C           1     -23.605  -4.536 -10.829  0.00  0.00     0.106 C 
BRANCH   6   7
HETATM    7  S           1     -24.604  -3.517  -9.708  0.00  0.00    -0.180 SA
HETATM    8  H           1     -24.100  -4.026  -8.570  0.00  0.00     0.101 HD
ENDBRANCH   6   7
ENDBRANCH   5   6
BRANCH   5   9
HETATM    9  C           1     -21.291  -3.685 -11.063  0.00  0.00     0.197 C 
HETATM   10  O           1     -20.082  -3.955 -11.222  0.00  0.00    -0.646 OA
HETATM   11  O           1     -21.764  -2.629 -11.537  0.00  0.00    -0.646 OA
ENDBRANCH   5   9
ENDBRANCH   1   5
BRANCH   2  12
HETATM   12  C           1     -21.314  -4.569  -6.566  0.00  0.00     0.270 C 
HETATM   13  C           1     -19.904  -4.734  -6.015  0.00  0.00     0.050 C 
BRANCH  12  14
HETATM   14  N           1     -22.251  -5.468  -5.814  0.00  0.00    -0.067 N 
HETATM   15  H           1     -22.147  -5.301  -4.788  0.00  0.00     0.275 HD
HETATM   16  H           1     -23.235  -5.264  -6.103  0.00  0.00     0.275 HD
HETATM   17  H           1     -22.024  -6.465  -6.030  0.00  0.00     0.275 HD
ENDBRANCH  12  14
ENDBRANCH   2  12
TORSDOF 6
ENDMDL
MODEL 8
REMARK VINA RESULT:      -4.5      2.938      4.721
REMARK  6 active torsions:
REMARK  status: ('A' for Active; 'I' for Inactive)
REMARK    1  A    between atoms: N_1  and  C_3 
REMARK    2  A    between atoms: C_3  and  C_11 
REMARK    3  A    between atoms: S_4  and  C_5 
REMARK    4  A    between atoms: C_5  and  C_6 
REMARK    5  A    between atoms: C_6  and  C_7 
REMARK    6  A    between atoms: C_6  and  N_10 
REMARK       I    between atoms: N_10  and  C_11 
ROOT
HETATM    1  N           1     -28.683  -5.222 -16.972  0.00  0.00    -0.344 N 
HETATM    2  C           1     -30.039  -5.337 -17.120  0.00  0.00     0.248 C 
HETATM    3  O           1     -30.529  -6.408 -17.390  0.00  0.00    -0.271 OA
HETATM    4  H           1     -28.272  -4.325 -16.745  0.00  0.00     0.163 HD
ENDROOT
BRANCH   1   5
HETATM    5  C           1     -27.834  -6.385 -17.141  0.00  0.00     0.194 C 
BRANCH   5   6
HETATM    6  C           1     -26.735  -6.071 -18.146  0.00  0.00     0.106 C 
BRANCH   6   7
HETATM    7  S           1     -27.279  -6.552 -19.810  0.00  0.00    -0.180 SA
HETATM    8  H           1     -28.524  -6.913 -19.451  0.00  0.00     0.101 HD
ENDBRANCH   6   7
ENDBRANCH   5   6
BRANCH   5   9
HETATM    9  C           1     -27.213  -6.751 -15.814  0.00  0.00     0.197 C 
HETATM   10  O           1     -26.102  -6.278 -15.493  0.00  0.00    -0.646 OA
HETATM   11  O           1     -27.811  -7.527 -15.037  0.00  0.00    -0.646 OA
ENDBRANCH   5   9
ENDBRANCH   1   5
BRANCH   2  12
HETATM   12  C           1     -30.921  -4.126 -16.945  0.00  0.00     0.270 C 
HETATM   13  C           1     -32.378  -4.565 -16.873  0.00  0.00     0.050 C 
BRANCH  12  14
HETATM   14  N           1     -30.737  -3.199 -18.110  0.00  0.00    -0.067 N 
HETATM   15  H           1     -31.081  -2.246 -17.856  0.00  0.00     0.275 HD
HETATM   16  H           1     -29.722  -3.149 -18.357  0.00  0.00     0.275 HD
HETATM   17  H           1     -31.278  -3.558 -18.929  0.00  0.00     0.275 HD
ENDBRANCH  12  14
ENDBRANCH   2  12
TORSDOF 6
ENDMDL
MODEL 9
REMARK VINA RESULT:      -4.1      9.845     11.241
REMARK  6 active torsions:
REMARK  status: ('A' for Active; 'I' for Inactive)
REMARK    1  A    between atoms: N_1  and  C_3 
REMARK    2  A    between atoms: C_3  and  C_11 
REMARK    3  A    between atoms: S_4  and  C_5 
REMARK    4  A    between atoms: C_5  and  C_6 
REMARK    5  A    between atoms: C_6  and  C_7 
REMARK    6  A    between atoms: C_6  and  N_10 
REMARK       I    between atoms: N_10  and  C_11 
ROOT
HETATM    1  N           1     -22.143  -4.883  -8.240  0.00  0.00    -0.344 N 
HETATM    2  C           1     -22.947  -4.158  -9.078  0.00  0.00     0.248 C 
HETATM    3  O           1     -22.764  -2.972  -9.215  0.00  0.00    -0.271 OA
HETATM    4  H           1     -22.295  -5.877  -8.126  0.00  0.00     0.163 HD
ENDROOT
BRANCH   1   5
HETATM    5  C           1     -21.072  -4.226  -7.516  0.00  0.00     0.194 C 
BRANCH   5   6
HETATM    6  C           1     -21.009  -4.773  -6.097  0.00  0.00     0.106 C 
BRANCH   6   7
HETATM    7  S           1     -21.144  -6.582  -6.137  0.00  0.00    -0.180 SA
HETATM    8  H           1     -22.103  -6.630  -7.080  0.00  0.00     0.101 HD
ENDBRANCH   6   7
ENDBRANCH   5   6
BRANCH   5   9
HETATM    9  C           1     -19.759  -4.486  -8.215  0.00  0.00     0.197 C 
HETATM   10  O           1     -19.750  -4.851  -9.410  0.00  0.00    -0.646 OA
HETATM   11  O           1     -18.683  -4.337  -7.598  0.00  0.00    -0.646 OA
ENDBRANCH   5   9
ENDBRANCH   1   5
BRANCH   2  12
HETATM   12  C           1     -24.061  -4.842  -9.831  0.00  0.00     0.270 C 
HETATM   13  C           1     -23.686  -4.954 -11.303  0.00  0.00     0.050 C 
BRANCH  12  14
HETATM   14  N           1     -25.322  -4.039  -9.698  0.00  0.00    -0.067 N 
HETATM   15  H           1     -26.058  -4.441 -10.321  0.00  0.00     0.275 HD
HETATM   16  H           1     -25.649  -4.069  -8.706  0.00  0.00     0.275 HD
HETATM   17  H           1     -25.134  -3.049  -9.974  0.00  0.00     0.275 HD
ENDBRANCH  12  14
ENDBRANCH   2  12
TORSDOF 6
ENDMDL
