MODEL 1
REMARK VINA RESULT:      -8.6      0.000      0.000
REMARK  12 active torsions:
REMARK  status: ('A' for Active; 'I' for Inactive)
REMARK    1  A    between atoms: C_1  and  C_19 
REMARK    2  A    between atoms: C_1  and  C_2 
REMARK    3  A    between atoms: C_1  and  N_14 
REMARK    4  A    between atoms: C_2  and  C_3 
REMARK    5  A    between atoms: C_6  and  O_7 
REMARK    6  A    between atoms: O_7  and  P_8 
REMARK    7  A    between atoms: P_8  and  O_9 
REMARK       I    between atoms: C_19  and  N_20 
REMARK    8  A    between atoms: N_20  and  C_24 
REMARK    9  A    between atoms: C_23  and  C_24 
REMARK   10  A    between atoms: C_24  and  C_25 
REMARK   11  A    between atoms: C_25  and  C_28 
REMARK   12  A    between atoms: C_31  and  O_32 
ROOT
HETATM    1  C           1     -21.121  -6.398  -5.120  0.00  0.00     0.278 C 
ENDROOT
BRANCH   1   2
HETATM    2  C           1     -20.354  -7.689  -4.975  0.00  0.00     0.249 C 
HETATM    3  O           1     -19.429  -7.929  -5.712  0.00  0.00    -0.271 OA
HETATM    4  N           1     -20.708  -8.590  -4.006  0.00  0.00    -0.344 N 
HETATM    5  H           1     -21.483  -8.389  -3.387  0.00  0.00     0.163 HD
BRANCH   4   6
HETATM    6  C           1     -19.972  -9.830  -3.866  0.00  0.00     0.189 C 
BRANCH   6   7
HETATM    7  C           1     -20.784 -10.965  -4.441  0.00  0.00     0.197 C 
HETATM    8  O           1     -20.688 -12.113  -3.954  0.00  0.00    -0.646 OA
HETATM    9  O           1     -21.553 -10.757  -5.404  0.00  0.00    -0.646 OA
ENDBRANCH   6   7
BRANCH   6  10
HETATM   10  C           1     -19.702 -10.096  -2.390  0.00  0.00     0.074 C 
BRANCH  10  11
HETATM   11  C           1     -20.797  -9.492  -1.566  0.00  0.00    -0.056 A 
HETATM   12  C           1     -20.722  -8.154  -1.181  0.00  0.00     0.010 A 
HETATM   13  C           1     -21.741  -7.590  -0.413  0.00  0.00     0.037 A 
HETATM   14  C           1     -22.835  -8.366  -0.031  0.00  0.00     0.065 A 
HETATM   15  C           1     -22.911  -9.704  -0.416  0.00  0.00     0.037 A 
HETATM   16  C           1     -21.892 -10.268  -1.184  0.00  0.00     0.010 A 
BRANCH  14  17
HETATM   17  O           1     -23.826  -7.818   0.714  0.00  0.00    -0.361 OA
HETATM   18  H           1     -23.470  -7.635   1.599  0.00  0.00     0.217 HD
ENDBRANCH  14  17
ENDBRANCH  10  11
ENDBRANCH   6  10
ENDBRANCH   4   6
ENDBRANCH   1   2
BRANCH   1  19
HETATM   19  C           1     -20.212  -5.333  -5.720  0.00  0.00     0.081 C 
BRANCH  19  20
HETATM   20  C           1     -20.779  -4.872  -7.027  0.00  0.00    -0.056 A 
HETATM   21  C           1     -21.990  -4.178  -7.055  0.00  0.00     0.010 A 
HETATM   22  C           1     -22.518  -3.749  -8.273  0.00  0.00     0.038 A 
HETATM   23  C           1     -21.838  -4.014  -9.461  0.00  0.00     0.081 A 
HETATM   24  C           1     -20.628  -4.707  -9.433  0.00  0.00     0.038 A 
HETATM   25  C           1     -20.099  -5.137  -8.215  0.00  0.00     0.010 A 
BRANCH  23  26
HETATM   26  O           1     -22.351  -3.596 -10.644  0.00  0.00    -0.247 OA
BRANCH  26  27
HETATM   27  P           1     -23.720  -4.282 -11.160  0.00  0.00     0.411 P 
HETATM   28  O           1     -24.003  -5.486 -10.346  0.00  0.00    -0.624 OA
HETATM   29  O           1     -24.835  -3.319 -11.024  0.00  0.00    -0.624 OA
BRANCH  27  30
HETATM   30  O           1     -23.560  -4.706 -12.710  0.00  0.00    -0.300 OA
HETATM   31  H           1     -24.337  -4.385 -13.132  0.00  0.00     0.223 HD
ENDBRANCH  27  30
ENDBRANCH  26  27
ENDBRANCH  23  26
ENDBRANCH  19  20
ENDBRANCH   1  19
BRANCH   1  32
HETATM   32  N           1     -21.596  -5.945  -3.771  0.00  0.00    -0.066 N 
HETATM   33  H           1     -22.056  -5.010  -3.859  0.00  0.00     0.275 HD
HETATM   34  H           1     -22.285  -6.636  -3.396  0.00  0.00     0.275 HD
HETATM   35  H           1     -20.783  -5.874  -3.120  0.00  0.00     0.275 HD
ENDBRANCH   1  32
TORSDOF 12
ENDMDL
MODEL 2
REMARK VINA RESULT:      -8.5      2.424      4.314
REMARK  12 active torsions:
REMARK  status: ('A' for Active; 'I' for Inactive)
REMARK    1  A    between atoms: C_1  and  C_19 
REMARK    2  A    between atoms: C_1  and  C_2 
REMARK    3  A    between atoms: C_1  and  N_14 
REMARK    4  A    between atoms: C_2  and  C_3 
REMARK    5  A    between atoms: C_6  and  O_7 
REMARK    6  A    between atoms: O_7  and  P_8 
REMARK    7  A    between atoms: P_8  and  O_9 
REMARK       I    between atoms: C_19  and  N_20 
REMARK    8  A    between atoms: N_20  and  C_24 
REMARK    9  A    between atoms: C_23  and  C_24 
REMARK   10  A    between atoms: C_24  and  C_25 
REMARK   11  A    between atoms: C_25  and  C_28 
REMARK   12  A    between atoms: C_31  and  O_32 
ROOT
HETATM    1  C           1     -21.085  -6.243  -5.045  0.00  0.00     0.278 C 
ENDROOT
BRANCH   1   2
HETATM    2  C           1     -20.275  -7.516  -5.022  0.00  0.00     0.249 C 
HETATM    3  O           1     -19.706  -7.888  -6.020  0.00  0.00    -0.271 OA
HETATM    4  N           1     -20.184  -8.249  -3.869  0.00  0.00    -0.344 N 
HETATM    5  H           1     -20.660  -7.937  -3.032  0.00  0.00     0.163 HD
BRANCH   4   6
HETATM    6  C           1     -19.406  -9.471  -3.847  0.00  0.00     0.189 C 
BRANCH   6   7
HETATM    7  C           1     -20.190 -10.554  -3.146  0.00  0.00     0.197 C 
HETATM    8  O           1     -20.742 -11.457  -3.812  0.00  0.00    -0.646 OA
HETATM    9  O           1     -20.288 -10.547  -1.900  0.00  0.00    -0.646 OA
ENDBRANCH   6   7
BRANCH   6  10
HETATM   10  C           1     -18.100  -9.227  -3.102  0.00  0.00     0.074 C 
BRANCH  10  11
HETATM   11  C           1     -16.993  -9.980  -3.773  0.00  0.00    -0.056 A 
HETATM   12  C           1     -16.112 -10.749  -3.013  0.00  0.00     0.010 A 
HETATM   13  C           1     -15.082 -11.452  -3.638  0.00  0.00     0.037 A 
HETATM   14  C           1     -14.932 -11.384  -5.023  0.00  0.00     0.065 A 
HETATM   15  C           1     -15.814 -10.616  -5.784  0.00  0.00     0.037 A 
HETATM   16  C           1     -16.845  -9.914  -5.159  0.00  0.00     0.010 A 
BRANCH  14  17
HETATM   17  O           1     -13.932 -12.067  -5.631  0.00  0.00    -0.361 OA
HETATM   18  H           1     -13.391 -12.484  -4.940  0.00  0.00     0.217 HD
ENDBRANCH  14  17
ENDBRANCH  10  11
ENDBRANCH   6  10
ENDBRANCH   4   6
ENDBRANCH   1   2
BRANCH   1  19
HETATM   19  C           1     -20.244  -5.116  -5.632  0.00  0.00     0.081 C 
BRANCH  19  20
HETATM   20  C           1     -20.795  -4.728  -6.969  0.00  0.00    -0.056 A 
HETATM   21  C           1     -20.019  -4.889  -8.116  0.00  0.00     0.010 A 
HETATM   22  C           1     -20.532  -4.527  -9.362  0.00  0.00     0.038 A 
HETATM   23  C           1     -21.821  -4.003  -9.460  0.00  0.00     0.081 A 
HETATM   24  C           1     -22.597  -3.842  -8.312  0.00  0.00     0.038 A 
HETATM   25  C           1     -22.084  -4.204  -7.066  0.00  0.00     0.010 A 
BRANCH  23  26
HETATM   26  O           1     -22.320  -3.651 -10.670  0.00  0.00    -0.247 OA
BRANCH  26  27
HETATM   27  P           1     -23.712  -4.322 -11.140  0.00  0.00     0.411 P 
HETATM   28  O           1     -23.990  -5.513 -10.306  0.00  0.00    -0.624 OA
HETATM   29  O           1     -24.809  -3.342 -10.983  0.00  0.00    -0.624 OA
BRANCH  27  30
HETATM   30  O           1     -23.602  -4.765 -12.689  0.00  0.00    -0.300 OA
HETATM   31  H           1     -22.729  -4.529 -12.949  0.00  0.00     0.223 HD
ENDBRANCH  27  30
ENDBRANCH  26  27
ENDBRANCH  23  26
ENDBRANCH  19  20
ENDBRANCH   1  19
BRANCH   1  32
HETATM   32  N           1     -21.491  -5.885  -3.646  0.00  0.00    -0.066 N 
HETATM   33  H           1     -21.775  -6.750  -3.133  0.00  0.00     0.275 HD
HETATM   34  H           1     -20.684  -5.438  -3.154  0.00  0.00     0.275 HD
HETATM   35  H           1     -22.294  -5.218  -3.676  0.00  0.00     0.275 HD
ENDBRANCH   1  32
TORSDOF 12
ENDMDL
MODEL 3
REMARK VINA RESULT:      -8.1     12.420     14.670
REMARK  12 active torsions:
REMARK  status: ('A' for Active; 'I' for Inactive)
REMARK    1  A    between atoms: C_1  and  C_19 
REMARK    2  A    between atoms: C_1  and  C_2 
REMARK    3  A    between atoms: C_1  and  N_14 
REMARK    4  A    between atoms: C_2  and  C_3 
REMARK    5  A    between atoms: C_6  and  O_7 
REMARK    6  A    between atoms: O_7  and  P_8 
REMARK    7  A    between atoms: P_8  and  O_9 
REMARK       I    between atoms: C_19  and  N_20 
REMARK    8  A    between atoms: N_20  and  C_24 
REMARK    9  A    between atoms: C_23  and  C_24 
REMARK   10  A    between atoms: C_24  and  C_25 
REMARK   11  A    between atoms: C_25  and  C_28 
REMARK   12  A    between atoms: C_31  and  O_32 
ROOT
HETATM    1  C           1     -32.841  -4.690 -16.911  0.00  0.00     0.278 C 
ENDROOT
BRANCH   1   2
HETATM    2  C           1     -33.722  -4.605 -15.688  0.00  0.00     0.249 C 
HETATM    3  O           1     -34.837  -5.068 -15.714  0.00  0.00    -0.271 OA
HETATM    4  N           1     -33.257  -4.004 -14.549  0.00  0.00    -0.344 N 
HETATM    5  H           1     -32.322  -3.617 -14.527  0.00  0.00     0.163 HD
BRANCH   4   6
HETATM    6  C           1     -34.103  -3.923 -13.375  0.00  0.00     0.189 C 
BRANCH   6   7
HETATM    7  C           1     -34.869  -2.623 -13.397  0.00  0.00     0.197 C 
HETATM    8  O           1     -34.877  -1.920 -14.431  0.00  0.00    -0.646 OA
HETATM    9  O           1     -35.495  -2.250 -12.382  0.00  0.00    -0.646 OA
ENDBRANCH   6   7
BRANCH   6  10
HETATM   10  C           1     -33.239  -3.982 -12.122  0.00  0.00     0.074 C 
BRANCH  10  11
HETATM   11  C           1     -33.572  -5.218 -11.344  0.00  0.00    -0.056 A 
HETATM   12  C           1     -32.667  -6.278 -11.300  0.00  0.00     0.010 A 
HETATM   13  C           1     -32.976  -7.429 -10.574  0.00  0.00     0.037 A 
HETATM   14  C           1     -34.191  -7.518  -9.894  0.00  0.00     0.065 A 
HETATM   15  C           1     -35.095  -6.458  -9.938  0.00  0.00     0.037 A 
HETATM   16  C           1     -34.786  -5.306 -10.663  0.00  0.00     0.010 A 
BRANCH  14  17
HETATM   17  O           1     -34.491  -8.636  -9.189  0.00  0.00    -0.361 OA
HETATM   18  H           1     -33.753  -8.816  -8.583  0.00  0.00     0.217 HD
ENDBRANCH  14  17
ENDBRANCH  10  11
ENDBRANCH   6  10
ENDBRANCH   4   6
ENDBRANCH   1   2
BRANCH   1  19
HETATM   19  C           1     -32.139  -6.042 -16.938  0.00  0.00     0.081 C 
BRANCH  19  20
HETATM   20  C           1     -30.659  -5.837 -16.851  0.00  0.00    -0.056 A 
HETATM   21  C           1     -30.066  -5.551 -15.621  0.00  0.00     0.010 A 
HETATM   22  C           1     -28.687  -5.361 -15.540  0.00  0.00     0.038 A 
HETATM   23  C           1     -27.901  -5.455 -16.688  0.00  0.00     0.081 A 
HETATM   24  C           1     -28.493  -5.741 -17.917  0.00  0.00     0.038 A 
HETATM   25  C           1     -29.873  -5.932 -17.999  0.00  0.00     0.010 A 
BRANCH  23  26
HETATM   26  O           1     -26.560  -5.270 -16.609  0.00  0.00    -0.247 OA
BRANCH  26  27
HETATM   27  P           1     -25.664  -6.470 -16.004  0.00  0.00     0.411 P 
HETATM   28  O           1     -26.550  -7.564 -15.549  0.00  0.00    -0.624 OA
HETATM   29  O           1     -24.748  -6.977 -17.050  0.00  0.00    -0.624 OA
BRANCH  27  30
HETATM   30  O           1     -24.802  -5.922 -14.753  0.00  0.00    -0.300 OA
HETATM   31  H           1     -24.367  -5.152 -15.075  0.00  0.00     0.223 HD
ENDBRANCH  27  30
ENDBRANCH  26  27
ENDBRANCH  23  26
ENDBRANCH  19  20
ENDBRANCH   1  19
BRANCH   1  32
HETATM   32  N           1     -31.815  -3.597 -16.863  0.00  0.00    -0.066 N 
HETATM   33  H           1     -31.591  -3.285 -17.835  0.00  0.00     0.275 HD
HETATM   34  H           1     -32.194  -2.789 -16.318  0.00  0.00     0.275 HD
HETATM   35  H           1     -30.947  -3.952 -16.402  0.00  0.00     0.275 HD
ENDBRANCH   1  32
TORSDOF 12
ENDMDL
MODEL 4
REMARK VINA RESULT:      -7.8     13.164     16.690
REMARK  12 active torsions:
REMARK  status: ('A' for Active; 'I' for Inactive)
REMARK    1  A    between atoms: C_1  and  C_19 
REMARK    2  A    between atoms: C_1  and  C_2 
REMARK    3  A    between atoms: C_1  and  N_14 
REMARK    4  A    between atoms: C_2  and  C_3 
REMARK    5  A    between atoms: C_6  and  O_7 
REMARK    6  A    between atoms: O_7  and  P_8 
REMARK    7  A    between atoms: P_8  and  O_9 
REMARK       I    between atoms: C_19  and  N_20 
REMARK    8  A    between atoms: N_20  and  C_24 
REMARK    9  A    between atoms: C_23  and  C_24 
REMARK   10  A    between atoms: C_24  and  C_25 
REMARK   11  A    between atoms: C_25  and  C_28 
REMARK   12  A    between atoms: C_31  and  O_32 
ROOT
HETATM    1  C           1     -32.803  -3.944 -17.333  0.00  0.00     0.278 C 
ENDROOT
BRANCH   1   2
HETATM    2  C           1     -33.855  -3.432 -16.380  0.00  0.00     0.249 C 
HETATM    3  O           1     -34.160  -4.083 -15.410  0.00  0.00    -0.271 OA
HETATM    4  N           1     -34.465  -2.228 -16.616  0.00  0.00    -0.344 N 
HETATM    5  H           1     -34.210  -1.682 -17.429  0.00  0.00     0.163 HD
BRANCH   4   6
HETATM    6  C           1     -35.475  -1.737 -15.700  0.00  0.00     0.189 C 
BRANCH   6   7
HETATM    7  C           1     -36.640  -1.186 -16.487  0.00  0.00     0.197 C 
HETATM    8  O           1     -36.459  -0.735 -17.639  0.00  0.00    -0.646 OA
HETATM    9  O           1     -37.784  -1.181 -15.986  0.00  0.00    -0.646 OA
ENDBRANCH   6   7
BRANCH   6  10
HETATM   10  C           1     -34.880  -0.634 -14.834  0.00  0.00     0.074 C 
BRANCH  10  11
HETATM   11  C           1     -35.390  -0.770 -13.433  0.00  0.00    -0.056 A 
HETATM   12  C           1     -36.439   0.037 -12.991  0.00  0.00     0.010 A 
HETATM   13  C           1     -36.914  -0.090 -11.686  0.00  0.00     0.037 A 
HETATM   14  C           1     -36.340  -1.023 -10.822  0.00  0.00     0.065 A 
HETATM   15  C           1     -35.292  -1.830 -11.264  0.00  0.00     0.037 A 
HETATM   16  C           1     -34.816  -1.703 -12.570  0.00  0.00     0.010 A 
BRANCH  14  17
HETATM   17  O           1     -36.802  -1.146  -9.555  0.00  0.00    -0.361 OA
HETATM   18  H           1     -37.067  -0.264  -9.244  0.00  0.00     0.217 HD
ENDBRANCH  14  17
ENDBRANCH  10  11
ENDBRANCH   6  10
ENDBRANCH   4   6
ENDBRANCH   1   2
BRANCH   1  19
HETATM   19  C           1     -32.276  -5.284 -16.836  0.00  0.00     0.081 C 
BRANCH  19  20
HETATM   20  C           1     -30.780  -5.250 -16.802  0.00  0.00    -0.056 A 
HETATM   21  C           1     -30.056  -5.258 -17.994  0.00  0.00     0.010 A 
HETATM   22  C           1     -28.662  -5.226 -17.962  0.00  0.00     0.038 A 
HETATM   23  C           1     -27.992  -5.187 -16.740  0.00  0.00     0.081 A 
HETATM   24  C           1     -28.716  -5.179 -15.548  0.00  0.00     0.038 A 
HETATM   25  C           1     -30.111  -5.211 -15.579  0.00  0.00     0.010 A 
BRANCH  23  26
HETATM   26  O           1     -26.637  -5.156 -16.709  0.00  0.00    -0.247 OA
BRANCH  26  27
HETATM   27  P           1     -25.862  -6.461 -16.158  0.00  0.00     0.411 P 
HETATM   28  O           1     -24.825  -6.865 -17.135  0.00  0.00    -0.624 OA
HETATM   29  O           1     -25.223  -6.145 -14.862  0.00  0.00    -0.624 OA
BRANCH  27  30
HETATM   30  O           1     -26.913  -7.671 -15.959  0.00  0.00    -0.300 OA
HETATM   31  H           1     -26.977  -7.788 -15.028  0.00  0.00     0.223 HD
ENDBRANCH  27  30
ENDBRANCH  26  27
ENDBRANCH  23  26
ENDBRANCH  19  20
ENDBRANCH   1  19
BRANCH   1  32
HETATM   32  N           1     -31.673  -2.959 -17.405  0.00  0.00    -0.066 N 
HETATM   33  H           1     -30.856  -3.400 -17.886  0.00  0.00     0.275 HD
HETATM   34  H           1     -31.980  -2.117 -17.943  0.00  0.00     0.275 HD
HETATM   35  H           1     -31.397  -2.675 -16.439  0.00  0.00     0.275 HD
ENDBRANCH   1  32
TORSDOF 12
ENDMDL
MODEL 5
REMARK VINA RESULT:      -7.8     13.289     15.161
REMARK  12 active torsions:
REMARK  status: ('A' for Active; 'I' for Inactive)
REMARK    1  A    between atoms: C_1  and  C_19 
REMARK    2  A    between atoms: C_1  and  C_2 
REMARK    3  A    between atoms: C_1  and  N_14 
REMARK    4  A    between atoms: C_2  and  C_3 
REMARK    5  A    between atoms: C_6  and  O_7 
REMARK    6  A    between atoms: O_7  and  P_8 
REMARK    7  A    between atoms: P_8  and  O_9 
REMARK       I    between atoms: C_19  and  N_20 
REMARK    8  A    between atoms: N_20  and  C_24 
REMARK    9  A    between atoms: C_23  and  C_24 
REMARK   10  A    between atoms: C_24  and  C_25 
REMARK   11  A    between atoms: C_25  and  C_28 
REMARK   12  A    between atoms: C_31  and  O_32 
ROOT
HETATM    1  C           1     -33.916  -5.327 -15.506  0.00  0.00     0.278 C 
ENDROOT
BRANCH   1   2
HETATM    2  C           1     -34.473  -4.750 -14.227  0.00  0.00     0.249 C 
HETATM    3  O           1     -35.342  -5.337 -13.628  0.00  0.00    -0.271 OA
HETATM    4  N           1     -33.992  -3.562 -13.746  0.00  0.00    -0.344 N 
HETATM    5  H           1     -33.263  -3.070 -14.248  0.00  0.00     0.163 HD
BRANCH   4   6
HETATM    6  C           1     -34.527  -3.008 -12.518  0.00  0.00     0.189 C 
BRANCH   6   7
HETATM    7  C           1     -34.632  -1.508 -12.648  0.00  0.00     0.197 C 
HETATM    8  O           1     -34.869  -0.992 -13.762  0.00  0.00    -0.646 OA
HETATM    9  O           1     -34.482  -0.782 -11.642  0.00  0.00    -0.646 OA
ENDBRANCH   6   7
BRANCH   6  10
HETATM   10  C           1     -33.599  -3.354 -11.360  0.00  0.00     0.074 C 
BRANCH  10  11
HETATM   11  C           1     -33.877  -4.751 -10.898  0.00  0.00    -0.056 A 
HETATM   12  C           1     -35.067  -5.041 -10.231  0.00  0.00     0.010 A 
HETATM   13  C           1     -35.326  -6.342  -9.800  0.00  0.00     0.037 A 
HETATM   14  C           1     -34.395  -7.353 -10.037  0.00  0.00     0.065 A 
HETATM   15  C           1     -33.205  -7.063 -10.705  0.00  0.00     0.037 A 
HETATM   16  C           1     -32.946  -5.762 -11.136  0.00  0.00     0.010 A 
BRANCH  14  17
HETATM   17  O           1     -34.647  -8.617  -9.619  0.00  0.00    -0.361 OA
HETATM   18  H           1     -35.523  -8.874  -9.952  0.00  0.00     0.217 HD
ENDBRANCH  14  17
ENDBRANCH  10  11
ENDBRANCH   6  10
ENDBRANCH   4   6
ENDBRANCH   1   2
BRANCH   1  19
HETATM   19  C           1     -33.365  -4.202 -16.373  0.00  0.00     0.081 C 
BRANCH  19  20
HETATM   20  C           1     -32.027  -4.599 -16.913  0.00  0.00    -0.056 A 
HETATM   21  C           1     -31.132  -3.619 -17.346  0.00  0.00     0.010 A 
HETATM   22  C           1     -29.885  -3.989 -17.850  0.00  0.00     0.038 A 
HETATM   23  C           1     -29.532  -5.336 -17.921  0.00  0.00     0.081 A 
HETATM   24  C           1     -30.426  -6.315 -17.488  0.00  0.00     0.038 A 
HETATM   25  C           1     -31.674  -5.946 -16.985  0.00  0.00     0.010 A 
BRANCH  23  26
HETATM   26  O           1     -28.320  -5.695 -18.410  0.00  0.00    -0.247 OA
BRANCH  26  27
HETATM   27  P           1     -27.134  -5.990 -17.355  0.00  0.00     0.411 P 
HETATM   28  O           1     -25.888  -6.304 -18.090  0.00  0.00    -0.624 OA
HETATM   29  O           1     -26.920  -4.796 -16.507  0.00  0.00    -0.624 OA
BRANCH  27  30
HETATM   30  O           1     -27.539  -7.246 -16.424  0.00  0.00    -0.300 OA
HETATM   31  H           1     -27.297  -8.007 -16.922  0.00  0.00     0.223 HD
ENDBRANCH  27  30
ENDBRANCH  26  27
ENDBRANCH  23  26
ENDBRANCH  19  20
ENDBRANCH   1  19
BRANCH   1  32
HETATM   32  N           1     -35.006  -6.041 -16.248  0.00  0.00    -0.066 N 
HETATM   33  H           1     -34.822  -7.070 -16.235  0.00  0.00     0.275 HD
HETATM   34  H           1     -35.924  -5.847 -15.788  0.00  0.00     0.275 HD
HETATM   35  H           1     -35.034  -5.704 -17.237  0.00  0.00     0.275 HD
ENDBRANCH   1  32
TORSDOF 12
ENDMDL
MODEL 6
REMARK VINA RESULT:      -7.7      1.907      2.571
REMARK  12 active torsions:
REMARK  status: ('A' for Active; 'I' for Inactive)
REMARK    1  A    between atoms: C_1  and  C_19 
REMARK    2  A    between atoms: C_1  and  C_2 
REMARK    3  A    between atoms: C_1  and  N_14 
REMARK    4  A    between atoms: C_2  and  C_3 
REMARK    5  A    between atoms: C_6  and  O_7 
REMARK    6  A    between atoms: O_7  and  P_8 
REMARK    7  A    between atoms: P_8  and  O_9 
REMARK       I    between atoms: C_19  and  N_20 
REMARK    8  A    between atoms: N_20  and  C_24 
REMARK    9  A    between atoms: C_23  and  C_24 
REMARK   10  A    between atoms: C_24  and  C_25 
REMARK   11  A    between atoms: C_25  and  C_28 
REMARK   12  A    between atoms: C_31  and  O_32 
ROOT
HETATM    1  C           1     -21.487  -6.848  -4.434  0.00  0.00     0.278 C 
ENDROOT
BRANCH   1   2
HETATM    2  C           1     -21.211  -8.237  -3.913  0.00  0.00     0.249 C 
HETATM    3  O           1     -20.449  -8.396  -2.990  0.00  0.00    -0.271 OA
HETATM    4  N           1     -21.824  -9.318  -4.488  0.00  0.00    -0.344 N 
HETATM    5  H           1     -22.463  -9.186  -5.261  0.00  0.00     0.163 HD
BRANCH   4   6
HETATM    6  C           1     -21.559 -10.652  -3.987  0.00  0.00     0.189 C 
BRANCH   6   7
HETATM    7  C           1     -20.712 -11.404  -4.986  0.00  0.00     0.197 C 
HETATM    8  O           1     -20.156 -12.474  -4.653  0.00  0.00    -0.646 OA
HETATM    9  O           1     -20.567 -10.957  -6.143  0.00  0.00    -0.646 OA
ENDBRANCH   6   7
BRANCH   6  10
HETATM   10  C           1     -22.877 -11.388  -3.783  0.00  0.00     0.074 C 
BRANCH  10  11
HETATM   11  C           1     -22.966 -11.870  -2.368  0.00  0.00    -0.056 A 
HETATM   12  C           1     -22.307 -13.038  -1.987  0.00  0.00     0.010 A 
HETATM   13  C           1     -22.389 -13.487  -0.669  0.00  0.00     0.037 A 
HETATM   14  C           1     -23.131 -12.768   0.267  0.00  0.00     0.065 A 
HETATM   15  C           1     -23.790 -11.599  -0.113  0.00  0.00     0.037 A 
HETATM   16  C           1     -23.708 -11.150  -1.432  0.00  0.00     0.010 A 
BRANCH  14  17
HETATM   17  O           1     -23.211 -13.203   1.548  0.00  0.00    -0.361 OA
HETATM   18  H           1     -22.719 -12.580   2.108  0.00  0.00     0.217 HD
ENDBRANCH  14  17
ENDBRANCH  10  11
ENDBRANCH   6  10
ENDBRANCH   4   6
ENDBRANCH   1   2
BRANCH   1  19
HETATM   19  C           1     -20.389  -6.443  -5.409  0.00  0.00     0.081 C 
BRANCH  19  20
HETATM   20  C           1     -20.984  -5.644  -6.526  0.00  0.00    -0.056 A 
HETATM   21  C           1     -22.286  -5.155  -6.416  0.00  0.00     0.010 A 
HETATM   22  C           1     -22.840  -4.410  -7.457  0.00  0.00     0.038 A 
HETATM   23  C           1     -22.093  -4.155  -8.607  0.00  0.00     0.081 A 
HETATM   24  C           1     -20.792  -4.644  -8.717  0.00  0.00     0.038 A 
HETATM   25  C           1     -20.237  -5.389  -7.676  0.00  0.00     0.010 A 
BRANCH  23  26
HETATM   26  O           1     -22.632  -3.432  -9.619  0.00  0.00    -0.247 OA
BRANCH  26  27
HETATM   27  P           1     -23.623  -4.187 -10.647  0.00  0.00     0.411 P 
HETATM   28  O           1     -22.927  -4.397 -11.936  0.00  0.00    -0.624 OA
HETATM   29  O           1     -24.019  -5.495 -10.080  0.00  0.00    -0.624 OA
BRANCH  27  30
HETATM   30  O           1     -24.941  -3.284 -10.888  0.00  0.00    -0.300 OA
HETATM   31  H           1     -25.259  -3.539 -11.736  0.00  0.00     0.223 HD
ENDBRANCH  27  30
ENDBRANCH  26  27
ENDBRANCH  23  26
ENDBRANCH  19  20
ENDBRANCH   1  19
BRANCH   1  32
HETATM   32  N           1     -21.516  -5.882  -3.286  0.00  0.00    -0.066 N 
HETATM   33  H           1     -20.779  -5.154  -3.424  0.00  0.00     0.275 HD
HETATM   34  H           1     -22.454  -5.422  -3.244  0.00  0.00     0.275 HD
HETATM   35  H           1     -21.338  -6.394  -2.394  0.00  0.00     0.275 HD
ENDBRANCH   1  32
TORSDOF 12
ENDMDL
MODEL 7
REMARK VINA RESULT:      -7.6      5.676      9.267
REMARK  12 active torsions:
REMARK  status: ('A' for Active; 'I' for Inactive)
REMARK    1  A    between atoms: C_1  and  C_19 
REMARK    2  A    between atoms: C_1  and  C_2 
REMARK    3  A    between atoms: C_1  and  N_14 
REMARK    4  A    between atoms: C_2  and  C_3 
REMARK    5  A    between atoms: C_6  and  O_7 
REMARK    6  A    between atoms: O_7  and  P_8 
REMARK    7  A    between atoms: P_8  and  O_9 
REMARK       I    between atoms: C_19  and  N_20 
REMARK    8  A    between atoms: N_20  and  C_24 
REMARK    9  A    between atoms: C_23  and  C_24 
REMARK   10  A    between atoms: C_24  and  C_25 
REMARK   11  A    between atoms: C_25  and  C_28 
REMARK   12  A    between atoms: C_31  and  O_32 
ROOT
HETATM    1  C           1     -19.431  -9.846  -4.223  0.00  0.00     0.278 C 
ENDROOT
BRANCH   1   2
HETATM    2  C           1     -20.687  -9.420  -3.502  0.00  0.00     0.249 C 
HETATM    3  O           1     -21.741  -9.948  -3.761  0.00  0.00    -0.271 OA
HETATM    4  N           1     -20.631  -8.434  -2.554  0.00  0.00    -0.344 N 
HETATM    5  H           1     -19.747  -7.991  -2.336  0.00  0.00     0.163 HD
BRANCH   4   6
HETATM    6  C           1     -21.836  -8.025  -1.861  0.00  0.00     0.189 C 
BRANCH   6   7
HETATM    7  C           1     -22.068  -6.550  -2.084  0.00  0.00     0.197 C 
HETATM    8  O           1     -22.327  -5.804  -1.114  0.00  0.00    -0.646 OA
HETATM    9  O           1     -22.003  -6.076  -3.238  0.00  0.00    -0.646 OA
ENDBRANCH   6   7
BRANCH   6  10
HETATM   10  C           1     -21.680  -8.294  -0.370  0.00  0.00     0.074 C 
BRANCH  10  11
HETATM   11  C           1     -22.103  -9.699  -0.069  0.00  0.00    -0.056 A 
HETATM   12  C           1     -23.416 -10.098  -0.312  0.00  0.00     0.010 A 
HETATM   13  C           1     -23.811 -11.407  -0.032  0.00  0.00     0.037 A 
HETATM   14  C           1     -22.891 -12.315   0.491  0.00  0.00     0.065 A 
HETATM   15  C           1     -21.576 -11.916   0.733  0.00  0.00     0.037 A 
HETATM   16  C           1     -21.182 -10.607   0.453  0.00  0.00     0.010 A 
BRANCH  14  17
HETATM   17  O           1     -23.273 -13.587   0.762  0.00  0.00    -0.361 OA
HETATM   18  H           1     -23.578 -13.618   1.684  0.00  0.00     0.217 HD
ENDBRANCH  14  17
ENDBRANCH  10  11
ENDBRANCH   6  10
ENDBRANCH   4   6
ENDBRANCH   1   2
BRANCH   1  19
HETATM   19  C           1     -18.213  -9.320  -3.475  0.00  0.00     0.081 C 
BRANCH  19  20
HETATM   20  C           1     -17.620 -10.421  -2.652  0.00  0.00    -0.056 A 
HETATM   21  C           1     -16.235 -10.580  -2.595  0.00  0.00     0.010 A 
HETATM   22  C           1     -15.682 -11.605  -1.829  0.00  0.00     0.038 A 
HETATM   23  C           1     -16.513 -12.473  -1.120  0.00  0.00     0.081 A 
HETATM   24  C           1     -17.897 -12.314  -1.177  0.00  0.00     0.038 A 
HETATM   25  C           1     -18.451 -11.288  -1.944  0.00  0.00     0.010 A 
BRANCH  23  26
HETATM   26  O           1     -15.976 -13.470  -0.375  0.00  0.00    -0.247 OA
BRANCH  26  27
HETATM   27  P           1     -15.545 -13.132   1.144  0.00  0.00     0.411 P 
HETATM   28  O           1     -16.179 -14.106   2.062  0.00  0.00    -0.624 OA
HETATM   29  O           1     -14.074 -13.219   1.271  0.00  0.00    -0.624 OA
BRANCH  27  30
HETATM   30  O           1     -16.032 -11.640   1.525  0.00  0.00    -0.300 OA
HETATM   31  H           1     -16.141 -11.650   2.460  0.00  0.00     0.223 HD
ENDBRANCH  27  30
ENDBRANCH  26  27
ENDBRANCH  23  26
ENDBRANCH  19  20
ENDBRANCH   1  19
BRANCH   1  32
HETATM   32  N           1     -19.441  -9.287  -5.615  0.00  0.00    -0.066 N 
HETATM   33  H           1     -18.917  -8.383  -5.632  0.00  0.00     0.275 HD
HETATM   34  H           1     -18.983  -9.965  -6.265  0.00  0.00     0.275 HD
HETATM   35  H           1     -20.427  -9.123  -5.919  0.00  0.00     0.275 HD
ENDBRANCH   1  32
TORSDOF 12
ENDMDL
MODEL 8
REMARK VINA RESULT:      -7.4      2.075      2.837
REMARK  12 active torsions:
REMARK  status: ('A' for Active; 'I' for Inactive)
REMARK    1  A    between atoms: C_1  and  C_19 
REMARK    2  A    between atoms: C_1  and  C_2 
REMARK    3  A    between atoms: C_1  and  N_14 
REMARK    4  A    between atoms: C_2  and  C_3 
REMARK    5  A    between atoms: C_6  and  O_7 
REMARK    6  A    between atoms: O_7  and  P_8 
REMARK    7  A    between atoms: P_8  and  O_9 
REMARK       I    between atoms: C_19  and  N_20 
REMARK    8  A    between atoms: N_20  and  C_24 
REMARK    9  A    between atoms: C_23  and  C_24 
REMARK   10  A    between atoms: C_24  and  C_25 
REMARK   11  A    between atoms: C_25  and  C_28 
REMARK   12  A    between atoms: C_31  and  O_32 
ROOT
HETATM    1  C           1     -21.384  -6.769  -4.991  0.00  0.00     0.278 C 
ENDROOT
BRANCH   1   2
HETATM    2  C           1     -20.653  -8.065  -4.736  0.00  0.00     0.249 C 
HETATM    3  O           1     -19.521  -8.047  -4.316  0.00  0.00    -0.271 OA
HETATM    4  N           1     -21.274  -9.261  -4.979  0.00  0.00    -0.344 N 
HETATM    5  H           1     -22.223  -9.276  -5.331  0.00  0.00     0.163 HD
BRANCH   4   6
HETATM    6  C           1     -20.572 -10.505  -4.734  0.00  0.00     0.189 C 
BRANCH   6   7
HETATM    7  C           1     -20.570 -11.338  -5.992  0.00  0.00     0.197 C 
HETATM    8  O           1     -21.515 -11.243  -6.806  0.00  0.00    -0.646 OA
HETATM    9  O           1     -19.624 -12.121  -6.221  0.00  0.00    -0.646 OA
ENDBRANCH   6   7
BRANCH   6  10
HETATM   10  C           1     -21.273 -11.271  -3.619  0.00  0.00     0.074 C 
BRANCH  10  11
HETATM   11  C           1     -20.339 -11.431  -2.459  0.00  0.00    -0.056 A 
HETATM   12  C           1     -20.848 -11.648  -1.180  0.00  0.00     0.010 A 
HETATM   13  C           1     -19.979 -11.799  -0.099  0.00  0.00     0.037 A 
HETATM   14  C           1     -18.600 -11.731  -0.299  0.00  0.00     0.065 A 
HETATM   15  C           1     -18.091 -11.515  -1.579  0.00  0.00     0.037 A 
HETATM   16  C           1     -18.960 -11.365  -2.660  0.00  0.00     0.010 A 
BRANCH  14  17
HETATM   17  O           1     -17.755 -11.877   0.750  0.00  0.00    -0.361 OA
HETATM   18  H           1     -18.289 -11.934   1.560  0.00  0.00     0.217 HD
ENDBRANCH  14  17
ENDBRANCH  10  11
ENDBRANCH   6  10
ENDBRANCH   4   6
ENDBRANCH   1   2
BRANCH   1  19
HETATM   19  C           1     -20.408  -5.735  -5.536  0.00  0.00     0.081 C 
BRANCH  19  20
HETATM   20  C           1     -20.948  -5.162  -6.810  0.00  0.00    -0.056 A 
HETATM   21  C           1     -20.177  -5.199  -7.972  0.00  0.00     0.010 A 
HETATM   22  C           1     -20.680  -4.666  -9.159  0.00  0.00     0.038 A 
HETATM   23  C           1     -21.953  -4.096  -9.183  0.00  0.00     0.081 A 
HETATM   24  C           1     -22.724  -4.060  -8.022  0.00  0.00     0.038 A 
HETATM   25  C           1     -22.221  -4.593  -6.834  0.00  0.00     0.010 A 
BRANCH  23  26
HETATM   26  O           1     -22.442  -3.578 -10.337  0.00  0.00    -0.247 OA
BRANCH  26  27
HETATM   27  P           1     -23.759  -4.261 -10.976  0.00  0.00     0.411 P 
HETATM   28  O           1     -23.504  -4.585 -12.397  0.00  0.00    -0.624 OA
HETATM   29  O           1     -24.080  -5.501 -10.236  0.00  0.00    -0.624 OA
BRANCH  27  30
HETATM   30  O           1     -25.002  -3.235 -10.873  0.00  0.00    -0.300 OA
HETATM   31  H           1     -24.954  -2.714 -11.655  0.00  0.00     0.223 HD
ENDBRANCH  27  30
ENDBRANCH  26  27
ENDBRANCH  23  26
ENDBRANCH  19  20
ENDBRANCH   1  19
BRANCH   1  32
HETATM   32  N           1     -21.976  -6.269  -3.707  0.00  0.00    -0.066 N 
HETATM   33  H           1     -23.019  -6.272  -3.778  0.00  0.00     0.275 HD
HETATM   34  H           1     -21.680  -6.892  -2.922  0.00  0.00     0.275 HD
HETATM   35  H           1     -21.643  -5.296  -3.525  0.00  0.00     0.275 HD
ENDBRANCH   1  32
TORSDOF 12
ENDMDL
MODEL 9
REMARK VINA RESULT:      -7.4     14.373     16.611
REMARK  12 active torsions:
REMARK  status: ('A' for Active; 'I' for Inactive)
REMARK    1  A    between atoms: C_1  and  C_19 
REMARK    2  A    between atoms: C_1  and  C_2 
REMARK    3  A    between atoms: C_1  and  N_14 
REMARK    4  A    between atoms: C_2  and  C_3 
REMARK    5  A    between atoms: C_6  and  O_7 
REMARK    6  A    between atoms: O_7  and  P_8 
REMARK    7  A    between atoms: P_8  and  O_9 
REMARK       I    between atoms: C_19  and  N_20 
REMARK    8  A    between atoms: N_20  and  C_24 
REMARK    9  A    between atoms: C_23  and  C_24 
REMARK   10  A    between atoms: C_24  and  C_25 
REMARK   11  A    between atoms: C_25  and  C_28 
REMARK   12  A    between atoms: C_31  and  O_32 
ROOT
HETATM    1  C           1     -33.666  -4.770 -15.409  0.00  0.00     0.278 C 
ENDROOT
BRANCH   1   2
HETATM    2  C           1     -33.586  -4.037 -14.092  0.00  0.00     0.249 C 
HETATM    3  O           1     -32.604  -4.146 -13.398  0.00  0.00    -0.271 OA
HETATM    4  N           1     -34.629  -3.249 -13.683  0.00  0.00    -0.344 N 
HETATM    5  H           1     -35.452  -3.157 -14.265  0.00  0.00     0.163 HD
BRANCH   4   6
HETATM    6  C           1     -34.552  -2.545 -12.419  0.00  0.00     0.189 C 
BRANCH   6   7
HETATM    7  C           1     -34.469  -3.545 -11.291  0.00  0.00     0.197 C 
HETATM    8  O           1     -33.495  -3.523 -10.507  0.00  0.00    -0.646 OA
HETATM    9  O           1     -35.372  -4.395 -11.143  0.00  0.00    -0.646 OA
ENDBRANCH   6   7
BRANCH   6  10
HETATM   10  C           1     -35.796  -1.684 -12.242  0.00  0.00     0.074 C 
BRANCH  10  11
HETATM   11  C           1     -35.828  -0.628 -13.304  0.00  0.00    -0.056 A 
HETATM   12  C           1     -36.885  -0.585 -14.213  0.00  0.00     0.010 A 
HETATM   13  C           1     -36.915   0.398 -15.203  0.00  0.00     0.037 A 
HETATM   14  C           1     -35.887   1.337 -15.282  0.00  0.00     0.065 A 
HETATM   15  C           1     -34.830   1.295 -14.373  0.00  0.00     0.037 A 
HETATM   16  C           1     -34.800   0.312 -13.384  0.00  0.00     0.010 A 
BRANCH  14  17
HETATM   17  O           1     -35.916   2.293 -16.243  0.00  0.00    -0.361 OA
HETATM   18  H           1     -36.324   1.908 -17.037  0.00  0.00     0.217 HD
ENDBRANCH  14  17
ENDBRANCH  10  11
ENDBRANCH   6  10
ENDBRANCH   4   6
ENDBRANCH   1   2
BRANCH   1  19
HETATM   19  C           1     -33.105  -3.886 -16.516  0.00  0.00     0.081 C 
BRANCH  19  20
HETATM   20  C           1     -31.800  -4.447 -16.989  0.00  0.00    -0.056 A 
HETATM   21  C           1     -31.544  -5.813 -16.868  0.00  0.00     0.010 A 
HETATM   22  C           1     -30.328  -6.335 -17.308  0.00  0.00     0.038 A 
HETATM   23  C           1     -29.368  -5.492 -17.869  0.00  0.00     0.081 A 
HETATM   24  C           1     -29.625  -4.127 -17.990  0.00  0.00     0.038 A 
HETATM   25  C           1     -30.841  -3.604 -17.549  0.00  0.00     0.010 A 
BRANCH  23  26
HETATM   26  O           1     -28.187  -6.000 -18.297  0.00  0.00    -0.247 OA
BRANCH  26  27
HETATM   27  P           1     -26.986  -6.131 -17.225  0.00  0.00     0.411 P 
HETATM   28  O           1     -25.717  -6.401 -17.940  0.00  0.00    -0.624 OA
HETATM   29  O           1     -26.865  -4.869 -16.463  0.00  0.00    -0.624 OA
BRANCH  27  30
HETATM   30  O           1     -27.299  -7.347 -16.209  0.00  0.00    -0.300 OA
HETATM   31  H           1     -26.542  -7.904 -16.255  0.00  0.00     0.223 HD
ENDBRANCH  27  30
ENDBRANCH  26  27
ENDBRANCH  23  26
ENDBRANCH  19  20
ENDBRANCH   1  19
BRANCH   1  32
HETATM   32  N           1     -35.097  -5.100 -15.711  0.00  0.00    -0.066 N 
HETATM   33  H           1     -35.214  -5.239 -16.741  0.00  0.00     0.275 HD
HETATM   34  H           1     -35.364  -5.978 -15.210  0.00  0.00     0.275 HD
HETATM   35  H           1     -35.711  -4.316 -15.394  0.00  0.00     0.275 HD
ENDBRANCH   1  32
TORSDOF 12
ENDMDL
