MODEL 1
REMARK VINA RESULT:      -7.0      0.000      0.000
REMARK  16 active torsions:
REMARK  status: ('A' for Active; 'I' for Inactive)
REMARK    1  A    between atoms: C_2  and  C_3 
REMARK    2  A    between atoms: C_2  and  C_7 
REMARK    3  A    between atoms: C_3  and  C_12 
REMARK       I    between atoms: N_4  and  C_12 
REMARK    4  A    between atoms: C_6  and  C_7 
REMARK    5  A    between atoms: C_7  and  N_19 
REMARK       I    between atoms: N_13  and  C_24 
REMARK    6  A    between atoms: C_14  and  N_19 
REMARK    7  A    between atoms: C_14  and  C_15 
REMARK    8  A    between atoms: C_15  and  C_16 
REMARK    9  A    between atoms: C_16  and  C_17 
REMARK   10  A    between atoms: C_16  and  N_37 
REMARK   11  A    between atoms: C_21  and  C_40 
REMARK   12  A    between atoms: C_21  and  C_22 
REMARK   13  A    between atoms: C_22  and  N_23 
REMARK       I    between atoms: N_23  and  C_24 
REMARK   14  A    between atoms: N_33  and  C_39 
REMARK       I    between atoms: N_37  and  C_38 
REMARK   15  A    between atoms: C_38  and  C_39 
REMARK   16  A    between atoms: C_39  and  C_40 
ROOT
HETATM    1  H           1     -34.015  -1.469 -15.087  0.00  0.00     0.163 HD
HETATM    2  O           1     -36.581  -0.988 -16.827  0.00  0.00    -0.271 OA
HETATM    3  N           1     -34.744  -1.674 -15.760  0.00  0.00    -0.345 N 
HETATM    4  C           1     -35.711  -0.743 -16.025  0.00  0.00     0.249 C 
ENDROOT
BRANCH   3   5
HETATM    5  C           1     -34.762  -2.954 -16.441  0.00  0.00     0.187 C 
BRANCH   5   6
HETATM    6  C           1     -33.704  -2.959 -17.538  0.00  0.00     0.066 C 
BRANCH   6   7
HETATM    7  C           1     -32.437  -3.625 -17.017  0.00  0.00     0.273 C 
BRANCH   7   8
HETATM    8  N           1     -31.323  -3.251 -17.847  0.00  0.00     0.098 N 
HETATM    9  H           1     -31.167  -2.245 -17.773  0.00  0.00     0.317 HD
BRANCH   8  10
HETATM   10  C           1     -30.164  -3.953 -17.365  0.00  0.00     0.320 C 
BRANCH  10  11
HETATM   11  C           1     -29.696  -4.944 -18.423  0.00  0.00     0.056 C 
BRANCH  11  12
HETATM   12  C           1     -29.424  -6.293 -17.770  0.00  0.00     0.105 C 
BRANCH  12  13
HETATM   13  C           1     -30.607  -7.204 -17.985  0.00  0.00     0.215 C 
HETATM   14  O           1     -30.533  -8.113 -18.778  0.00  0.00    -0.274 OA
HETATM   15  N           1     -31.764  -7.001 -17.282  0.00  0.00    -0.370 N 
HETATM   16  H           1     -31.826  -6.240 -16.618  0.00  0.00     0.159 HD
HETATM   17  H           1     -32.557  -7.612 -17.427  0.00  0.00     0.159 HD
ENDBRANCH  12  13
ENDBRANCH  11  12
ENDBRANCH  10  11
BRANCH  10  18
HETATM   18  C           1     -29.062  -2.963 -17.078  0.00  0.00     0.207 C 
HETATM   19  O           1     -27.967  -3.361 -16.625  0.00  0.00    -0.646 OA
HETATM   20  O           1     -29.244  -1.746 -17.295  0.00  0.00    -0.646 OA
ENDBRANCH  10  18
ENDBRANCH   8  10
ENDBRANCH   7   8
ENDBRANCH   6   7
ENDBRANCH   5   6
BRANCH   5  21
HETATM   21  C           1     -34.467  -4.054 -15.452  0.00  0.00     0.196 C 
HETATM   22  O           1     -33.829  -3.800 -14.407  0.00  0.00    -0.646 OA
HETATM   23  O           1     -34.859  -5.219 -15.677  0.00  0.00    -0.646 OA
ENDBRANCH   5  21
ENDBRANCH   3   5
BRANCH   4  24
HETATM   24  C           1     -35.693   0.589 -15.316  0.00  0.00     0.274 C 
BRANCH  24  25
HETATM   25  N           1     -36.576   1.555 -16.047  0.00  0.00    -0.067 N 
HETATM   26  H           1     -36.841   2.337 -15.407  0.00  0.00     0.275 HD
HETATM   27  H           1     -37.438   1.063 -16.372  0.00  0.00     0.275 HD
HETATM   28  H           1     -36.063   1.941 -16.873  0.00  0.00     0.275 HD
ENDBRANCH  24  25
BRANCH  24  29
HETATM   29  C           1     -36.201   0.414 -13.891  0.00  0.00     0.044 C 
BRANCH  29  30
HETATM   30  C           1     -35.017   0.320 -12.938  0.00  0.00     0.023 C 
BRANCH  30  31
HETATM   31  C           1     -35.285  -0.762 -11.900  0.00  0.00     0.138 C 
BRANCH  31  32
HETATM   32  N           1     -34.437  -1.930 -12.178  0.00  0.00    -0.227 N 
HETATM   33  C           1     -33.696  -2.404 -11.268  0.00  0.00     0.665 C 
HETATM   34  N           1     -33.685  -1.860 -10.089  0.00  0.00    -0.235 N 
HETATM   35  N           1     -32.965  -3.411 -11.508  0.00  0.00    -0.235 N 
HETATM   36  H           1     -33.074  -2.253  -9.337  0.00  0.00     0.174 HD
HETATM   37  H           1     -34.288  -1.030  -9.890  0.00  0.00     0.174 HD
HETATM   38  H           1     -32.351  -3.805 -10.754  0.00  0.00     0.174 HD
HETATM   39  H           1     -32.974  -3.851 -12.462  0.00  0.00     0.174 HD
HETATM   40  H           1     -34.446  -2.369 -13.132  0.00  0.00     0.177 HD
ENDBRANCH  31  32
ENDBRANCH  30  31
ENDBRANCH  29  30
ENDBRANCH  24  29
ENDBRANCH   4  24
TORSDOF 16
ENDMDL
MODEL 2
REMARK VINA RESULT:      -6.9      1.468      2.680
REMARK  16 active torsions:
REMARK  status: ('A' for Active; 'I' for Inactive)
REMARK    1  A    between atoms: C_2  and  C_3 
REMARK    2  A    between atoms: C_2  and  C_7 
REMARK    3  A    between atoms: C_3  and  C_12 
REMARK       I    between atoms: N_4  and  C_12 
REMARK    4  A    between atoms: C_6  and  C_7 
REMARK    5  A    between atoms: C_7  and  N_19 
REMARK       I    between atoms: N_13  and  C_24 
REMARK    6  A    between atoms: C_14  and  N_19 
REMARK    7  A    between atoms: C_14  and  C_15 
REMARK    8  A    between atoms: C_15  and  C_16 
REMARK    9  A    between atoms: C_16  and  C_17 
REMARK   10  A    between atoms: C_16  and  N_37 
REMARK   11  A    between atoms: C_21  and  C_40 
REMARK   12  A    between atoms: C_21  and  C_22 
REMARK   13  A    between atoms: C_22  and  N_23 
REMARK       I    between atoms: N_23  and  C_24 
REMARK   14  A    between atoms: N_33  and  C_39 
REMARK       I    between atoms: N_37  and  C_38 
REMARK   15  A    between atoms: C_38  and  C_39 
REMARK   16  A    between atoms: C_39  and  C_40 
ROOT
HETATM    1  H           1     -33.485  -1.473 -15.791  0.00  0.00     0.163 HD
HETATM    2  O           1     -36.532  -1.572 -16.531  0.00  0.00    -0.271 OA
HETATM    3  N           1     -34.356  -1.865 -16.127  0.00  0.00    -0.345 N 
HETATM    4  C           1     -35.493  -1.103 -16.131  0.00  0.00     0.249 C 
ENDROOT
BRANCH   3   5
HETATM    5  C           1     -34.398  -3.235 -16.601  0.00  0.00     0.187 C 
BRANCH   5   6
HETATM    6  C           1     -33.109  -3.554 -17.346  0.00  0.00     0.066 C 
BRANCH   6   7
HETATM    7  C           1     -32.208  -4.405 -16.462  0.00  0.00     0.273 C 
BRANCH   7   8
HETATM    8  N           1     -32.101  -5.727 -17.018  0.00  0.00     0.098 N 
HETATM    9  H           1     -32.705  -5.802 -17.837  0.00  0.00     0.317 HD
BRANCH   8  10
HETATM   10  C           1     -30.733  -5.927 -17.413  0.00  0.00     0.320 C 
BRANCH  10  11
HETATM   11  C           1     -29.820  -5.681 -16.218  0.00  0.00     0.056 C 
BRANCH  11  12
HETATM   12  C           1     -28.538  -5.007 -16.689  0.00  0.00     0.105 C 
BRANCH  12  13
HETATM   13  C           1     -27.353  -5.866 -16.321  0.00  0.00     0.215 C 
HETATM   14  O           1     -26.233  -5.425 -16.420  0.00  0.00    -0.274 OA
HETATM   15  N           1     -27.549  -7.145 -15.873  0.00  0.00    -0.370 N 
HETATM   16  H           1     -28.487  -7.514 -15.790  0.00  0.00     0.159 HD
HETATM   17  H           1     -26.755  -7.721 -15.626  0.00  0.00     0.159 HD
ENDBRANCH  12  13
ENDBRANCH  11  12
ENDBRANCH  10  11
BRANCH  10  18
HETATM   18  C           1     -30.552  -7.342 -17.902  0.00  0.00     0.207 C 
HETATM   19  O           1     -31.110  -7.716 -18.956  0.00  0.00    -0.646 OA
HETATM   20  O           1     -29.843  -8.142 -17.253  0.00  0.00    -0.646 OA
ENDBRANCH  10  18
ENDBRANCH   8  10
ENDBRANCH   7   8
ENDBRANCH   6   7
ENDBRANCH   5   6
BRANCH   5  21
HETATM   21  C           1     -34.543  -4.170 -15.425  0.00  0.00     0.196 C 
HETATM   22  O           1     -35.054  -5.300 -15.585  0.00  0.00    -0.646 OA
HETATM   23  O           1     -34.154  -3.814 -14.292  0.00  0.00    -0.646 OA
ENDBRANCH   5  21
ENDBRANCH   3   5
BRANCH   4  24
HETATM   24  C           1     -35.449   0.322 -15.638  0.00  0.00     0.274 C 
BRANCH  24  25
HETATM   25  N           1     -36.815   0.931 -15.752  0.00  0.00    -0.067 N 
HETATM   26  H           1     -36.924   1.365 -16.696  0.00  0.00     0.275 HD
HETATM   27  H           1     -36.933   1.663 -15.016  0.00  0.00     0.275 HD
HETATM   28  H           1     -37.540   0.189 -15.625  0.00  0.00     0.275 HD
ENDBRANCH  24  25
BRANCH  24  29
HETATM   29  C           1     -35.004   0.343 -14.182  0.00  0.00     0.044 C 
BRANCH  29  30
HETATM   30  C           1     -36.107  -0.236 -13.305  0.00  0.00     0.023 C 
BRANCH  30  31
HETATM   31  C           1     -35.513  -0.699 -11.982  0.00  0.00     0.138 C 
BRANCH  31  32
HETATM   32  N           1     -34.612  -1.836 -12.220  0.00  0.00    -0.227 N 
HETATM   33  C           1     -33.853  -2.246 -11.294  0.00  0.00     0.665 C 
HETATM   34  N           1     -33.871  -1.663 -10.133  0.00  0.00    -0.235 N 
HETATM   35  N           1     -33.077  -3.226 -11.499  0.00  0.00    -0.235 N 
HETATM   36  H           1     -33.244  -2.003  -9.367  0.00  0.00     0.174 HD
HETATM   37  H           1     -34.511  -0.855  -9.963  0.00  0.00     0.174 HD
HETATM   38  H           1     -32.447  -3.566 -10.731  0.00  0.00     0.174 HD
HETATM   39  H           1     -33.062  -3.697 -12.437  0.00  0.00     0.174 HD
HETATM   40  H           1     -34.598  -2.307 -13.158  0.00  0.00     0.177 HD
ENDBRANCH  31  32
ENDBRANCH  30  31
ENDBRANCH  29  30
ENDBRANCH  24  29
ENDBRANCH   4  24
TORSDOF 16
ENDMDL
MODEL 3
REMARK VINA RESULT:      -6.9     15.360     18.235
REMARK  16 active torsions:
REMARK  status: ('A' for Active; 'I' for Inactive)
REMARK    1  A    between atoms: C_2  and  C_3 
REMARK    2  A    between atoms: C_2  and  C_7 
REMARK    3  A    between atoms: C_3  and  C_12 
REMARK       I    between atoms: N_4  and  C_12 
REMARK    4  A    between atoms: C_6  and  C_7 
REMARK    5  A    between atoms: C_7  and  N_19 
REMARK       I    between atoms: N_13  and  C_24 
REMARK    6  A    between atoms: C_14  and  N_19 
REMARK    7  A    between atoms: C_14  and  C_15 
REMARK    8  A    between atoms: C_15  and  C_16 
REMARK    9  A    between atoms: C_16  and  C_17 
REMARK   10  A    between atoms: C_16  and  N_37 
REMARK   11  A    between atoms: C_21  and  C_40 
REMARK   12  A    between atoms: C_21  and  C_22 
REMARK   13  A    between atoms: C_22  and  N_23 
REMARK       I    between atoms: N_23  and  C_24 
REMARK   14  A    between atoms: N_33  and  C_39 
REMARK       I    between atoms: N_37  and  C_38 
REMARK   15  A    between atoms: C_38  and  C_39 
REMARK   16  A    between atoms: C_39  and  C_40 
ROOT
HETATM    1  H           1     -20.466  -8.324  -4.029  0.00  0.00     0.163 HD
HETATM    2  O           1     -19.408  -7.131  -6.730  0.00  0.00    -0.271 OA
HETATM    3  N           1     -19.926  -8.274  -4.883  0.00  0.00    -0.345 N 
HETATM    4  C           1     -20.052  -7.190  -5.709  0.00  0.00     0.249 C 
ENDROOT
BRANCH   3   5
HETATM    5  C           1     -19.020  -9.351  -5.233  0.00  0.00     0.187 C 
BRANCH   5   6
HETATM    6  C           1     -18.061  -9.602  -4.076  0.00  0.00     0.066 C 
BRANCH   6   7
HETATM    7  C           1     -18.724  -9.191  -2.768  0.00  0.00     0.273 C 
BRANCH   7   8
HETATM    8  N           1     -19.294 -10.350  -2.134  0.00  0.00     0.098 N 
HETATM    9  H           1     -18.670 -10.673  -1.394  0.00  0.00     0.317 HD
BRANCH   8  10
HETATM   10  C           1     -20.554  -9.960  -1.562  0.00  0.00     0.320 C 
BRANCH  10  11
HETATM   11  C           1     -20.524  -8.473  -1.235  0.00  0.00     0.056 C 
BRANCH  11  12
HETATM   12  C           1     -21.234  -8.231   0.091  0.00  0.00     0.105 C 
BRANCH  12  13
HETATM   13  C           1     -22.572  -7.582  -0.165  0.00  0.00     0.215 C 
HETATM   14  O           1     -22.683  -6.749  -1.032  0.00  0.00    -0.274 OA
HETATM   15  N           1     -23.660  -7.938   0.587  0.00  0.00    -0.370 N 
HETATM   16  H           1     -23.566  -8.636   1.314  0.00  0.00     0.159 HD
HETATM   17  H           1     -24.557  -7.503   0.416  0.00  0.00     0.159 HD
ENDBRANCH  12  13
ENDBRANCH  11  12
ENDBRANCH  10  11
BRANCH  10  18
HETATM   18  C           1     -21.660 -10.237  -2.551  0.00  0.00     0.207 C 
HETATM   19  O           1     -22.087  -9.320  -3.286  0.00  0.00    -0.646 OA
HETATM   20  O           1     -22.150 -11.384  -2.636  0.00  0.00    -0.646 OA
ENDBRANCH  10  18
ENDBRANCH   8  10
ENDBRANCH   7   8
ENDBRANCH   6   7
ENDBRANCH   5   6
BRANCH   5  21
HETATM   21  C           1     -19.814 -10.605  -5.510  0.00  0.00     0.196 C 
HETATM   22  O           1     -19.455 -11.694  -5.011  0.00  0.00    -0.646 OA
HETATM   23  O           1     -20.828 -10.554  -6.238  0.00  0.00    -0.646 OA
ENDBRANCH   5  21
ENDBRANCH   3   5
BRANCH   4  24
HETATM   24  C           1     -20.994  -6.069  -5.347  0.00  0.00     0.274 C 
BRANCH  24  25
HETATM   25  N           1     -21.377  -6.187  -3.901  0.00  0.00    -0.067 N 
HETATM   26  H           1     -20.872  -5.459  -3.347  0.00  0.00     0.275 HD
HETATM   27  H           1     -21.118  -7.136  -3.548  0.00  0.00     0.275 HD
HETATM   28  H           1     -22.408  -6.047  -3.800  0.00  0.00     0.275 HD
ENDBRANCH  24  25
BRANCH  24  29
HETATM   29  C           1     -20.309  -4.730  -5.584  0.00  0.00     0.044 C 
BRANCH  29  30
HETATM   30  C           1     -21.128  -3.908  -6.570  0.00  0.00     0.023 C 
BRANCH  30  31
HETATM   31  C           1     -22.173  -4.798  -7.229  0.00  0.00     0.138 C 
BRANCH  31  32
HETATM   32  N           1     -22.131  -4.608  -8.685  0.00  0.00    -0.227 N 
HETATM   33  C           1     -23.105  -4.061  -9.281  0.00  0.00     0.665 C 
HETATM   34  N           1     -24.142  -3.667  -8.603  0.00  0.00    -0.235 N 
HETATM   35  N           1     -23.069  -3.897 -10.536  0.00  0.00    -0.235 N 
HETATM   36  H           1     -24.946  -3.213  -9.095  0.00  0.00     0.174 HD
HETATM   37  H           1     -24.172  -3.802  -7.568  0.00  0.00     0.174 HD
HETATM   38  H           1     -23.876  -3.443 -11.030  0.00  0.00     0.174 HD
HETATM   39  H           1     -22.231  -4.216 -11.083  0.00  0.00     0.174 HD
HETATM   40  H           1     -21.294  -4.928  -9.232  0.00  0.00     0.177 HD
ENDBRANCH  31  32
ENDBRANCH  30  31
ENDBRANCH  29  30
ENDBRANCH  24  29
ENDBRANCH   4  24
TORSDOF 16
ENDMDL
MODEL 4
REMARK VINA RESULT:      -6.8      3.040      4.164
REMARK  16 active torsions:
REMARK  status: ('A' for Active; 'I' for Inactive)
REMARK    1  A    between atoms: C_2  and  C_3 
REMARK    2  A    between atoms: C_2  and  C_7 
REMARK    3  A    between atoms: C_3  and  C_12 
REMARK       I    between atoms: N_4  and  C_12 
REMARK    4  A    between atoms: C_6  and  C_7 
REMARK    5  A    between atoms: C_7  and  N_19 
REMARK       I    between atoms: N_13  and  C_24 
REMARK    6  A    between atoms: C_14  and  N_19 
REMARK    7  A    between atoms: C_14  and  C_15 
REMARK    8  A    between atoms: C_15  and  C_16 
REMARK    9  A    between atoms: C_16  and  C_17 
REMARK   10  A    between atoms: C_16  and  N_37 
REMARK   11  A    between atoms: C_21  and  C_40 
REMARK   12  A    between atoms: C_21  and  C_22 
REMARK   13  A    between atoms: C_22  and  N_23 
REMARK       I    between atoms: N_23  and  C_24 
REMARK   14  A    between atoms: N_33  and  C_39 
REMARK       I    between atoms: N_37  and  C_38 
REMARK   15  A    between atoms: C_38  and  C_39 
REMARK   16  A    between atoms: C_39  and  C_40 
ROOT
HETATM    1  H           1     -33.237  -4.853 -13.790  0.00  0.00     0.163 HD
HETATM    2  O           1     -34.987  -2.297 -14.285  0.00  0.00    -0.271 OA
HETATM    3  N           1     -33.818  -4.199 -14.300  0.00  0.00    -0.345 N 
HETATM    4  C           1     -34.293  -3.077 -13.677  0.00  0.00     0.249 C 
ENDROOT
BRANCH   3   5
HETATM    5  C           1     -34.148  -4.452 -15.689  0.00  0.00     0.187 C 
BRANCH   5   6
HETATM    6  C           1     -32.889  -4.338 -16.538  0.00  0.00     0.066 C 
BRANCH   6   7
HETATM    7  C           1     -31.700  -4.888 -15.761  0.00  0.00     0.273 C 
BRANCH   7   8
HETATM    8  N           1     -30.908  -5.724 -16.623  0.00  0.00     0.098 N 
HETATM    9  H           1     -31.085  -5.472 -17.596  0.00  0.00     0.317 HD
BRANCH   8  10
HETATM   10  C           1     -29.525  -5.487 -16.311  0.00  0.00     0.320 C 
BRANCH  10  11
HETATM   11  C           1     -28.702  -6.709 -16.698  0.00  0.00     0.056 C 
BRANCH  11  12
HETATM   12  C           1     -27.612  -6.937 -15.659  0.00  0.00     0.105 C 
BRANCH  12  13
HETATM   13  C           1     -26.271  -6.575 -16.247  0.00  0.00     0.215 C 
HETATM   14  O           1     -26.188  -6.249 -17.407  0.00  0.00    -0.274 OA
HETATM   15  N           1     -25.147  -6.616 -15.465  0.00  0.00    -0.370 N 
HETATM   16  H           1     -25.217  -6.889 -14.493  0.00  0.00     0.159 HD
HETATM   17  H           1     -24.248  -6.373 -15.859  0.00  0.00     0.159 HD
ENDBRANCH  12  13
ENDBRANCH  11  12
ENDBRANCH  10  11
BRANCH  10  18
HETATM   18  C           1     -29.035  -4.285 -17.080  0.00  0.00     0.207 C 
HETATM   19  O           1     -29.559  -3.986 -18.174  0.00  0.00    -0.646 OA
HETATM   20  O           1     -28.104  -3.587 -16.621  0.00  0.00    -0.646 OA
ENDBRANCH  10  18
ENDBRANCH   8  10
ENDBRANCH   7   8
ENDBRANCH   6   7
ENDBRANCH   5   6
BRANCH   5  21
HETATM   21  C           1     -34.721  -5.842 -15.824  0.00  0.00     0.196 C 
HETATM   22  O           1     -34.202  -6.657 -16.618  0.00  0.00    -0.646 OA
HETATM   23  O           1     -35.714  -6.177 -15.144  0.00  0.00    -0.646 OA
ENDBRANCH   5  21
ENDBRANCH   3   5
BRANCH   4  24
HETATM   24  C           1     -33.950  -2.813 -12.232  0.00  0.00     0.274 C 
BRANCH  24  25
HETATM   25  N           1     -35.214  -2.663 -11.439  0.00  0.00    -0.067 N 
HETATM   26  H           1     -35.202  -1.748 -10.934  0.00  0.00     0.275 HD
HETATM   27  H           1     -35.286  -3.442 -10.746  0.00  0.00     0.275 HD
HETATM   28  H           1     -36.037  -2.693 -12.083  0.00  0.00     0.275 HD
ENDBRANCH  24  25
BRANCH  24  29
HETATM   29  C           1     -33.139  -3.977 -11.679  0.00  0.00     0.044 C 
BRANCH  29  30
HETATM   30  C           1     -33.932  -4.672 -10.580  0.00  0.00     0.023 C 
BRANCH  30  31
HETATM   31  C           1     -34.652  -5.882 -11.160  0.00  0.00     0.138 C 
BRANCH  31  32
HETATM   32  N           1     -33.799  -7.071 -11.026  0.00  0.00    -0.227 N 
HETATM   33  C           1     -34.122  -7.995 -10.223  0.00  0.00     0.665 C 
HETATM   34  N           1     -35.209  -7.892  -9.518  0.00  0.00    -0.235 N 
HETATM   35  N           1     -33.387  -9.020 -10.108  0.00  0.00    -0.235 N 
HETATM   36  H           1     -35.477  -8.656  -8.856  0.00  0.00     0.174 HD
HETATM   37  H           1     -35.816  -7.047  -9.612  0.00  0.00     0.174 HD
HETATM   38  H           1     -33.655  -9.786  -9.443  0.00  0.00     0.174 HD
HETATM   39  H           1     -32.509  -9.102 -10.678  0.00  0.00     0.174 HD
HETATM   40  H           1     -32.921  -7.153 -11.595  0.00  0.00     0.177 HD
ENDBRANCH  31  32
ENDBRANCH  30  31
ENDBRANCH  29  30
ENDBRANCH  24  29
ENDBRANCH   4  24
TORSDOF 16
ENDMDL
MODEL 5
REMARK VINA RESULT:      -6.8     15.160     17.841
REMARK  16 active torsions:
REMARK  status: ('A' for Active; 'I' for Inactive)
REMARK    1  A    between atoms: C_2  and  C_3 
REMARK    2  A    between atoms: C_2  and  C_7 
REMARK    3  A    between atoms: C_3  and  C_12 
REMARK       I    between atoms: N_4  and  C_12 
REMARK    4  A    between atoms: C_6  and  C_7 
REMARK    5  A    between atoms: C_7  and  N_19 
REMARK       I    between atoms: N_13  and  C_24 
REMARK    6  A    between atoms: C_14  and  N_19 
REMARK    7  A    between atoms: C_14  and  C_15 
REMARK    8  A    between atoms: C_15  and  C_16 
REMARK    9  A    between atoms: C_16  and  C_17 
REMARK   10  A    between atoms: C_16  and  N_37 
REMARK   11  A    between atoms: C_21  and  C_40 
REMARK   12  A    between atoms: C_21  and  C_22 
REMARK   13  A    between atoms: C_22  and  N_23 
REMARK       I    between atoms: N_23  and  C_24 
REMARK   14  A    between atoms: N_33  and  C_39 
REMARK       I    between atoms: N_37  and  C_38 
REMARK   15  A    between atoms: C_38  and  C_39 
REMARK   16  A    between atoms: C_39  and  C_40 
ROOT
HETATM    1  H           1     -21.209  -7.556  -3.674  0.00  0.00     0.163 HD
HETATM    2  O           1     -19.782  -7.200  -6.445  0.00  0.00    -0.271 OA
HETATM    3  N           1     -20.638  -7.803  -4.473  0.00  0.00    -0.345 N 
HETATM    4  C           1     -20.463  -6.905  -5.491  0.00  0.00     0.249 C 
ENDROOT
BRANCH   3   5
HETATM    5  C           1     -20.007  -9.107  -4.539  0.00  0.00     0.187 C 
BRANCH   5   6
HETATM    6  C           1     -19.465  -9.478  -3.164  0.00  0.00     0.066 C 
BRANCH   6   7
HETATM    7  C           1     -20.194  -8.673  -2.097  0.00  0.00     0.273 C 
BRANCH   7   8
HETATM    8  N           1     -20.779  -9.570  -1.136  0.00  0.00     0.098 N 
HETATM    9  H           1     -20.304  -9.464  -0.240  0.00  0.00     0.317 HD
BRANCH   8  10
HETATM   10  C           1     -22.164  -9.212  -0.990  0.00  0.00     0.320 C 
BRANCH  10  11
HETATM   11  C           1     -22.899 -10.323  -0.252  0.00  0.00     0.056 C 
BRANCH  11  12
HETATM   12  C           1     -23.857 -11.021  -1.209  0.00  0.00     0.105 C 
BRANCH  12  13
HETATM   13  C           1     -23.439 -12.461  -1.377  0.00  0.00     0.215 C 
HETATM   14  O           1     -24.145 -13.348  -0.959  0.00  0.00    -0.274 OA
HETATM   15  N           1     -22.259 -12.763  -2.004  0.00  0.00    -0.370 N 
HETATM   16  H           1     -21.668 -12.020  -2.355  0.00  0.00     0.159 HD
HETATM   17  H           1     -21.979 -13.728  -2.117  0.00  0.00     0.159 HD
ENDBRANCH  12  13
ENDBRANCH  11  12
ENDBRANCH  10  11
BRANCH  10  18
HETATM   18  C           1     -22.270  -7.928  -0.204  0.00  0.00     0.207 C 
HETATM   19  O           1     -22.800  -6.921  -0.719  0.00  0.00    -0.646 OA
HETATM   20  O           1     -21.829  -7.874   0.965  0.00  0.00    -0.646 OA
ENDBRANCH  10  18
ENDBRANCH   8  10
ENDBRANCH   7   8
ENDBRANCH   6   7
ENDBRANCH   5   6
BRANCH   5  21
HETATM   21  C           1     -21.023 -10.135  -4.973  0.00  0.00     0.196 C 
HETATM   22  O           1     -21.098 -10.470  -6.175  0.00  0.00    -0.646 OA
HETATM   23  O           1     -21.789 -10.651  -4.131  0.00  0.00    -0.646 OA
ENDBRANCH   5  21
ENDBRANCH   3   5
BRANCH   4  24
HETATM   24  C           1     -21.119  -5.548  -5.424  0.00  0.00     0.274 C 
BRANCH  24  25
HETATM   25  N           1     -20.062  -4.484  -5.392  0.00  0.00    -0.067 N 
HETATM   26  H           1     -20.386  -3.691  -4.794  0.00  0.00     0.275 HD
HETATM   27  H           1     -19.885  -4.140  -6.363  0.00  0.00     0.275 HD
HETATM   28  H           1     -19.179  -4.880  -4.996  0.00  0.00     0.275 HD
ENDBRANCH  24  25
BRANCH  24  29
HETATM   29  C           1     -22.004  -5.349  -6.647  0.00  0.00     0.044 C 
BRANCH  29  30
HETATM   30  C           1     -21.680  -4.009  -7.295  0.00  0.00     0.023 C 
BRANCH  30  31
HETATM   31  C           1     -22.221  -3.989  -8.718  0.00  0.00     0.138 C 
BRANCH  31  32
HETATM   32  N           1     -23.643  -3.622  -8.697  0.00  0.00    -0.227 N 
HETATM   33  C           1     -24.375  -3.865  -9.701  0.00  0.00     0.665 C 
HETATM   34  N           1     -23.868  -4.441 -10.750  0.00  0.00    -0.235 N 
HETATM   35  N           1     -25.602  -3.549  -9.682  0.00  0.00    -0.235 N 
HETATM   36  H           1     -24.473  -4.644 -11.579  0.00  0.00     0.174 HD
HETATM   37  H           1     -22.857  -4.702 -10.766  0.00  0.00     0.174 HD
HETATM   38  H           1     -26.208  -3.752 -10.515  0.00  0.00     0.174 HD
HETATM   39  H           1     -26.011  -3.084  -8.835  0.00  0.00     0.174 HD
HETATM   40  H           1     -24.053  -3.156  -7.850  0.00  0.00     0.177 HD
ENDBRANCH  31  32
ENDBRANCH  30  31
ENDBRANCH  29  30
ENDBRANCH  24  29
ENDBRANCH   4  24
TORSDOF 16
ENDMDL
MODEL 6
REMARK VINA RESULT:      -6.7     13.729     16.492
REMARK  16 active torsions:
REMARK  status: ('A' for Active; 'I' for Inactive)
REMARK    1  A    between atoms: C_2  and  C_3 
REMARK    2  A    between atoms: C_2  and  C_7 
REMARK    3  A    between atoms: C_3  and  C_12 
REMARK       I    between atoms: N_4  and  C_12 
REMARK    4  A    between atoms: C_6  and  C_7 
REMARK    5  A    between atoms: C_7  and  N_19 
REMARK       I    between atoms: N_13  and  C_24 
REMARK    6  A    between atoms: C_14  and  N_19 
REMARK    7  A    between atoms: C_14  and  C_15 
REMARK    8  A    between atoms: C_15  and  C_16 
REMARK    9  A    between atoms: C_16  and  C_17 
REMARK   10  A    between atoms: C_16  and  N_37 
REMARK   11  A    between atoms: C_21  and  C_40 
REMARK   12  A    between atoms: C_21  and  C_22 
REMARK   13  A    between atoms: C_22  and  N_23 
REMARK       I    between atoms: N_23  and  C_24 
REMARK   14  A    between atoms: N_33  and  C_39 
REMARK       I    between atoms: N_37  and  C_38 
REMARK   15  A    between atoms: C_38  and  C_39 
REMARK   16  A    between atoms: C_39  and  C_40 
ROOT
HETATM    1  H           1     -21.795  -8.570  -6.311  0.00  0.00     0.163 HD
HETATM    2  O           1     -19.462  -8.889  -4.238  0.00  0.00    -0.271 OA
HETATM    3  N           1     -21.040  -8.287  -5.698  0.00  0.00    -0.345 N 
HETATM    4  C           1     -20.362  -9.227  -4.970  0.00  0.00     0.249 C 
ENDROOT
BRANCH   3   5
HETATM    5  C           1     -20.679  -6.887  -5.592  0.00  0.00     0.187 C 
BRANCH   5   6
HETATM    6  C           1     -20.540  -6.291  -6.987  0.00  0.00     0.066 C 
BRANCH   6   7
HETATM    7  C           1     -19.728  -5.006  -6.911  0.00  0.00     0.273 C 
BRANCH   7   8
HETATM    8  N           1     -20.411  -3.963  -7.628  0.00  0.00     0.098 N 
HETATM    9  H           1     -19.726  -3.316  -8.020  0.00  0.00     0.317 HD
BRANCH   8  10
HETATM   10  C           1     -21.153  -4.580  -8.694  0.00  0.00     0.320 C 
BRANCH  10  11
HETATM   11  C           1     -22.584  -4.058  -8.683  0.00  0.00     0.056 C 
BRANCH  11  12
HETATM   12  C           1     -23.453  -4.940  -9.571  0.00  0.00     0.105 C 
BRANCH  12  13
HETATM   13  C           1     -24.492  -4.091 -10.261  0.00  0.00     0.215 C 
HETATM   14  O           1     -24.461  -3.954 -11.460  0.00  0.00    -0.274 OA
HETATM   15  N           1     -25.470  -3.476  -9.526  0.00  0.00    -0.370 N 
HETATM   16  H           1     -25.496  -3.590  -8.521  0.00  0.00     0.159 HD
HETATM   17  H           1     -26.167  -2.906  -9.988  0.00  0.00     0.159 HD
ENDBRANCH  12  13
ENDBRANCH  11  12
ENDBRANCH  10  11
BRANCH  10  18
HETATM   18  C           1     -20.505  -4.246 -10.016  0.00  0.00     0.207 C 
HETATM   19  O           1     -20.710  -3.136 -10.551  0.00  0.00    -0.646 OA
HETATM   20  O           1     -19.761  -5.081 -10.574  0.00  0.00    -0.646 OA
ENDBRANCH  10  18
ENDBRANCH   8  10
ENDBRANCH   7   8
ENDBRANCH   6   7
ENDBRANCH   5   6
BRANCH   5  21
HETATM   21  C           1     -21.755  -6.147  -4.834  0.00  0.00     0.196 C 
HETATM   22  O           1     -22.827  -5.849  -5.403  0.00  0.00    -0.646 OA
HETATM   23  O           1     -21.573  -5.833  -3.638  0.00  0.00    -0.646 OA
ENDBRANCH   5  21
ENDBRANCH   3   5
BRANCH   4  24
HETATM   24  C           1     -20.737 -10.684  -5.080  0.00  0.00     0.274 C 
BRANCH  24  25
HETATM   25  N           1     -19.618 -11.439  -5.733  0.00  0.00    -0.067 N 
HETATM   26  H           1     -18.703 -11.059  -5.404  0.00  0.00     0.275 HD
HETATM   27  H           1     -19.686 -11.335  -6.771  0.00  0.00     0.275 HD
HETATM   28  H           1     -19.685 -12.451  -5.480  0.00  0.00     0.275 HD
ENDBRANCH  24  25
BRANCH  24  29
HETATM   29  C           1     -20.990 -11.252  -3.690  0.00  0.00     0.044 C 
BRANCH  29  30
HETATM   30  C           1     -22.223 -10.590  -3.089  0.00  0.00     0.023 C 
BRANCH  30  31
HETATM   31  C           1     -21.876 -10.013  -1.723  0.00  0.00     0.138 C 
BRANCH  31  32
HETATM   32  N           1     -21.817  -8.547  -1.811  0.00  0.00    -0.227 N 
HETATM   33  C           1     -22.283  -7.838  -0.872  0.00  0.00     0.665 C 
HETATM   34  N           1     -22.812  -8.406   0.170  0.00  0.00    -0.235 N 
HETATM   35  N           1     -22.231  -6.574  -0.947  0.00  0.00    -0.235 N 
HETATM   36  H           1     -23.196  -7.819   0.947  0.00  0.00     0.174 HD
HETATM   37  H           1     -22.855  -9.448   0.233  0.00  0.00     0.174 HD
HETATM   38  H           1     -22.617  -5.986  -0.168  0.00  0.00     0.174 HD
HETATM   39  H           1     -21.803  -6.116  -1.789  0.00  0.00     0.174 HD
HETATM   40  H           1     -21.389  -8.089  -2.653  0.00  0.00     0.177 HD
ENDBRANCH  31  32
ENDBRANCH  30  31
ENDBRANCH  29  30
ENDBRANCH  24  29
ENDBRANCH   4  24
TORSDOF 16
ENDMDL
MODEL 7
REMARK VINA RESULT:      -6.7      2.570      3.606
REMARK  16 active torsions:
REMARK  status: ('A' for Active; 'I' for Inactive)
REMARK    1  A    between atoms: C_2  and  C_3 
REMARK    2  A    between atoms: C_2  and  C_7 
REMARK    3  A    between atoms: C_3  and  C_12 
REMARK       I    between atoms: N_4  and  C_12 
REMARK    4  A    between atoms: C_6  and  C_7 
REMARK    5  A    between atoms: C_7  and  N_19 
REMARK       I    between atoms: N_13  and  C_24 
REMARK    6  A    between atoms: C_14  and  N_19 
REMARK    7  A    between atoms: C_14  and  C_15 
REMARK    8  A    between atoms: C_15  and  C_16 
REMARK    9  A    between atoms: C_16  and  C_17 
REMARK   10  A    between atoms: C_16  and  N_37 
REMARK   11  A    between atoms: C_21  and  C_40 
REMARK   12  A    between atoms: C_21  and  C_22 
REMARK   13  A    between atoms: C_22  and  N_23 
REMARK       I    between atoms: N_23  and  C_24 
REMARK   14  A    between atoms: N_33  and  C_39 
REMARK       I    between atoms: N_37  and  C_38 
REMARK   15  A    between atoms: C_38  and  C_39 
REMARK   16  A    between atoms: C_39  and  C_40 
ROOT
HETATM    1  H           1     -33.239  -4.877 -13.632  0.00  0.00     0.163 HD
HETATM    2  O           1     -34.913  -2.315 -14.317  0.00  0.00    -0.271 OA
HETATM    3  N           1     -33.739  -4.210 -14.206  0.00  0.00    -0.345 N 
HETATM    4  C           1     -34.315  -3.110 -13.632  0.00  0.00     0.249 C 
ENDROOT
BRANCH   3   5
HETATM    5  C           1     -33.846  -4.422 -15.636  0.00  0.00     0.187 C 
BRANCH   5   6
HETATM    6  C           1     -32.451  -4.548 -16.236  0.00  0.00     0.066 C 
BRANCH   6   7
HETATM    7  C           1     -32.395  -3.788 -17.554  0.00  0.00     0.273 C 
BRANCH   7   8
HETATM    8  N           1     -31.098  -3.186 -17.706  0.00  0.00     0.098 N 
HETATM    9  H           1     -31.030  -2.369 -17.098  0.00  0.00     0.317 HD
BRANCH   8  10
HETATM   10  C           1     -30.115  -4.159 -17.313  0.00  0.00     0.320 C 
BRANCH  10  11
HETATM   11  C           1     -29.813  -5.078 -18.489  0.00  0.00     0.056 C 
BRANCH  11  12
HETATM   12  C           1     -29.336  -6.428 -17.969  0.00  0.00     0.105 C 
BRANCH  12  13
HETATM   13  C           1     -30.332  -7.495 -18.353  0.00  0.00     0.215 C 
HETATM   14  O           1     -29.977  -8.444 -19.011  0.00  0.00    -0.274 OA
HETATM   15  N           1     -31.637  -7.388 -17.954  0.00  0.00    -0.370 N 
HETATM   16  H           1     -31.934  -6.593 -17.402  0.00  0.00     0.159 HD
HETATM   17  H           1     -32.305  -8.103 -18.211  0.00  0.00     0.159 HD
ENDBRANCH  12  13
ENDBRANCH  11  12
ENDBRANCH  10  11
BRANCH  10  18
HETATM   18  C           1     -28.851  -3.452 -16.888  0.00  0.00     0.207 C 
HETATM   19  O           1     -28.010  -4.045 -16.178  0.00  0.00    -0.646 OA
HETATM   20  O           1     -28.644  -2.273 -17.248  0.00  0.00    -0.646 OA
ENDBRANCH  10  18
ENDBRANCH   8  10
ENDBRANCH   7   8
ENDBRANCH   6   7
ENDBRANCH   5   6
BRANCH   5  21
HETATM   21  C           1     -34.623  -5.689 -15.900  0.00  0.00     0.196 C 
HETATM   22  O           1     -34.152  -6.564 -16.659  0.00  0.00    -0.646 OA
HETATM   23  O           1     -35.737  -5.862 -15.361  0.00  0.00    -0.646 OA
ENDBRANCH   5  21
ENDBRANCH   3   5
BRANCH   4  24
HETATM   24  C           1     -34.205  -2.889 -12.143  0.00  0.00     0.274 C 
BRANCH  24  25
HETATM   25  N           1     -34.784  -1.551 -11.793  0.00  0.00    -0.067 N 
HETATM   26  H           1     -34.917  -1.489 -10.759  0.00  0.00     0.275 HD
HETATM   27  H           1     -35.706  -1.434 -12.271  0.00  0.00     0.275 HD
HETATM   28  H           1     -34.132  -0.795 -12.106  0.00  0.00     0.275 HD
ENDBRANCH  24  25
BRANCH  24  29
HETATM   29  C           1     -34.969  -3.981 -11.408  0.00  0.00     0.044 C 
BRANCH  29  30
HETATM   30  C           1     -33.982  -4.933 -10.745  0.00  0.00     0.023 C 
BRANCH  30  31
HETATM   31  C           1     -34.721  -6.172 -10.255  0.00  0.00     0.138 C 
BRANCH  31  32
HETATM   32  N           1     -34.061  -7.376 -10.780  0.00  0.00    -0.227 N 
HETATM   33  C           1     -33.969  -8.412 -10.058  0.00  0.00     0.665 C 
HETATM   34  N           1     -34.459  -8.411  -8.854  0.00  0.00    -0.235 N 
HETATM   35  N           1     -33.401  -9.450 -10.511  0.00  0.00    -0.235 N 
HETATM   36  H           1     -34.384  -9.268  -8.259  0.00  0.00     0.174 HD
HETATM   37  H           1     -34.928  -7.555  -8.481  0.00  0.00     0.174 HD
HETATM   38  H           1     -33.325 -10.309  -9.912  0.00  0.00     0.174 HD
HETATM   39  H           1     -33.005  -9.450 -11.483  0.00  0.00     0.174 HD
HETATM   40  H           1     -33.665  -7.376 -11.752  0.00  0.00     0.177 HD
ENDBRANCH  31  32
ENDBRANCH  30  31
ENDBRANCH  29  30
ENDBRANCH  24  29
ENDBRANCH   4  24
TORSDOF 16
ENDMDL
MODEL 8
REMARK VINA RESULT:      -6.6     14.686     17.516
REMARK  16 active torsions:
REMARK  status: ('A' for Active; 'I' for Inactive)
REMARK    1  A    between atoms: C_2  and  C_3 
REMARK    2  A    between atoms: C_2  and  C_7 
REMARK    3  A    between atoms: C_3  and  C_12 
REMARK       I    between atoms: N_4  and  C_12 
REMARK    4  A    between atoms: C_6  and  C_7 
REMARK    5  A    between atoms: C_7  and  N_19 
REMARK       I    between atoms: N_13  and  C_24 
REMARK    6  A    between atoms: C_14  and  N_19 
REMARK    7  A    between atoms: C_14  and  C_15 
REMARK    8  A    between atoms: C_15  and  C_16 
REMARK    9  A    between atoms: C_16  and  C_17 
REMARK   10  A    between atoms: C_16  and  N_37 
REMARK   11  A    between atoms: C_21  and  C_40 
REMARK   12  A    between atoms: C_21  and  C_22 
REMARK   13  A    between atoms: C_22  and  N_23 
REMARK       I    between atoms: N_23  and  C_24 
REMARK   14  A    between atoms: N_33  and  C_39 
REMARK       I    between atoms: N_37  and  C_38 
REMARK   15  A    between atoms: C_38  and  C_39 
REMARK   16  A    between atoms: C_39  and  C_40 
ROOT
HETATM    1  H           1     -22.395  -6.639  -6.533  0.00  0.00     0.163 HD
HETATM    2  O           1     -19.875  -4.795  -6.241  0.00  0.00    -0.271 OA
HETATM    3  N           1     -21.550  -6.265  -6.120  0.00  0.00    -0.345 N 
HETATM    4  C           1     -20.884  -5.239  -6.734  0.00  0.00     0.249 C 
ENDROOT
BRANCH   3   5
HETATM    5  C           1     -21.045  -6.819  -4.879  0.00  0.00     0.187 C 
BRANCH   5   6
HETATM    6  C           1     -22.104  -6.680  -3.793  0.00  0.00     0.066 C 
BRANCH   6   7
HETATM    7  C           1     -21.444  -6.239  -2.493  0.00  0.00     0.273 C 
BRANCH   7   8
HETATM    8  N           1     -22.289  -6.589  -1.383  0.00  0.00     0.098 N 
HETATM    9  H           1     -23.262  -6.398  -1.623  0.00  0.00     0.317 HD
BRANCH   8  10
HETATM   10  C           1     -22.124  -7.996  -1.135  0.00  0.00     0.320 C 
BRANCH  10  11
HETATM   11  C           1     -20.643  -8.348  -1.182  0.00  0.00     0.056 C 
BRANCH  11  12
HETATM   12  C           1     -20.483  -9.862  -1.239  0.00  0.00     0.105 C 
BRANCH  12  13
HETATM   13  C           1     -19.267 -10.209  -2.062  0.00  0.00     0.215 C 
HETATM   14  O           1     -18.824 -11.333  -2.043  0.00  0.00    -0.274 OA
HETATM   15  N           1     -18.665  -9.249  -2.831  0.00  0.00    -0.370 N 
HETATM   16  H           1     -19.036  -8.308  -2.847  0.00  0.00     0.159 HD
HETATM   17  H           1     -17.849  -9.481  -3.383  0.00  0.00     0.159 HD
ENDBRANCH  12  13
ENDBRANCH  11  12
ENDBRANCH  10  11
BRANCH  10  18
HETATM   18  C           1     -22.679  -8.334   0.227  0.00  0.00     0.207 C 
HETATM   19  O           1     -23.666  -9.092   0.330  0.00  0.00    -0.646 OA
HETATM   20  O           1     -22.149  -7.855   1.254  0.00  0.00    -0.646 OA
ENDBRANCH  10  18
ENDBRANCH   8  10
ENDBRANCH   7   8
ENDBRANCH   6   7
ENDBRANCH   5   6
BRANCH   5  21
HETATM   21  C           1     -20.715  -8.278  -5.076  0.00  0.00     0.196 C 
HETATM   22  O           1     -21.476  -9.158  -4.617  0.00  0.00    -0.646 OA
HETATM   23  O           1     -19.683  -8.607  -5.699  0.00  0.00    -0.646 OA
ENDBRANCH   5  21
ENDBRANCH   3   5
BRANCH   4  24
HETATM   24  C           1     -21.409  -4.663  -8.025  0.00  0.00     0.274 C 
BRANCH  24  25
HETATM   25  N           1     -22.482  -3.660  -7.724  0.00  0.00    -0.067 N 
HETATM   26  H           1     -22.143  -2.703  -7.972  0.00  0.00     0.275 HD
HETATM   27  H           1     -22.716  -3.694  -6.706  0.00  0.00     0.275 HD
HETATM   28  H           1     -23.336  -3.882  -8.285  0.00  0.00     0.275 HD
ENDBRANCH  24  25
BRANCH  24  29
HETATM   29  C           1     -20.274  -3.983  -8.778  0.00  0.00     0.044 C 
BRANCH  29  30
HETATM   30  C           1     -20.222  -4.513 -10.205  0.00  0.00     0.023 C 
BRANCH  30  31
HETATM   31  C           1     -21.091  -3.643 -11.103  0.00  0.00     0.138 C 
BRANCH  31  32
HETATM   32  N           1     -21.873  -4.499 -12.006  0.00  0.00    -0.227 N 
HETATM   33  C           1     -23.107  -4.685 -11.792  0.00  0.00     0.665 C 
HETATM   34  N           1     -23.682  -4.119 -10.773  0.00  0.00    -0.235 N 
HETATM   35  N           1     -23.781  -5.422 -12.571  0.00  0.00    -0.235 N 
HETATM   36  H           1     -24.701  -4.272 -10.597  0.00  0.00     0.174 HD
HETATM   37  H           1     -23.126  -3.511 -10.130  0.00  0.00     0.174 HD
HETATM   38  H           1     -24.804  -5.576 -12.393  0.00  0.00     0.174 HD
HETATM   39  H           1     -23.316  -5.880 -13.394  0.00  0.00     0.174 HD
HETATM   40  H           1     -21.409  -4.956 -12.829  0.00  0.00     0.177 HD
ENDBRANCH  31  32
ENDBRANCH  30  31
ENDBRANCH  29  30
ENDBRANCH  24  29
ENDBRANCH   4  24
TORSDOF 16
ENDMDL
MODEL 9
REMARK VINA RESULT:      -6.6     15.173     17.822
REMARK  16 active torsions:
REMARK  status: ('A' for Active; 'I' for Inactive)
REMARK    1  A    between atoms: C_2  and  C_3 
REMARK    2  A    between atoms: C_2  and  C_7 
REMARK    3  A    between atoms: C_3  and  C_12 
REMARK       I    between atoms: N_4  and  C_12 
REMARK    4  A    between atoms: C_6  and  C_7 
REMARK    5  A    between atoms: C_7  and  N_19 
REMARK       I    between atoms: N_13  and  C_24 
REMARK    6  A    between atoms: C_14  and  N_19 
REMARK    7  A    between atoms: C_14  and  C_15 
REMARK    8  A    between atoms: C_15  and  C_16 
REMARK    9  A    between atoms: C_16  and  C_17 
REMARK   10  A    between atoms: C_16  and  N_37 
REMARK   11  A    between atoms: C_21  and  C_40 
REMARK   12  A    between atoms: C_21  and  C_22 
REMARK   13  A    between atoms: C_22  and  N_23 
REMARK       I    between atoms: N_23  and  C_24 
REMARK   14  A    between atoms: N_33  and  C_39 
REMARK       I    between atoms: N_37  and  C_38 
REMARK   15  A    between atoms: C_38  and  C_39 
REMARK   16  A    between atoms: C_39  and  C_40 
ROOT
HETATM    1  H           1     -20.493  -5.759  -3.369  0.00  0.00     0.163 HD
HETATM    2  O           1     -21.818  -7.752  -5.396  0.00  0.00    -0.271 OA
HETATM    3  N           1     -20.985  -6.585  -3.685  0.00  0.00    -0.345 N 
HETATM    4  C           1     -21.229  -6.767  -5.019  0.00  0.00     0.249 C 
ENDROOT
BRANCH   3   5
HETATM    5  C           1     -21.432  -7.574  -2.724  0.00  0.00     0.187 C 
BRANCH   5   6
HETATM    6  C           1     -20.248  -8.426  -2.284  0.00  0.00     0.066 C 
BRANCH   6   7
HETATM    7  C           1     -20.341  -9.799  -2.936  0.00  0.00     0.273 C 
BRANCH   7   8
HETATM    8  N           1     -21.719 -10.108  -3.210  0.00  0.00     0.098 N 
HETATM    9  H           1     -21.873 -10.106  -4.218  0.00  0.00     0.317 HD
BRANCH   8  10
HETATM   10  C           1     -21.985 -11.421  -2.686  0.00  0.00     0.320 C 
BRANCH  10  11
HETATM   11  C           1     -23.346 -11.427  -2.004  0.00  0.00     0.056 C 
BRANCH  11  12
HETATM   12  C           1     -23.292 -10.556  -0.755  0.00  0.00     0.105 C 
BRANCH  12  13
HETATM   13  C           1     -22.268 -11.112   0.203  0.00  0.00     0.215 C 
HETATM   14  O           1     -22.369 -12.248   0.603  0.00  0.00    -0.274 OA
HETATM   15  N           1     -21.225 -10.329   0.619  0.00  0.00    -0.370 N 
HETATM   16  H           1     -21.141  -9.378   0.284  0.00  0.00     0.159 HD
HETATM   17  H           1     -20.538 -10.702   1.262  0.00  0.00     0.159 HD
ENDBRANCH  12  13
ENDBRANCH  11  12
ENDBRANCH  10  11
BRANCH  10  18
HETATM   18  C           1     -21.982 -12.421  -3.815  0.00  0.00     0.207 C 
HETATM   19  O           1     -21.240 -13.425  -3.761  0.00  0.00    -0.646 OA
HETATM   20  O           1     -22.725 -12.247  -4.806  0.00  0.00    -0.646 OA
ENDBRANCH  10  18
ENDBRANCH   8  10
ENDBRANCH   7   8
ENDBRANCH   6   7
ENDBRANCH   5   6
BRANCH   5  21
HETATM   21  C           1     -22.023  -6.877  -1.523  0.00  0.00     0.196 C 
HETATM   22  O           1     -22.082  -7.469  -0.423  0.00  0.00    -0.646 OA
HETATM   23  O           1     -22.454  -5.709  -1.628  0.00  0.00    -0.646 OA
ENDBRANCH   5  21
ENDBRANCH   3   5
BRANCH   4  24
HETATM   24  C           1     -20.765  -5.738  -6.020  0.00  0.00     0.274 C 
BRANCH  24  25
HETATM   25  N           1     -19.986  -6.416  -7.107  0.00  0.00    -0.067 N 
HETATM   26  H           1     -19.043  -6.682  -6.746  0.00  0.00     0.275 HD
HETATM   27  H           1     -19.877  -5.764  -7.917  0.00  0.00     0.275 HD
HETATM   28  H           1     -20.494  -7.275  -7.418  0.00  0.00     0.275 HD
ENDBRANCH  24  25
BRANCH  24  29
HETATM   29  C           1     -21.972  -5.033  -6.623  0.00  0.00     0.044 C 
BRANCH  29  30
HETATM   30  C           1     -21.503  -3.851  -7.461  0.00  0.00     0.023 C 
BRANCH  30  31
HETATM   31  C           1     -22.134  -3.926  -8.845  0.00  0.00     0.138 C 
BRANCH  31  32
HETATM   32  N           1     -23.558  -3.576  -8.755  0.00  0.00    -0.227 N 
HETATM   33  C           1     -24.336  -3.836  -9.719  0.00  0.00     0.665 C 
HETATM   34  N           1     -23.875  -4.414 -10.788  0.00  0.00    -0.235 N 
HETATM   35  N           1     -25.564  -3.535  -9.641  0.00  0.00    -0.235 N 
HETATM   36  H           1     -24.519  -4.630 -11.584  0.00  0.00     0.174 HD
HETATM   37  H           1     -22.863  -4.663 -10.853  0.00  0.00     0.174 HD
HETATM   38  H           1     -26.209  -3.751 -10.440  0.00  0.00     0.174 HD
HETATM   39  H           1     -25.936  -3.067  -8.777  0.00  0.00     0.174 HD
HETATM   40  H           1     -23.930  -3.109  -7.891  0.00  0.00     0.177 HD
ENDBRANCH  31  32
ENDBRANCH  30  31
ENDBRANCH  29  30
ENDBRANCH  24  29
ENDBRANCH   4  24
TORSDOF 16
ENDMDL
