MODEL 1
REMARK VINA RESULT:      -6.2      0.000      0.000
REMARK  8 active torsions:
REMARK  status: ('A' for Active; 'I' for Inactive)
REMARK    1  A    between atoms: C_2  and  C_3 
REMARK    2  A    between atoms: C_2  and  C_19 
REMARK    3  A    between atoms: C_2  and  N_16 
REMARK       I    between atoms: C_3  and  N_8 
REMARK    4  A    between atoms: S_4  and  C_5 
REMARK    5  A    between atoms: C_5  and  C_13 
REMARK    6  A    between atoms: N_8  and  C_13 
REMARK    7  A    between atoms: C_9  and  C_13 
REMARK    8  A    between atoms: C_18  and  C_19 
ROOT
HETATM    1  C           1     -34.344  -2.428 -12.448  0.00  0.00     0.249 C 
HETATM    2  H           1     -34.979  -0.715 -11.476  0.00  0.00     0.163 HD
HETATM    3  N           1     -35.051  -1.263 -12.324  0.00  0.00    -0.344 N 
HETATM    4  O           1     -34.428  -3.082 -13.459  0.00  0.00    -0.271 OA
ENDROOT
BRANCH   1   5
HETATM    5  C           1     -33.458  -2.897 -11.320  0.00  0.00     0.278 C 
BRANCH   5   6
HETATM    6  C           1     -34.115  -4.074 -10.612  0.00  0.00     0.021 C 
HETATM    7  C           1     -35.622  -4.018 -10.825  0.00  0.00     0.012 C 
BRANCH   6   8
HETATM    8  C           1     -33.571  -5.377 -11.182  0.00  0.00     0.002 C 
HETATM    9  C           1     -34.305  -6.553 -10.553  0.00  0.00     0.005 C 
ENDBRANCH   6   8
ENDBRANCH   5   6
BRANCH   5  10
HETATM   10  N           1     -33.256  -1.777 -10.343  0.00  0.00    -0.066 N 
HETATM   11  H           1     -33.694  -2.027  -9.428  0.00  0.00     0.275 HD
HETATM   12  H           1     -33.700  -0.907 -10.715  0.00  0.00     0.275 HD
HETATM   13  H           1     -32.233  -1.615 -10.207  0.00  0.00     0.275 HD
ENDBRANCH   5  10
ENDBRANCH   1   5
BRANCH   3  14
HETATM   14  C           1     -35.902  -0.813 -13.408  0.00  0.00     0.194 C 
BRANCH  14  15
HETATM   15  C           1     -37.152  -0.158 -12.834  0.00  0.00     0.106 C 
BRANCH  15  16
HETATM   16  S           1     -37.045  -0.131 -11.023  0.00  0.00    -0.180 SA
HETATM   17  H           1     -38.100   0.681 -10.832  0.00  0.00     0.101 HD
ENDBRANCH  15  16
ENDBRANCH  14  15
BRANCH  14  18
HETATM   18  C           1     -35.153   0.187 -14.254  0.00  0.00     0.197 C 
HETATM   19  O           1     -34.825   1.293 -13.771  0.00  0.00    -0.646 OA
HETATM   20  O           1     -34.861  -0.088 -15.438  0.00  0.00    -0.646 OA
ENDBRANCH  14  18
ENDBRANCH   3  14
TORSDOF 8
ENDMDL
MODEL 2
REMARK VINA RESULT:      -6.2      2.001      2.450
REMARK  8 active torsions:
REMARK  status: ('A' for Active; 'I' for Inactive)
REMARK    1  A    between atoms: C_2  and  C_3 
REMARK    2  A    between atoms: C_2  and  C_19 
REMARK    3  A    between atoms: C_2  and  N_16 
REMARK       I    between atoms: C_3  and  N_8 
REMARK    4  A    between atoms: S_4  and  C_5 
REMARK    5  A    between atoms: C_5  and  C_13 
REMARK    6  A    between atoms: N_8  and  C_13 
REMARK    7  A    between atoms: C_9  and  C_13 
REMARK    8  A    between atoms: C_18  and  C_19 
ROOT
HETATM    1  C           1     -35.287  -1.557 -12.780  0.00  0.00     0.249 C 
HETATM    2  H           1     -33.964  -1.191 -14.329  0.00  0.00     0.163 HD
HETATM    3  N           1     -34.930  -1.134 -14.031  0.00  0.00    -0.344 N 
HETATM    4  O           1     -36.439  -1.490 -12.425  0.00  0.00    -0.271 OA
ENDROOT
BRANCH   1   5
HETATM    5  C           1     -34.240  -2.107 -11.842  0.00  0.00     0.278 C 
BRANCH   5   6
HETATM    6  C           1     -34.157  -3.619 -12.002  0.00  0.00     0.021 C 
HETATM    7  C           1     -32.704  -4.061 -11.905  0.00  0.00     0.012 C 
BRANCH   6   8
HETATM    8  C           1     -34.966  -4.291 -10.900  0.00  0.00     0.002 C 
HETATM    9  C           1     -34.274  -5.578 -10.474  0.00  0.00     0.005 C 
ENDBRANCH   6   8
ENDBRANCH   5   6
BRANCH   5  10
HETATM   10  N           1     -34.611  -1.774 -10.428  0.00  0.00    -0.066 N 
HETATM   11  H           1     -33.805  -1.983  -9.796  0.00  0.00     0.275 HD
HETATM   12  H           1     -35.436  -2.347 -10.141  0.00  0.00     0.275 HD
HETATM   13  H           1     -34.852  -0.759 -10.362  0.00  0.00     0.275 HD
ENDBRANCH   5  10
ENDBRANCH   1   5
BRANCH   3  14
HETATM   14  C           1     -35.936  -0.606 -14.933  0.00  0.00     0.194 C 
BRANCH  14  15
HETATM   15  C           1     -35.752   0.900 -15.072  0.00  0.00     0.106 C 
BRANCH  15  16
HETATM   16  S           1     -34.599   1.491 -13.801  0.00  0.00    -0.180 SA
HETATM   17  H           1     -35.290   1.012 -12.752  0.00  0.00     0.101 HD
ENDBRANCH  15  16
ENDBRANCH  14  15
BRANCH  14  18
HETATM   18  C           1     -35.792  -1.258 -16.285  0.00  0.00     0.197 C 
HETATM   19  O           1     -36.475  -0.853 -17.251  0.00  0.00    -0.646 OA
HETATM   20  O           1     -34.991  -2.206 -16.442  0.00  0.00    -0.646 OA
ENDBRANCH  14  18
ENDBRANCH   3  14
TORSDOF 8
ENDMDL
MODEL 3
REMARK VINA RESULT:      -5.9      2.360      2.563
REMARK  8 active torsions:
REMARK  status: ('A' for Active; 'I' for Inactive)
REMARK    1  A    between atoms: C_2  and  C_3 
REMARK    2  A    between atoms: C_2  and  C_19 
REMARK    3  A    between atoms: C_2  and  N_16 
REMARK       I    between atoms: C_3  and  N_8 
REMARK    4  A    between atoms: S_4  and  C_5 
REMARK    5  A    between atoms: C_5  and  C_13 
REMARK    6  A    between atoms: N_8  and  C_13 
REMARK    7  A    between atoms: C_9  and  C_13 
REMARK    8  A    between atoms: C_18  and  C_19 
ROOT
HETATM    1  C           1     -34.250  -2.361 -11.668  0.00  0.00     0.249 C 
HETATM    2  H           1     -35.791  -2.425 -13.048  0.00  0.00     0.163 HD
HETATM    3  N           1     -35.288  -1.841 -12.392  0.00  0.00    -0.344 N 
HETATM    4  O           1     -33.650  -1.665 -10.885  0.00  0.00    -0.271 OA
ENDROOT
BRANCH   1   5
HETATM    5  C           1     -33.853  -3.806 -11.849  0.00  0.00     0.278 C 
BRANCH   5   6
HETATM    6  C           1     -34.360  -4.625 -10.669  0.00  0.00     0.021 C 
HETATM    7  C           1     -35.879  -4.550 -10.613  0.00  0.00     0.012 C 
BRANCH   6   8
HETATM    8  C           1     -33.930  -6.076 -10.837  0.00  0.00     0.002 C 
HETATM    9  C           1     -34.766  -6.963  -9.926  0.00  0.00     0.005 C 
ENDBRANCH   6   8
ENDBRANCH   5   6
BRANCH   5  10
HETATM   10  N           1     -32.359  -3.909 -11.923  0.00  0.00    -0.066 N 
HETATM   11  H           1     -32.093  -4.646 -12.614  0.00  0.00     0.275 HD
HETATM   12  H           1     -31.981  -4.160 -10.982  0.00  0.00     0.275 HD
HETATM   13  H           1     -31.962  -2.990 -12.224  0.00  0.00     0.275 HD
ENDBRANCH   5  10
ENDBRANCH   1   5
BRANCH   3  14
HETATM   14  C           1     -35.669  -0.453 -12.218  0.00  0.00     0.194 C 
BRANCH  14  15
HETATM   15  C           1     -36.287   0.070 -13.509  0.00  0.00     0.106 C 
BRANCH  15  16
HETATM   16  S           1     -35.013   0.904 -14.497  0.00  0.00    -0.180 SA
HETATM   17  H           1     -34.518   1.645 -13.490  0.00  0.00     0.101 HD
ENDBRANCH  15  16
ENDBRANCH  14  15
BRANCH  14  18
HETATM   18  C           1     -36.675  -0.343 -11.099  0.00  0.00     0.197 C 
HETATM   19  O           1     -36.481   0.460 -10.160  0.00  0.00    -0.646 OA
HETATM   20  O           1     -37.702  -1.057 -11.108  0.00  0.00    -0.646 OA
ENDBRANCH  14  18
ENDBRANCH   3  14
TORSDOF 8
ENDMDL
MODEL 4
REMARK VINA RESULT:      -5.7     12.739     13.960
REMARK  8 active torsions:
REMARK  status: ('A' for Active; 'I' for Inactive)
REMARK    1  A    between atoms: C_2  and  C_3 
REMARK    2  A    between atoms: C_2  and  C_19 
REMARK    3  A    between atoms: C_2  and  N_16 
REMARK       I    between atoms: C_3  and  N_8 
REMARK    4  A    between atoms: S_4  and  C_5 
REMARK    5  A    between atoms: C_5  and  C_13 
REMARK    6  A    between atoms: N_8  and  C_13 
REMARK    7  A    between atoms: C_9  and  C_13 
REMARK    8  A    between atoms: C_18  and  C_19 
ROOT
HETATM    1  C           1     -21.798  -4.741  -7.812  0.00  0.00     0.249 C 
HETATM    2  H           1     -22.358  -5.711  -9.551  0.00  0.00     0.163 HD
HETATM    3  N           1     -22.333  -4.822  -9.069  0.00  0.00    -0.344 N 
HETATM    4  O           1     -21.768  -3.681  -7.235  0.00  0.00    -0.271 OA
ENDROOT
BRANCH   1   5
HETATM    5  C           1     -21.245  -5.977  -7.146  0.00  0.00     0.278 C 
BRANCH   5   6
HETATM    6  C           1     -21.441  -5.874  -5.639  0.00  0.00     0.021 C 
HETATM    7  C           1     -22.862  -6.286  -5.282  0.00  0.00     0.012 C 
BRANCH   6   8
HETATM    8  C           1     -20.454  -6.797  -4.935  0.00  0.00     0.002 C 
HETATM    9  C           1     -21.129  -8.127  -4.631  0.00  0.00     0.005 C 
ENDBRANCH   6   8
ENDBRANCH   5   6
BRANCH   5  10
HETATM   10  N           1     -19.782  -6.097  -7.452  0.00  0.00    -0.066 N 
HETATM   11  H           1     -19.356  -5.144  -7.508  0.00  0.00     0.275 HD
HETATM   12  H           1     -19.656  -6.589  -8.365  0.00  0.00     0.275 HD
HETATM   13  H           1     -19.312  -6.644  -6.694  0.00  0.00     0.275 HD
ENDBRANCH   5  10
ENDBRANCH   1   5
BRANCH   3  14
HETATM   14  C           1     -22.865  -3.635  -9.708  0.00  0.00     0.194 C 
BRANCH  14  15
HETATM   15  C           1     -22.022  -3.296 -10.932  0.00  0.00     0.106 C 
BRANCH  15  16
HETATM   16  S           1     -20.491  -4.269 -10.902  0.00  0.00    -0.180 SA
HETATM   17  H           1     -19.841  -3.482 -10.027  0.00  0.00     0.101 HD
ENDBRANCH  15  16
ENDBRANCH  14  15
BRANCH  14  18
HETATM   18  C           1     -24.290  -3.888 -10.133  0.00  0.00     0.197 C 
HETATM   19  O           1     -24.883  -3.060 -10.859  0.00  0.00    -0.646 OA
HETATM   20  O           1     -24.880  -4.924  -9.759  0.00  0.00    -0.646 OA
ENDBRANCH  14  18
ENDBRANCH   3  14
TORSDOF 8
ENDMDL
MODEL 5
REMARK VINA RESULT:      -5.4     14.744     16.534
REMARK  8 active torsions:
REMARK  status: ('A' for Active; 'I' for Inactive)
REMARK    1  A    between atoms: C_2  and  C_3 
REMARK    2  A    between atoms: C_2  and  C_19 
REMARK    3  A    between atoms: C_2  and  N_16 
REMARK       I    between atoms: C_3  and  N_8 
REMARK    4  A    between atoms: S_4  and  C_5 
REMARK    5  A    between atoms: C_5  and  C_13 
REMARK    6  A    between atoms: N_8  and  C_13 
REMARK    7  A    between atoms: C_9  and  C_13 
REMARK    8  A    between atoms: C_18  and  C_19 
ROOT
HETATM    1  C           1     -21.704  -5.537  -5.818  0.00  0.00     0.249 C 
HETATM    2  H           1     -20.002  -6.387  -5.006  0.00  0.00     0.163 HD
HETATM    3  N           1     -21.014  -6.395  -5.006  0.00  0.00    -0.344 N 
HETATM    4  O           1     -22.912  -5.545  -5.819  0.00  0.00    -0.271 OA
ENDROOT
BRANCH   1   5
HETATM    5  C           1     -20.957  -4.580  -6.714  0.00  0.00     0.278 C 
BRANCH   5   6
HETATM    6  C           1     -21.334  -4.843  -8.166  0.00  0.00     0.021 C 
HETATM    7  C           1     -22.333  -3.793  -8.630  0.00  0.00     0.012 C 
BRANCH   6   8
HETATM    8  C           1     -20.085  -4.774  -9.035  0.00  0.00     0.002 C 
HETATM    9  C           1     -20.470  -4.356 -10.447  0.00  0.00     0.005 C 
ENDBRANCH   6   8
ENDBRANCH   5   6
BRANCH   5  10
HETATM   10  N           1     -19.481  -4.778  -6.538  0.00  0.00    -0.066 N 
HETATM   11  H           1     -19.243  -4.750  -5.521  0.00  0.00     0.275 HD
HETATM   12  H           1     -18.966  -4.018  -7.037  0.00  0.00     0.275 HD
HETATM   13  H           1     -19.205  -5.704  -6.935  0.00  0.00     0.275 HD
ENDBRANCH   5  10
ENDBRANCH   1   5
BRANCH   3  14
HETATM   14  C           1     -21.731  -7.314  -4.145  0.00  0.00     0.194 C 
BRANCH  14  15
HETATM   15  C           1     -21.108  -8.700  -4.250  0.00  0.00     0.106 C 
BRANCH  15  16
HETATM   16  S           1     -19.480  -8.575  -5.042  0.00  0.00    -0.180 SA
HETATM   17  H           1     -18.856  -8.015  -3.991  0.00  0.00     0.101 HD
ENDBRANCH  15  16
ENDBRANCH  14  15
BRANCH  14  18
HETATM   18  C           1     -21.651  -6.834  -2.717  0.00  0.00     0.197 C 
HETATM   19  O           1     -20.848  -7.368  -1.922  0.00  0.00    -0.646 OA
HETATM   20  O           1     -22.388  -5.902  -2.328  0.00  0.00    -0.646 OA
ENDBRANCH  14  18
ENDBRANCH   3  14
TORSDOF 8
ENDMDL
MODEL 6
REMARK VINA RESULT:      -5.4     14.012     15.809
REMARK  8 active torsions:
REMARK  status: ('A' for Active; 'I' for Inactive)
REMARK    1  A    between atoms: C_2  and  C_3 
REMARK    2  A    between atoms: C_2  and  C_19 
REMARK    3  A    between atoms: C_2  and  N_16 
REMARK       I    between atoms: C_3  and  N_8 
REMARK    4  A    between atoms: S_4  and  C_5 
REMARK    5  A    between atoms: C_5  and  C_13 
REMARK    6  A    between atoms: N_8  and  C_13 
REMARK    7  A    between atoms: C_9  and  C_13 
REMARK    8  A    between atoms: C_18  and  C_19 
ROOT
HETATM    1  C           1     -21.704  -4.894  -7.091  0.00  0.00     0.249 C 
HETATM    2  H           1     -22.186  -6.904  -7.000  0.00  0.00     0.163 HD
HETATM    3  N           1     -21.721  -6.140  -6.526  0.00  0.00    -0.344 N 
HETATM    4  O           1     -21.149  -3.982  -6.527  0.00  0.00    -0.271 OA
ENDROOT
BRANCH   1   5
HETATM    5  C           1     -22.380  -4.658  -8.419  0.00  0.00     0.278 C 
BRANCH   5   6
HETATM    6  C           1     -21.470  -3.826  -9.313  0.00  0.00     0.021 C 
HETATM    7  C           1     -20.219  -4.625  -9.649  0.00  0.00     0.012 C 
BRANCH   6   8
HETATM    8  C           1     -22.207  -3.473 -10.599  0.00  0.00     0.002 C 
HETATM    9  C           1     -21.447  -4.037 -11.792  0.00  0.00     0.005 C 
ENDBRANCH   6   8
ENDBRANCH   5   6
BRANCH   5  10
HETATM   10  N           1     -23.670  -3.926  -8.201  0.00  0.00    -0.066 N 
HETATM   11  H           1     -23.709  -3.570  -7.219  0.00  0.00     0.275 HD
HETATM   12  H           1     -24.471  -4.575  -8.368  0.00  0.00     0.275 HD
HETATM   13  H           1     -23.729  -3.120  -8.865  0.00  0.00     0.275 HD
ENDBRANCH   5  10
ENDBRANCH   1   5
BRANCH   3  14
HETATM   14  C           1     -21.071  -6.367  -5.250  0.00  0.00     0.194 C 
BRANCH  14  15
HETATM   15  C           1     -22.101  -6.846  -4.234  0.00  0.00     0.106 C 
BRANCH  15  16
HETATM   16  S           1     -21.676  -6.201  -2.591  0.00  0.00    -0.180 SA
HETATM   17  H           1     -22.495  -5.137  -2.642  0.00  0.00     0.101 HD
ENDBRANCH  15  16
ENDBRANCH  14  15
BRANCH  14  18
HETATM   18  C           1     -19.998  -7.414  -5.411  0.00  0.00     0.197 C 
HETATM   19  O           1     -19.775  -8.228  -4.488  0.00  0.00    -0.646 OA
HETATM   20  O           1     -19.329  -7.468  -6.466  0.00  0.00    -0.646 OA
ENDBRANCH  14  18
ENDBRANCH   3  14
TORSDOF 8
ENDMDL
MODEL 7
REMARK VINA RESULT:      -5.3     15.263     16.628
REMARK  8 active torsions:
REMARK  status: ('A' for Active; 'I' for Inactive)
REMARK    1  A    between atoms: C_2  and  C_3 
REMARK    2  A    between atoms: C_2  and  C_19 
REMARK    3  A    between atoms: C_2  and  N_16 
REMARK       I    between atoms: C_3  and  N_8 
REMARK    4  A    between atoms: S_4  and  C_5 
REMARK    5  A    between atoms: C_5  and  C_13 
REMARK    6  A    between atoms: N_8  and  C_13 
REMARK    7  A    between atoms: C_9  and  C_13 
REMARK    8  A    between atoms: C_18  and  C_19 
ROOT
HETATM    1  C           1     -21.458  -6.511  -4.184  0.00  0.00     0.249 C 
HETATM    2  H           1     -20.556  -4.666  -4.428  0.00  0.00     0.163 HD
HETATM    3  N           1     -20.997  -5.443  -4.903  0.00  0.00    -0.344 N 
HETATM    4  O           1     -21.985  -7.439  -4.750  0.00  0.00    -0.271 OA
ENDROOT
BRANCH   1   5
HETATM    5  C           1     -21.312  -6.531  -2.682  0.00  0.00     0.278 C 
BRANCH   5   6
HETATM    6  C           1     -21.427  -7.963  -2.177  0.00  0.00     0.021 C 
HETATM    7  C           1     -20.036  -8.549  -1.987  0.00  0.00     0.012 C 
BRANCH   6   8
HETATM    8  C           1     -22.168  -7.974  -0.846  0.00  0.00     0.002 C 
HETATM    9  C           1     -21.284  -8.600   0.223  0.00  0.00     0.005 C 
ENDBRANCH   6   8
ENDBRANCH   5   6
BRANCH   5  10
HETATM   10  N           1     -22.392  -5.695  -2.063  0.00  0.00    -0.066 N 
HETATM   11  H           1     -23.086  -5.422  -2.794  0.00  0.00     0.275 HD
HETATM   12  H           1     -21.970  -4.835  -1.645  0.00  0.00     0.275 HD
HETATM   13  H           1     -22.872  -6.245  -1.315  0.00  0.00     0.275 HD
ENDBRANCH   5  10
ENDBRANCH   1   5
BRANCH   3  14
HETATM   14  C           1     -21.138  -5.425  -6.346  0.00  0.00     0.194 C 
BRANCH  14  15
HETATM   15  C           1     -21.626  -4.052  -6.791  0.00  0.00     0.106 C 
BRANCH  15  16
HETATM   16  S           1     -22.624  -4.222  -8.298  0.00  0.00    -0.180 SA
HETATM   17  H           1     -23.797  -4.410  -7.669  0.00  0.00     0.101 HD
ENDBRANCH  15  16
ENDBRANCH  14  15
BRANCH  14  18
HETATM   18  C           1     -19.804  -5.716  -6.986  0.00  0.00     0.197 C 
HETATM   19  O           1     -19.121  -4.783  -7.461  0.00  0.00    -0.646 OA
HETATM   20  O           1     -19.380  -6.891  -7.043  0.00  0.00    -0.646 OA
ENDBRANCH  14  18
ENDBRANCH   3  14
TORSDOF 8
ENDMDL
MODEL 8
REMARK VINA RESULT:      -5.0     16.407     17.948
REMARK  8 active torsions:
REMARK  status: ('A' for Active; 'I' for Inactive)
REMARK    1  A    between atoms: C_2  and  C_3 
REMARK    2  A    between atoms: C_2  and  C_19 
REMARK    3  A    between atoms: C_2  and  N_16 
REMARK       I    between atoms: C_3  and  N_8 
REMARK    4  A    between atoms: S_4  and  C_5 
REMARK    5  A    between atoms: C_5  and  C_13 
REMARK    6  A    between atoms: N_8  and  C_13 
REMARK    7  A    between atoms: C_9  and  C_13 
REMARK    8  A    between atoms: C_18  and  C_19 
ROOT
HETATM    1  C           1     -20.685  -8.145  -2.076  0.00  0.00     0.249 C 
HETATM    2  H           1     -22.405  -7.624  -3.102  0.00  0.00     0.163 HD
HETATM    3  N           1     -21.433  -7.892  -3.193  0.00  0.00    -0.344 N 
HETATM    4  O           1     -19.526  -8.465  -2.184  0.00  0.00    -0.271 OA
ENDROOT
BRANCH   1   5
HETATM    5  C           1     -21.309  -8.026  -0.707  0.00  0.00     0.278 C 
BRANCH   5   6
HETATM    6  C           1     -21.769  -9.399  -0.236  0.00  0.00     0.021 C 
HETATM    7  C           1     -20.980  -9.803   1.001  0.00  0.00     0.012 C 
BRANCH   6   8
HETATM    8  C           1     -23.253  -9.348   0.104  0.00  0.00     0.002 C 
HETATM    9  C           1     -23.888 -10.700  -0.189  0.00  0.00     0.005 C 
ENDBRANCH   6   8
ENDBRANCH   5   6
BRANCH   5  10
HETATM   10  N           1     -22.487  -7.101  -0.773  0.00  0.00    -0.066 N 
HETATM   11  H           1     -22.950  -7.056   0.163  0.00  0.00     0.275 HD
HETATM   12  H           1     -23.169  -7.455  -1.481  0.00  0.00     0.275 HD
HETATM   13  H           1     -22.164  -6.145  -1.048  0.00  0.00     0.275 HD
ENDBRANCH   5  10
ENDBRANCH   1   5
BRANCH   3  14
HETATM   14  C           1     -20.834  -8.007  -4.509  0.00  0.00     0.194 C 
BRANCH  14  15
HETATM   15  C           1     -21.143  -9.381  -5.089  0.00  0.00     0.106 C 
BRANCH  15  16
HETATM   16  S           1     -19.606 -10.337  -5.234  0.00  0.00    -0.180 SA
HETATM   17  H           1     -19.779 -11.051  -4.108  0.00  0.00     0.101 HD
ENDBRANCH  15  16
ENDBRANCH  14  15
BRANCH  14  18
HETATM   18  C           1     -21.398  -6.940  -5.414  0.00  0.00     0.197 C 
HETATM   19  O           1     -21.046  -6.886  -6.612  0.00  0.00    -0.646 OA
HETATM   20  O           1     -22.218  -6.109  -4.966  0.00  0.00    -0.646 OA
ENDBRANCH  14  18
ENDBRANCH   3  14
TORSDOF 8
ENDMDL
MODEL 9
REMARK VINA RESULT:      -4.9     16.677     18.171
REMARK  8 active torsions:
REMARK  status: ('A' for Active; 'I' for Inactive)
REMARK    1  A    between atoms: C_2  and  C_3 
REMARK    2  A    between atoms: C_2  and  C_19 
REMARK    3  A    between atoms: C_2  and  N_16 
REMARK       I    between atoms: C_3  and  N_8 
REMARK    4  A    between atoms: S_4  and  C_5 
REMARK    5  A    between atoms: C_5  and  C_13 
REMARK    6  A    between atoms: N_8  and  C_13 
REMARK    7  A    between atoms: C_9  and  C_13 
REMARK    8  A    between atoms: C_18  and  C_19 
ROOT
HETATM    1  C           1     -21.065  -9.521  -2.046  0.00  0.00     0.249 C 
HETATM    2  H           1     -22.583  -9.047  -3.370  0.00  0.00     0.163 HD
HETATM    3  N           1     -21.647  -8.814  -3.063  0.00  0.00    -0.344 N 
HETATM    4  O           1     -19.949  -9.243  -1.679  0.00  0.00    -0.271 OA
ENDROOT
BRANCH   1   5
HETATM    5  C           1     -21.817 -10.650  -1.386  0.00  0.00     0.278 C 
BRANCH   5   6
HETATM    6  C           1     -23.033 -10.095  -0.658  0.00  0.00     0.021 C 
HETATM    7  C           1     -23.893 -11.245  -0.153  0.00  0.00     0.012 C 
BRANCH   6   8
HETATM    8  C           1     -22.576  -9.248   0.523  0.00  0.00     0.002 C 
HETATM    9  C           1     -23.170  -7.851   0.408  0.00  0.00     0.005 C 
ENDBRANCH   6   8
ENDBRANCH   5   6
BRANCH   5  10
HETATM   10  N           1     -20.919 -11.340  -0.402  0.00  0.00    -0.066 N 
HETATM   11  H           1     -20.323 -10.633   0.084  0.00  0.00     0.275 HD
HETATM   12  H           1     -20.309 -12.022  -0.907  0.00  0.00     0.275 HD
HETATM   13  H           1     -21.501 -11.849   0.302  0.00  0.00     0.275 HD
ENDBRANCH   5  10
ENDBRANCH   1   5
BRANCH   3  14
HETATM   14  C           1     -20.925  -7.728  -3.698  0.00  0.00     0.194 C 
BRANCH  14  15
HETATM   15  C           1     -20.583  -8.116  -5.131  0.00  0.00     0.106 C 
BRANCH  15  16
HETATM   16  S           1     -19.036  -9.066  -5.148  0.00  0.00    -0.180 SA
HETATM   17  H           1     -19.522 -10.111  -5.840  0.00  0.00     0.101 HD
ENDBRANCH  15  16
ENDBRANCH  14  15
BRANCH  14  18
HETATM   18  C           1     -21.784  -6.488  -3.704  0.00  0.00     0.197 C 
HETATM   19  O           1     -22.085  -5.941  -4.787  0.00  0.00    -0.646 OA
HETATM   20  O           1     -22.194  -6.005  -2.626  0.00  0.00    -0.646 OA
ENDBRANCH  14  18
ENDBRANCH   3  14
TORSDOF 8
ENDMDL
