MODEL 1
REMARK VINA RESULT:      -7.1      0.000      0.000
REMARK  6 active torsions:
REMARK  status: ('A' for Active; 'I' for Inactive)
REMARK    1  A    between atoms: O_3  and  C_14 
REMARK    2  A    between atoms: C_5  and  C_18 
REMARK    3  A    between atoms: C_5  and  C_9 
REMARK    4  A    between atoms: C_5  and  N_22 
REMARK    5  A    between atoms: C_9  and  C_15 
REMARK       I    between atoms: C_18  and  N_19 
REMARK    6  A    between atoms: C_21  and  C_23 
ROOT
HETATM    1  C           1     -20.366  -6.262  -5.775  0.00  0.00     0.279 C 
ENDROOT
BRANCH   1   2
HETATM    2  C           1     -20.884  -6.612  -4.401  0.00  0.00     0.251 C 
HETATM    3  O           1     -21.540  -5.811  -3.780  0.00  0.00    -0.271 OA
HETATM    4  N           1     -20.608  -7.839  -3.858  0.00  0.00    -0.336 N 
HETATM    5  C           1     -21.433  -8.606  -2.929  0.00  0.00     0.127 C 
HETATM    6  C           1     -19.425  -8.665  -4.082  0.00  0.00     0.188 C 
HETATM    7  C           1     -20.430  -9.189  -1.948  0.00  0.00     0.022 C 
HETATM    8  C           1     -19.108  -9.223  -2.705  0.00  0.00     0.038 C 
BRANCH   6   9
HETATM    9  C           1     -19.724  -9.778  -5.057  0.00  0.00     0.196 C 
HETATM   10  O           1     -20.663  -9.659  -5.874  0.00  0.00    -0.646 OA
HETATM   11  O           1     -19.032 -10.819  -5.046  0.00  0.00    -0.646 OA
ENDBRANCH   6   9
ENDBRANCH   1   2
BRANCH   1  12
HETATM   12  C           1     -20.414  -4.752  -5.966  0.00  0.00     0.081 C 
BRANCH  12  13
HETATM   13  C           1     -20.886  -4.438  -7.351  0.00  0.00    -0.056 A 
HETATM   14  C           1     -22.220  -4.099  -7.573  0.00  0.00     0.010 A 
HETATM   15  C           1     -22.661  -3.807  -8.864  0.00  0.00     0.037 A 
HETATM   16  C           1     -21.766  -3.854  -9.933  0.00  0.00     0.065 A 
HETATM   17  C           1     -20.432  -4.193  -9.711  0.00  0.00     0.037 A 
HETATM   18  C           1     -19.991  -4.485  -8.420  0.00  0.00     0.010 A 
BRANCH  16  19
HETATM   19  O           1     -22.194  -3.571 -11.187  0.00  0.00    -0.361 OA
HETATM   20  H           1     -21.543  -3.928 -11.814  0.00  0.00     0.217 HD
ENDBRANCH  16  19
ENDBRANCH  12  13
ENDBRANCH   1  12
BRANCH   1  21
HETATM   21  N           1     -21.220  -6.924  -6.814  0.00  0.00    -0.066 N 
HETATM   22  H           1     -22.151  -6.450  -6.854  0.00  0.00     0.275 HD
HETATM   23  H           1     -21.353  -7.931  -6.568  0.00  0.00     0.275 HD
HETATM   24  H           1     -20.753  -6.853  -7.746  0.00  0.00     0.275 HD
ENDBRANCH   1  21
TORSDOF 6
ENDMDL
MODEL 2
REMARK VINA RESULT:      -7.0      2.294      6.810
REMARK  6 active torsions:
REMARK  status: ('A' for Active; 'I' for Inactive)
REMARK    1  A    between atoms: O_3  and  C_14 
REMARK    2  A    between atoms: C_5  and  C_18 
REMARK    3  A    between atoms: C_5  and  C_9 
REMARK    4  A    between atoms: C_5  and  N_22 
REMARK    5  A    between atoms: C_9  and  C_15 
REMARK       I    between atoms: C_18  and  N_19 
REMARK    6  A    between atoms: C_21  and  C_23 
ROOT
HETATM    1  C           1     -20.705  -8.754  -4.489  0.00  0.00     0.279 C 
ENDROOT
BRANCH   1   2
HETATM    2  C           1     -19.838  -8.054  -5.507  0.00  0.00     0.251 C 
HETATM    3  O           1     -18.858  -8.607  -5.947  0.00  0.00    -0.271 OA
HETATM    4  N           1     -20.161  -6.793  -5.930  0.00  0.00    -0.336 N 
HETATM    5  C           1     -19.902  -6.201  -7.240  0.00  0.00     0.127 C 
HETATM    6  C           1     -20.841  -5.747  -5.172  0.00  0.00     0.188 C 
HETATM    7  C           1     -19.482  -4.777  -6.918  0.00  0.00     0.022 C 
HETATM    8  C           1     -20.095  -4.480  -5.555  0.00  0.00     0.038 C 
BRANCH   6   9
HETATM    9  C           1     -22.294  -5.655  -5.567  0.00  0.00     0.196 C 
HETATM   10  O           1     -22.653  -4.845  -6.450  0.00  0.00    -0.646 OA
HETATM   11  O           1     -23.140  -6.388  -5.010  0.00  0.00    -0.646 OA
ENDBRANCH   6   9
ENDBRANCH   1   2
BRANCH   1  12
HETATM   12  C           1     -19.987  -8.787  -3.146  0.00  0.00     0.081 C 
BRANCH  12  13
HETATM   13  C           1     -20.966  -8.510  -2.049  0.00  0.00    -0.056 A 
HETATM   14  C           1     -21.359  -9.535  -1.189  0.00  0.00     0.010 A 
HETATM   15  C           1     -22.272  -9.277  -0.166  0.00  0.00     0.037 A 
HETATM   16  C           1     -22.792  -7.993  -0.003  0.00  0.00     0.065 A 
HETATM   17  C           1     -22.399  -6.967  -0.864  0.00  0.00     0.037 A 
HETATM   18  C           1     -21.486  -7.225  -1.887  0.00  0.00     0.010 A 
BRANCH  16  19
HETATM   19  O           1     -23.678  -7.742   0.989  0.00  0.00    -0.361 OA
HETATM   20  H           1     -24.008  -8.594   1.320  0.00  0.00     0.217 HD
ENDBRANCH  16  19
ENDBRANCH  12  13
ENDBRANCH   1  12
BRANCH   1  21
HETATM   21  N           1     -20.978 -10.156  -4.944  0.00  0.00    -0.066 N 
HETATM   22  H           1     -21.536 -10.133  -5.827  0.00  0.00     0.275 HD
HETATM   23  H           1     -21.516 -10.665  -4.206  0.00  0.00     0.275 HD
HETATM   24  H           1     -20.073 -10.649  -5.117  0.00  0.00     0.275 HD
ENDBRANCH   1  21
TORSDOF 6
ENDMDL
MODEL 3
REMARK VINA RESULT:      -6.5      3.076      7.887
REMARK  6 active torsions:
REMARK  status: ('A' for Active; 'I' for Inactive)
REMARK    1  A    between atoms: O_3  and  C_14 
REMARK    2  A    between atoms: C_5  and  C_18 
REMARK    3  A    between atoms: C_5  and  C_9 
REMARK    4  A    between atoms: C_5  and  N_22 
REMARK    5  A    between atoms: C_9  and  C_15 
REMARK       I    between atoms: C_18  and  N_19 
REMARK    6  A    between atoms: C_21  and  C_23 
ROOT
HETATM    1  C           1     -21.384  -8.172  -1.791  0.00  0.00     0.279 C 
ENDROOT
BRANCH   1   2
HETATM    2  C           1     -21.692  -6.911  -2.560  0.00  0.00     0.251 C 
HETATM    3  O           1     -22.286  -6.006  -2.024  0.00  0.00    -0.271 OA
HETATM    4  N           1     -21.300  -6.793  -3.867  0.00  0.00    -0.336 N 
HETATM    5  C           1     -20.929  -5.571  -4.576  0.00  0.00     0.127 C 
HETATM    6  C           1     -21.159  -7.859  -4.854  0.00  0.00     0.188 C 
HETATM    7  C           1     -21.559  -5.743  -5.948  0.00  0.00     0.022 C 
HETATM    8  C           1     -21.715  -7.248  -6.128  0.00  0.00     0.038 C 
BRANCH   6   9
HETATM    9  C           1     -19.710  -8.242  -5.029  0.00  0.00     0.196 C 
HETATM   10  O           1     -19.050  -8.655  -4.051  0.00  0.00    -0.646 OA
HETATM   11  O           1     -19.171  -8.146  -6.153  0.00  0.00    -0.646 OA
ENDBRANCH   6   9
ENDBRANCH   1   2
BRANCH   1  12
HETATM   12  C           1     -22.284  -8.253  -0.565  0.00  0.00     0.081 C 
BRANCH  12  13
HETATM   13  C           1     -22.452  -9.683  -0.161  0.00  0.00    -0.056 A 
HETATM   14  C           1     -21.373 -10.391   0.367  0.00  0.00     0.010 A 
HETATM   15  C           1     -21.529 -11.726   0.743  0.00  0.00     0.037 A 
HETATM   16  C           1     -22.766 -12.352   0.590  0.00  0.00     0.065 A 
HETATM   17  C           1     -23.846 -11.645   0.061  0.00  0.00     0.037 A 
HETATM   18  C           1     -23.689 -10.311  -0.315  0.00  0.00     0.010 A 
BRANCH  16  19
HETATM   19  O           1     -22.919 -13.648   0.954  0.00  0.00    -0.361 OA
HETATM   20  H           1     -22.231 -14.169   0.508  0.00  0.00     0.217 HD
ENDBRANCH  16  19
ENDBRANCH  12  13
ENDBRANCH   1  12
BRANCH   1  21
HETATM   21  N           1     -19.949  -8.156  -1.358  0.00  0.00    -0.066 N 
HETATM   22  H           1     -19.879  -8.494  -0.372  0.00  0.00     0.275 HD
HETATM   23  H           1     -19.577  -7.181  -1.419  0.00  0.00     0.275 HD
HETATM   24  H           1     -19.390  -8.780  -1.982  0.00  0.00     0.275 HD
ENDBRANCH   1  21
TORSDOF 6
ENDMDL
MODEL 4
REMARK VINA RESULT:      -6.5      2.491      4.223
REMARK  6 active torsions:
REMARK  status: ('A' for Active; 'I' for Inactive)
REMARK    1  A    between atoms: O_3  and  C_14 
REMARK    2  A    between atoms: C_5  and  C_18 
REMARK    3  A    between atoms: C_5  and  C_9 
REMARK    4  A    between atoms: C_5  and  N_22 
REMARK    5  A    between atoms: C_9  and  C_15 
REMARK       I    between atoms: C_18  and  N_19 
REMARK    6  A    between atoms: C_21  and  C_23 
ROOT
HETATM    1  C           1     -21.108  -7.745  -3.355  0.00  0.00     0.279 C 
ENDROOT
BRANCH   1   2
HETATM    2  C           1     -20.534  -8.846  -2.498  0.00  0.00     0.251 C 
HETATM    3  O           1     -19.527  -9.418  -2.842  0.00  0.00    -0.271 OA
HETATM    4  N           1     -21.156  -9.198  -1.330  0.00  0.00    -0.336 N 
HETATM    5  C           1     -20.536  -9.720  -0.115  0.00  0.00     0.127 C 
HETATM    6  C           1     -22.582  -9.133  -1.026  0.00  0.00     0.188 C 
HETATM    7  C           1     -21.501 -10.796   0.353  0.00  0.00     0.022 C 
HETATM    8  C           1     -22.846 -10.413  -0.251  0.00  0.00     0.038 C 
BRANCH   6   9
HETATM    9  C           1     -22.898  -7.921  -0.184  0.00  0.00     0.196 C 
HETATM   10  O           1     -23.382  -8.063   0.960  0.00  0.00    -0.646 OA
HETATM   11  O           1     -22.675  -6.775  -0.632  0.00  0.00    -0.646 OA
ENDBRANCH   6   9
ENDBRANCH   1   2
BRANCH   1  12
HETATM   12  C           1     -20.461  -7.785  -4.734  0.00  0.00     0.081 C 
BRANCH  12  13
HETATM   13  C           1     -20.901  -6.594  -5.526  0.00  0.00    -0.056 A 
HETATM   14  C           1     -19.952  -5.762  -6.119  0.00  0.00     0.010 A 
HETATM   15  C           1     -20.361  -4.651  -6.858  0.00  0.00     0.037 A 
HETATM   16  C           1     -21.721  -4.373  -7.003  0.00  0.00     0.065 A 
HETATM   17  C           1     -22.670  -5.205  -6.410  0.00  0.00     0.037 A 
HETATM   18  C           1     -22.260  -6.316  -5.671  0.00  0.00     0.010 A 
BRANCH  16  19
HETATM   19  O           1     -22.118  -3.295  -7.720  0.00  0.00    -0.361 OA
HETATM   20  H           1     -21.392  -2.650  -7.722  0.00  0.00     0.217 HD
ENDBRANCH  16  19
ENDBRANCH  12  13
ENDBRANCH   1  12
BRANCH   1  21
HETATM   21  N           1     -20.834  -6.418  -2.713  0.00  0.00    -0.066 N 
HETATM   22  H           1     -20.272  -5.825  -3.365  0.00  0.00     0.275 HD
HETATM   23  H           1     -20.300  -6.563  -1.826  0.00  0.00     0.275 HD
HETATM   24  H           1     -21.739  -5.941  -2.500  0.00  0.00     0.275 HD
ENDBRANCH   1  21
TORSDOF 6
ENDMDL
MODEL 5
REMARK VINA RESULT:      -6.5      3.788      7.898
REMARK  6 active torsions:
REMARK  status: ('A' for Active; 'I' for Inactive)
REMARK    1  A    between atoms: O_3  and  C_14 
REMARK    2  A    between atoms: C_5  and  C_18 
REMARK    3  A    between atoms: C_5  and  C_9 
REMARK    4  A    between atoms: C_5  and  N_22 
REMARK    5  A    between atoms: C_9  and  C_15 
REMARK       I    between atoms: C_18  and  N_19 
REMARK    6  A    between atoms: C_21  and  C_23 
ROOT
HETATM    1  C           1     -21.904  -8.879  -0.435  0.00  0.00     0.279 C 
ENDROOT
BRANCH   1   2
HETATM    2  C           1     -22.153  -7.591  -1.180  0.00  0.00     0.251 C 
HETATM    3  O           1     -22.839  -6.728  -0.684  0.00  0.00    -0.271 OA
HETATM    4  N           1     -21.604  -7.400  -2.420  0.00  0.00    -0.336 N 
HETATM    5  C           1     -21.186  -6.137  -3.022  0.00  0.00     0.127 C 
HETATM    6  C           1     -21.306  -8.414  -3.427  0.00  0.00     0.188 C 
HETATM    7  C           1     -21.632  -6.259  -4.469  0.00  0.00     0.022 C 
HETATM    8  C           1     -21.716  -7.757  -4.734  0.00  0.00     0.038 C 
BRANCH   6   9
HETATM    9  C           1     -19.835  -8.749  -3.433  0.00  0.00     0.196 C 
HETATM   10  O           1     -19.189  -8.710  -4.503  0.00  0.00    -0.646 OA
HETATM   11  O           1     -19.262  -9.068  -2.368  0.00  0.00    -0.646 OA
ENDBRANCH   6   9
ENDBRANCH   1   2
BRANCH   1  12
HETATM   12  C           1     -23.236  -9.520  -0.068  0.00  0.00     0.081 C 
BRANCH  12  13
HETATM   13  C           1     -23.279 -10.919  -0.596  0.00  0.00    -0.056 A 
HETATM   14  C           1     -22.953 -11.173  -1.928  0.00  0.00     0.010 A 
HETATM   15  C           1     -22.993 -12.477  -2.421  0.00  0.00     0.037 A 
HETATM   16  C           1     -23.361 -13.529  -1.580  0.00  0.00     0.065 A 
HETATM   17  C           1     -23.688 -13.275  -0.248  0.00  0.00     0.037 A 
HETATM   18  C           1     -23.648 -11.971   0.245  0.00  0.00     0.010 A 
BRANCH  16  19
HETATM   19  O           1     -23.401 -14.795  -2.059  0.00  0.00    -0.361 OA
HETATM   20  H           1     -24.325 -15.008  -2.269  0.00  0.00     0.217 HD
ENDBRANCH  16  19
ENDBRANCH  12  13
ENDBRANCH   1  12
BRANCH   1  21
HETATM   21  N           1     -21.128  -8.590   0.815  0.00  0.00    -0.066 N 
HETATM   22  H           1     -21.777  -8.576   1.633  0.00  0.00     0.275 HD
HETATM   23  H           1     -20.657  -7.661   0.727  0.00  0.00     0.275 HD
HETATM   24  H           1     -20.406  -9.333   0.956  0.00  0.00     0.275 HD
ENDBRANCH   1  21
TORSDOF 6
ENDMDL
MODEL 6
REMARK VINA RESULT:      -6.5      5.394      7.004
REMARK  6 active torsions:
REMARK  status: ('A' for Active; 'I' for Inactive)
REMARK    1  A    between atoms: O_3  and  C_14 
REMARK    2  A    between atoms: C_5  and  C_18 
REMARK    3  A    between atoms: C_5  and  C_9 
REMARK    4  A    between atoms: C_5  and  N_22 
REMARK    5  A    between atoms: C_9  and  C_15 
REMARK       I    between atoms: C_18  and  N_19 
REMARK    6  A    between atoms: C_21  and  C_23 
ROOT
HETATM    1  C           1     -20.105 -11.415  -1.018  0.00  0.00     0.279 C 
ENDROOT
BRANCH   1   2
HETATM    2  C           1     -18.628 -11.635  -0.804  0.00  0.00     0.251 C 
HETATM    3  O           1     -18.232 -12.119   0.230  0.00  0.00    -0.271 OA
HETATM    4  N           1     -17.735 -11.285  -1.781  0.00  0.00    -0.336 N 
HETATM    5  C           1     -16.450 -11.913  -2.079  0.00  0.00     0.127 C 
HETATM    6  C           1     -17.859 -10.203  -2.754  0.00  0.00     0.188 C 
HETATM    7  C           1     -15.534 -10.740  -2.381  0.00  0.00     0.022 C 
HETATM    8  C           1     -16.461  -9.613  -2.820  0.00  0.00     0.038 C 
BRANCH   6   9
HETATM    9  C           1     -18.281 -10.737  -4.101  0.00  0.00     0.196 C 
HETATM   10  O           1     -19.224 -11.553  -4.182  0.00  0.00    -0.646 OA
HETATM   11  O           1     -17.687 -10.362  -5.135  0.00  0.00    -0.646 OA
ENDBRANCH   6   9
ENDBRANCH   1   2
BRANCH   1  12
HETATM   12  C           1     -20.665 -10.577   0.124  0.00  0.00     0.081 C 
BRANCH  12  13
HETATM   13  C           1     -21.172  -9.276  -0.413  0.00  0.00    -0.056 A 
HETATM   14  C           1     -20.702  -8.794  -1.634  0.00  0.00     0.010 A 
HETATM   15  C           1     -21.173  -7.581  -2.135  0.00  0.00     0.037 A 
HETATM   16  C           1     -22.117  -6.848  -1.414  0.00  0.00     0.065 A 
HETATM   17  C           1     -22.587  -7.329  -0.192  0.00  0.00     0.037 A 
HETATM   18  C           1     -22.115  -8.543   0.309  0.00  0.00     0.010 A 
BRANCH  16  19
HETATM   19  O           1     -22.575  -5.670  -1.900  0.00  0.00    -0.361 OA
HETATM   20  H           1     -23.114  -5.249  -1.210  0.00  0.00     0.217 HD
ENDBRANCH  16  19
ENDBRANCH  12  13
ENDBRANCH   1  12
BRANCH   1  21
HETATM   21  N           1     -20.807 -12.739  -1.056  0.00  0.00    -0.066 N 
HETATM   22  H           1     -21.230 -12.882  -2.000  0.00  0.00     0.275 HD
HETATM   23  H           1     -21.559 -12.758  -0.331  0.00  0.00     0.275 HD
HETATM   24  H           1     -20.120 -13.503  -0.863  0.00  0.00     0.275 HD
ENDBRANCH   1  21
TORSDOF 6
ENDMDL
MODEL 7
REMARK VINA RESULT:      -6.5      1.825      2.624
REMARK  6 active torsions:
REMARK  status: ('A' for Active; 'I' for Inactive)
REMARK    1  A    between atoms: O_3  and  C_14 
REMARK    2  A    between atoms: C_5  and  C_18 
REMARK    3  A    between atoms: C_5  and  C_9 
REMARK    4  A    between atoms: C_5  and  N_22 
REMARK    5  A    between atoms: C_9  and  C_15 
REMARK       I    between atoms: C_18  and  N_19 
REMARK    6  A    between atoms: C_21  and  C_23 
ROOT
HETATM    1  C           1     -20.141  -7.893  -5.176  0.00  0.00     0.279 C 
ENDROOT
BRANCH   1   2
HETATM    2  C           1     -19.708  -8.505  -3.866  0.00  0.00     0.251 C 
HETATM    3  O           1     -20.261  -8.189  -2.839  0.00  0.00    -0.271 OA
HETATM    4  N           1     -18.687  -9.417  -3.840  0.00  0.00    -0.336 N 
HETATM    5  C           1     -18.513 -10.531  -2.913  0.00  0.00     0.127 C 
HETATM    6  C           1     -17.535  -9.488  -4.735  0.00  0.00     0.188 C 
HETATM    7  C           1     -17.023 -10.526  -2.615  0.00  0.00     0.022 C 
HETATM    8  C           1     -16.381  -9.836  -3.812  0.00  0.00     0.038 C 
BRANCH   6   9
HETATM    9  C           1     -17.731 -10.562  -5.778  0.00  0.00     0.196 C 
HETATM   10  O           1     -16.834 -11.408  -5.980  0.00  0.00    -0.646 OA
HETATM   11  O           1     -18.790 -10.603  -6.440  0.00  0.00    -0.646 OA
ENDBRANCH   6   9
ENDBRANCH   1   2
BRANCH   1  12
HETATM   12  C           1     -20.753  -6.522  -4.919  0.00  0.00     0.081 C 
BRANCH  12  13
HETATM   13  C           1     -20.905  -5.793  -6.217  0.00  0.00    -0.056 A 
HETATM   14  C           1     -19.843  -5.744  -7.119  0.00  0.00     0.010 A 
HETATM   15  C           1     -19.984  -5.063  -8.328  0.00  0.00     0.037 A 
HETATM   16  C           1     -21.189  -4.431  -8.636  0.00  0.00     0.065 A 
HETATM   17  C           1     -22.252  -4.479  -7.733  0.00  0.00     0.037 A 
HETATM   18  C           1     -22.111  -5.160  -6.524  0.00  0.00     0.010 A 
BRANCH  16  19
HETATM   19  O           1     -21.327  -3.770  -9.810  0.00  0.00    -0.361 OA
HETATM   20  H           1     -21.065  -2.845  -9.667  0.00  0.00     0.217 HD
ENDBRANCH  16  19
ENDBRANCH  12  13
ENDBRANCH   1  12
BRANCH   1  21
HETATM   21  N           1     -21.158  -8.780  -5.829  0.00  0.00    -0.066 N 
HETATM   22  H           1     -21.639  -8.254  -6.593  0.00  0.00     0.275 HD
HETATM   23  H           1     -21.863  -9.086  -5.119  0.00  0.00     0.275 HD
HETATM   24  H           1     -20.682  -9.620  -6.230  0.00  0.00     0.275 HD
ENDBRANCH   1  21
TORSDOF 6
ENDMDL
MODEL 8
REMARK VINA RESULT:      -6.3     19.762     21.919
REMARK  6 active torsions:
REMARK  status: ('A' for Active; 'I' for Inactive)
REMARK    1  A    between atoms: O_3  and  C_14 
REMARK    2  A    between atoms: C_5  and  C_18 
REMARK    3  A    between atoms: C_5  and  C_9 
REMARK    4  A    between atoms: C_5  and  N_22 
REMARK    5  A    between atoms: C_9  and  C_15 
REMARK       I    between atoms: C_18  and  N_19 
REMARK    6  A    between atoms: C_21  and  C_23 
ROOT
HETATM    1  C           1     -10.388   5.431 -19.691  0.00  0.00     0.279 C 
ENDROOT
BRANCH   1   2
HETATM    2  C           1     -10.902   4.131 -20.260  0.00  0.00     0.251 C 
HETATM    3  O           1     -10.212   3.140 -20.224  0.00  0.00    -0.271 OA
HETATM    4  N           1     -12.151   4.074 -20.818  0.00  0.00    -0.336 N 
HETATM    5  C           1     -13.059   2.931 -20.852  0.00  0.00     0.127 C 
HETATM    6  C           1     -12.867   5.144 -21.508  0.00  0.00     0.188 C 
HETATM    7  C           1     -13.659   2.984 -22.247  0.00  0.00     0.022 C 
HETATM    8  C           1     -13.527   4.439 -22.681  0.00  0.00     0.038 C 
BRANCH   6   9
HETATM    9  C           1     -13.901   5.769 -20.605  0.00  0.00     0.196 C 
HETATM   10  O           1     -15.110   5.483 -20.747  0.00  0.00    -0.646 OA
HETATM   11  O           1     -13.549   6.573 -19.715  0.00  0.00    -0.646 OA
ENDBRANCH   6   9
ENDBRANCH   1   2
BRANCH   1  12
HETATM   12  C           1      -9.672   6.215 -20.782  0.00  0.00     0.081 C 
BRANCH  12  13
HETATM   13  C           1     -10.331   7.547 -20.954  0.00  0.00    -0.056 A 
HETATM   14  C           1     -10.552   8.365 -19.846  0.00  0.00     0.010 A 
HETATM   15  C           1     -11.167   9.607 -20.006  0.00  0.00     0.037 A 
HETATM   16  C           1     -11.562  10.031 -21.275  0.00  0.00     0.065 A 
HETATM   17  C           1     -11.342   9.213 -22.383  0.00  0.00     0.037 A 
HETATM   18  C           1     -10.727   7.971 -22.224  0.00  0.00     0.010 A 
BRANCH  16  19
HETATM   19  O           1     -12.159  11.237 -21.431  0.00  0.00    -0.361 OA
HETATM   20  H           1     -12.636  11.444 -20.610  0.00  0.00     0.217 HD
ENDBRANCH  16  19
ENDBRANCH  12  13
ENDBRANCH   1  12
BRANCH   1  21
HETATM   21  N           1      -9.432   5.143 -18.573  0.00  0.00    -0.066 N 
HETATM   22  H           1      -8.679   4.503 -18.914  0.00  0.00     0.275 HD
HETATM   23  H           1      -9.944   4.688 -17.783  0.00  0.00     0.275 HD
HETATM   24  H           1      -9.005   6.037 -18.241  0.00  0.00     0.275 HD
ENDBRANCH   1  21
TORSDOF 6
ENDMDL
MODEL 9
REMARK VINA RESULT:      -6.3      4.629      6.347
REMARK  6 active torsions:
REMARK  status: ('A' for Active; 'I' for Inactive)
REMARK    1  A    between atoms: O_3  and  C_14 
REMARK    2  A    between atoms: C_5  and  C_18 
REMARK    3  A    between atoms: C_5  and  C_9 
REMARK    4  A    between atoms: C_5  and  N_22 
REMARK    5  A    between atoms: C_9  and  C_15 
REMARK       I    between atoms: C_18  and  N_19 
REMARK    6  A    between atoms: C_21  and  C_23 
ROOT
HETATM    1  C           1     -20.658  -9.153  -3.341  0.00  0.00     0.279 C 
ENDROOT
BRANCH   1   2
HETATM    2  C           1     -21.098  -8.101  -2.352  0.00  0.00     0.251 C 
HETATM    3  O           1     -21.031  -6.931  -2.644  0.00  0.00    -0.271 OA
HETATM    4  N           1     -21.571  -8.473  -1.122  0.00  0.00    -0.336 N 
HETATM    5  C           1     -22.565  -7.782  -0.305  0.00  0.00     0.127 C 
HETATM    6  C           1     -21.195  -9.649  -0.342  0.00  0.00     0.188 C 
HETATM    7  C           1     -22.021  -7.902   1.108  0.00  0.00     0.022 C 
HETATM    8  C           1     -21.115  -9.127   1.082  0.00  0.00     0.038 C 
BRANCH   6   9
HETATM    9  C           1     -22.240 -10.730  -0.460  0.00  0.00     0.196 C 
HETATM   10  O           1     -22.336 -11.607   0.426  0.00  0.00    -0.646 OA
HETATM   11  O           1     -23.011 -10.749  -1.444  0.00  0.00    -0.646 OA
ENDBRANCH   6   9
ENDBRANCH   1   2
BRANCH   1  12
HETATM   12  C           1     -19.804  -8.507  -4.424  0.00  0.00     0.081 C 
BRANCH  12  13
HETATM   13  C           1     -18.492  -9.220  -4.517  0.00  0.00    -0.056 A 
HETATM   14  C           1     -18.016  -9.646  -5.757  0.00  0.00     0.010 A 
HETATM   15  C           1     -16.793 -10.311  -5.845  0.00  0.00     0.037 A 
HETATM   16  C           1     -16.046 -10.551  -4.691  0.00  0.00     0.065 A 
HETATM   17  C           1     -16.522 -10.126  -3.451  0.00  0.00     0.037 A 
HETATM   18  C           1     -17.745  -9.461  -3.363  0.00  0.00     0.010 A 
BRANCH  16  19
HETATM   19  O           1     -14.858 -11.198  -4.776  0.00  0.00    -0.361 OA
HETATM   20  H           1     -15.039 -12.150  -4.845  0.00  0.00     0.217 HD
ENDBRANCH  16  19
ENDBRANCH  12  13
ENDBRANCH   1  12
BRANCH   1  21
HETATM   21  N           1     -21.864  -9.785  -3.967  0.00  0.00    -0.066 N 
HETATM   22  H           1     -22.056  -9.332  -4.889  0.00  0.00     0.275 HD
HETATM   23  H           1     -22.691  -9.659  -3.339  0.00  0.00     0.275 HD
HETATM   24  H           1     -21.689 -10.805  -4.110  0.00  0.00     0.275 HD
ENDBRANCH   1  21
TORSDOF 6
ENDMDL
