MODEL 1
REMARK VINA RESULT:      -5.6      0.000      0.000
REMARK  6 active torsions:
REMARK  status: ('A' for Active; 'I' for Inactive)
REMARK    1  A    between atoms: N_5  and  C_7 
REMARK       I    between atoms: N_5  and  C_16 
REMARK    2  A    between atoms: O_6  and  C_14 
REMARK    3  A    between atoms: C_7  and  C_14 
REMARK    4  A    between atoms: C_7  and  C_17 
REMARK    5  A    between atoms: C_8  and  C_16 
REMARK    6  A    between atoms: C_8  and  N_9 
ROOT
HETATM    1  N           1     -22.169  -4.792  -9.071  0.00  0.00    -0.343 N 
HETATM    2  O           1     -21.747  -3.416  -7.364  0.00  0.00    -0.272 OA
HETATM    3  H           1     -22.172  -5.739  -9.429  0.00  0.00     0.163 HD
HETATM    4  C           1     -21.750  -4.546  -7.791  0.00  0.00     0.243 C 
ENDROOT
BRANCH   1   5
HETATM    5  C           1     -22.609  -3.696  -9.913  0.00  0.00     0.214 C 
BRANCH   5   6
HETATM    6  C           1     -21.812  -3.704 -11.211  0.00  0.00     0.147 C 
HETATM    7  C           1     -20.434  -4.300 -10.956  0.00  0.00     0.042 C 
BRANCH   6   8
HETATM    8  O           1     -22.486  -4.476 -12.168  0.00  0.00    -0.393 OA
HETATM    9  H           1     -23.046  -5.071 -11.697  0.00  0.00     0.210 HD
ENDBRANCH   6   8
ENDBRANCH   5   6
BRANCH   5  10
HETATM   10  C           1     -24.077  -3.859 -10.222  0.00  0.00     0.199 C 
HETATM   11  O           1     -24.706  -2.933 -10.778  0.00  0.00    -0.646 OA
HETATM   12  O           1     -24.666  -4.920  -9.920  0.00  0.00    -0.646 OA
ENDBRANCH   5  10
ENDBRANCH   1   5
BRANCH   4  13
HETATM   13  C           1     -21.293  -5.686  -6.914  0.00  0.00     0.332 C 
BRANCH  13  14
HETATM   14  N           1     -19.971  -6.197  -7.407  0.00  0.00    -0.071 N 
HETATM   15  H           1     -20.077  -7.186  -7.727  0.00  0.00     0.274 HD
HETATM   16  H           1     -19.647  -5.607  -8.207  0.00  0.00     0.274 HD
HETATM   17  H           1     -19.270  -6.154  -6.634  0.00  0.00     0.274 HD
ENDBRANCH  13  14
ENDBRANCH   4  13
TORSDOF 6
ENDMDL
MODEL 2
REMARK VINA RESULT:      -5.3      8.215      9.288
REMARK  6 active torsions:
REMARK  status: ('A' for Active; 'I' for Inactive)
REMARK    1  A    between atoms: N_5  and  C_7 
REMARK       I    between atoms: N_5  and  C_16 
REMARK    2  A    between atoms: O_6  and  C_14 
REMARK    3  A    between atoms: C_7  and  C_14 
REMARK    4  A    between atoms: C_7  and  C_17 
REMARK    5  A    between atoms: C_8  and  C_16 
REMARK    6  A    between atoms: C_8  and  N_9 
ROOT
HETATM    1  N           1     -26.568  -6.767 -16.997  0.00  0.00    -0.343 N 
HETATM    2  O           1     -25.101  -5.719 -15.679  0.00  0.00    -0.272 OA
HETATM    3  H           1     -26.746  -7.510 -17.661  0.00  0.00     0.163 HD
HETATM    4  C           1     -25.314  -6.606 -16.472  0.00  0.00     0.243 C 
ENDROOT
BRANCH   1   5
HETATM    5  C           1     -27.640  -5.875 -16.602  0.00  0.00     0.214 C 
BRANCH   5   6
HETATM    6  C           1     -28.618  -5.715 -17.759  0.00  0.00     0.147 C 
HETATM    7  C           1     -27.925  -6.089 -19.063  0.00  0.00     0.042 C 
BRANCH   6   8
HETATM    8  O           1     -29.722  -6.554 -17.558  0.00  0.00    -0.393 OA
HETATM    9  H           1     -29.460  -7.207 -16.929  0.00  0.00     0.210 HD
ENDBRANCH   6   8
ENDBRANCH   5   6
BRANCH   5  10
HETATM   10  C           1     -28.361  -6.453 -15.409  0.00  0.00     0.199 C 
HETATM   11  O           1     -29.241  -5.784 -14.825  0.00  0.00    -0.646 OA
HETATM   12  O           1     -28.078  -7.602 -15.005  0.00  0.00    -0.646 OA
ENDBRANCH   5  10
ENDBRANCH   1   5
BRANCH   4  13
HETATM   13  C           1     -24.198  -7.534 -16.883  0.00  0.00     0.332 C 
BRANCH  13  14
HETATM   14  N           1     -24.102  -7.571 -18.380  0.00  0.00    -0.071 N 
HETATM   15  H           1     -23.328  -6.944 -18.694  0.00  0.00     0.274 HD
HETATM   16  H           1     -23.906  -8.549 -18.691  0.00  0.00     0.274 HD
HETATM   17  H           1     -25.004  -7.246 -18.794  0.00  0.00     0.274 HD
ENDBRANCH  13  14
ENDBRANCH   4  13
TORSDOF 6
ENDMDL
MODEL 3
REMARK VINA RESULT:      -5.2      9.113     10.526
REMARK  6 active torsions:
REMARK  status: ('A' for Active; 'I' for Inactive)
REMARK    1  A    between atoms: N_5  and  C_7 
REMARK       I    between atoms: N_5  and  C_16 
REMARK    2  A    between atoms: O_6  and  C_14 
REMARK    3  A    between atoms: C_7  and  C_14 
REMARK    4  A    between atoms: C_7  and  C_17 
REMARK    5  A    between atoms: C_8  and  C_16 
REMARK    6  A    between atoms: C_8  and  N_9 
ROOT
HETATM    1  N           1     -27.943  -6.629 -16.939  0.00  0.00    -0.343 N 
HETATM    2  O           1     -27.706  -7.696 -14.992  0.00  0.00    -0.272 OA
HETATM    3  H           1     -27.522  -6.054 -17.659  0.00  0.00     0.163 HD
HETATM    4  C           1     -27.204  -7.011 -15.852  0.00  0.00     0.243 C 
ENDROOT
BRANCH   1   5
HETATM    5  C           1     -29.326  -7.045 -17.059  0.00  0.00     0.214 C 
BRANCH   5   6
HETATM    6  C           1     -30.238  -5.854 -16.793  0.00  0.00     0.147 C 
HETATM    7  C           1     -29.922  -4.742 -17.784  0.00  0.00     0.042 C 
BRANCH   6   8
HETATM    8  O           1     -31.575  -6.247 -16.943  0.00  0.00    -0.393 OA
HETATM    9  H           1     -31.605  -7.179 -16.799  0.00  0.00     0.210 HD
ENDBRANCH   6   8
ENDBRANCH   5   6
BRANCH   5  10
HETATM   10  C           1     -29.574  -7.568 -18.453  0.00  0.00     0.199 C 
HETATM   11  O           1     -30.652  -8.138 -18.725  0.00  0.00    -0.646 OA
HETATM   12  O           1     -28.699  -7.432 -19.336  0.00  0.00    -0.646 OA
ENDBRANCH   5  10
ENDBRANCH   1   5
BRANCH   4  13
HETATM   13  C           1     -25.764  -6.578 -15.727  0.00  0.00     0.332 C 
BRANCH  13  14
HETATM   14  N           1     -24.916  -7.381 -16.669  0.00  0.00    -0.071 N 
HETATM   15  H           1     -25.425  -7.508 -17.573  0.00  0.00     0.274 HD
HETATM   16  H           1     -24.018  -6.877 -16.844  0.00  0.00     0.274 HD
HETATM   17  H           1     -24.716  -8.316 -16.247  0.00  0.00     0.274 HD
ENDBRANCH  13  14
ENDBRANCH   4  13
TORSDOF 6
ENDMDL
MODEL 4
REMARK VINA RESULT:      -4.9      8.346      9.750
REMARK  6 active torsions:
REMARK  status: ('A' for Active; 'I' for Inactive)
REMARK    1  A    between atoms: N_5  and  C_7 
REMARK       I    between atoms: N_5  and  C_16 
REMARK    2  A    between atoms: O_6  and  C_14 
REMARK    3  A    between atoms: C_7  and  C_14 
REMARK    4  A    between atoms: C_7  and  C_17 
REMARK    5  A    between atoms: C_8  and  C_16 
REMARK    6  A    between atoms: C_8  and  N_9 
ROOT
HETATM    1  N           1     -27.503  -7.175 -16.381  0.00  0.00    -0.343 N 
HETATM    2  O           1     -26.235  -5.383 -16.788  0.00  0.00    -0.272 OA
HETATM    3  H           1     -27.570  -8.108 -15.994  0.00  0.00     0.163 HD
HETATM    4  C           1     -26.315  -6.496 -16.326  0.00  0.00     0.243 C 
ENDROOT
BRANCH   1   5
HETATM    5  C           1     -28.663  -6.559 -16.994  0.00  0.00     0.214 C 
BRANCH   5   6
HETATM    6  C           1     -29.737  -7.616 -17.222  0.00  0.00     0.147 C 
HETATM    7  C           1     -31.041  -6.936 -17.615  0.00  0.00     0.042 C 
BRANCH   6   8
HETATM    8  O           1     -29.331  -8.480 -18.247  0.00  0.00    -0.393 OA
HETATM    9  H           1     -29.063  -7.940 -18.972  0.00  0.00     0.210 HD
ENDBRANCH   6   8
ENDBRANCH   5   6
BRANCH   5  10
HETATM   10  C           1     -29.200  -5.483 -16.083  0.00  0.00     0.199 C 
HETATM   11  O           1     -29.432  -4.340 -16.534  0.00  0.00    -0.646 OA
HETATM   12  O           1     -29.412  -5.733 -14.877  0.00  0.00    -0.646 OA
ENDBRANCH   5  10
ENDBRANCH   1   5
BRANCH   4  13
HETATM   13  C           1     -25.107  -7.137 -15.687  0.00  0.00     0.332 C 
BRANCH  13  14
HETATM   14  N           1     -24.230  -7.724 -16.754  0.00  0.00    -0.071 N 
HETATM   15  H           1     -23.555  -8.393 -16.320  0.00  0.00     0.274 HD
HETATM   16  H           1     -24.822  -8.231 -17.451  0.00  0.00     0.274 HD
HETATM   17  H           1     -23.705  -6.959 -17.233  0.00  0.00     0.274 HD
ENDBRANCH  13  14
ENDBRANCH   4  13
TORSDOF 6
ENDMDL
MODEL 5
REMARK VINA RESULT:      -4.8      1.480      2.564
REMARK  6 active torsions:
REMARK  status: ('A' for Active; 'I' for Inactive)
REMARK    1  A    between atoms: N_5  and  C_7 
REMARK       I    between atoms: N_5  and  C_16 
REMARK    2  A    between atoms: O_6  and  C_14 
REMARK    3  A    between atoms: C_7  and  C_14 
REMARK    4  A    between atoms: C_7  and  C_17 
REMARK    5  A    between atoms: C_8  and  C_16 
REMARK    6  A    between atoms: C_8  and  N_9 
ROOT
HETATM    1  N           1     -22.352  -3.896  -8.833  0.00  0.00    -0.343 N 
HETATM    2  O           1     -20.847  -5.454  -8.293  0.00  0.00    -0.272 OA
HETATM    3  H           1     -22.824  -3.036  -8.582  0.00  0.00     0.163 HD
HETATM    4  C           1     -21.410  -4.428  -7.993  0.00  0.00     0.243 C 
ENDROOT
BRANCH   1   5
HETATM    5  C           1     -22.672  -4.562 -10.080  0.00  0.00     0.214 C 
BRANCH   5   6
HETATM    6  C           1     -24.168  -4.450 -10.344  0.00  0.00     0.147 C 
HETATM    7  C           1     -24.743  -3.301  -9.527  0.00  0.00     0.042 C 
BRANCH   6   8
HETATM    8  O           1     -24.385  -4.209 -11.708  0.00  0.00    -0.393 OA
HETATM    9  H           1     -24.187  -3.300 -11.861  0.00  0.00     0.210 HD
ENDBRANCH   6   8
ENDBRANCH   5   6
BRANCH   5  10
HETATM   10  C           1     -21.911  -3.910 -11.208  0.00  0.00     0.199 C 
HETATM   11  O           1     -21.931  -2.667 -11.339  0.00  0.00    -0.646 OA
HETATM   12  O           1     -21.260  -4.612 -12.012  0.00  0.00    -0.646 OA
ENDBRANCH   5  10
ENDBRANCH   1   5
BRANCH   4  13
HETATM   13  C           1     -21.077  -3.735  -6.696  0.00  0.00     0.332 C 
BRANCH  13  14
HETATM   14  N           1     -20.411  -4.706  -5.766  0.00  0.00    -0.071 N 
HETATM   15  H           1     -19.487  -4.990  -6.163  0.00  0.00     0.274 HD
HETATM   16  H           1     -20.266  -4.252  -4.835  0.00  0.00     0.274 HD
HETATM   17  H           1     -21.016  -5.550  -5.652  0.00  0.00     0.274 HD
ENDBRANCH  13  14
ENDBRANCH   4  13
TORSDOF 6
ENDMDL
MODEL 6
REMARK VINA RESULT:      -4.6      1.869      4.169
REMARK  6 active torsions:
REMARK  status: ('A' for Active; 'I' for Inactive)
REMARK    1  A    between atoms: N_5  and  C_7 
REMARK       I    between atoms: N_5  and  C_16 
REMARK    2  A    between atoms: O_6  and  C_14 
REMARK    3  A    between atoms: C_7  and  C_14 
REMARK    4  A    between atoms: C_7  and  C_17 
REMARK    5  A    between atoms: C_8  and  C_16 
REMARK    6  A    between atoms: C_8  and  N_9 
ROOT
HETATM    1  N           1     -22.615  -4.000  -9.330  0.00  0.00    -0.343 N 
HETATM    2  O           1     -23.827  -5.372 -10.608  0.00  0.00    -0.272 OA
HETATM    3  H           1     -22.509  -3.080  -8.919  0.00  0.00     0.163 HD
HETATM    4  C           1     -23.701  -4.275 -10.118  0.00  0.00     0.243 C 
ENDROOT
BRANCH   1   5
HETATM    5  C           1     -21.619  -5.024  -9.082  0.00  0.00     0.214 C 
BRANCH   5   6
HETATM    6  C           1     -20.256  -4.527  -9.546  0.00  0.00     0.147 C 
HETATM    7  C           1     -20.431  -3.632 -10.766  0.00  0.00     0.042 C 
BRANCH   6   8
HETATM    8  O           1     -19.649  -3.799  -8.514  0.00  0.00    -0.393 OA
HETATM    9  H           1     -20.098  -4.025  -7.717  0.00  0.00     0.210 HD
ENDBRANCH   6   8
ENDBRANCH   5   6
BRANCH   5  10
HETATM   10  C           1     -21.569  -5.329  -7.605  0.00  0.00     0.199 C 
HETATM   11  O           1     -20.941  -6.328  -7.194  0.00  0.00    -0.646 OA
HETATM   12  O           1     -22.156  -4.582  -6.793  0.00  0.00    -0.646 OA
ENDBRANCH   5  10
ENDBRANCH   1   5
BRANCH   4  13
HETATM   13  C           1     -24.737  -3.209 -10.375  0.00  0.00     0.332 C 
BRANCH  13  14
HETATM   14  N           1     -25.977  -3.516  -9.588  0.00  0.00    -0.071 N 
HETATM   15  H           1     -25.767  -4.263  -8.887  0.00  0.00     0.274 HD
HETATM   16  H           1     -26.296  -2.653  -9.092  0.00  0.00     0.274 HD
HETATM   17  H           1     -26.728  -3.846 -10.234  0.00  0.00     0.274 HD
ENDBRANCH  13  14
ENDBRANCH   4  13
TORSDOF 6
ENDMDL
MODEL 7
REMARK VINA RESULT:      -4.5      2.362      3.618
REMARK  6 active torsions:
REMARK  status: ('A' for Active; 'I' for Inactive)
REMARK    1  A    between atoms: N_5  and  C_7 
REMARK       I    between atoms: N_5  and  C_16 
REMARK    2  A    between atoms: O_6  and  C_14 
REMARK    3  A    between atoms: C_7  and  C_14 
REMARK    4  A    between atoms: C_7  and  C_17 
REMARK    5  A    between atoms: C_8  and  C_16 
REMARK    6  A    between atoms: C_8  and  N_9 
ROOT
HETATM    1  N           1     -21.554  -4.849  -6.928  0.00  0.00    -0.343 N 
HETATM    2  O           1     -20.956  -6.995  -6.780  0.00  0.00    -0.272 OA
HETATM    3  H           1     -21.745  -3.977  -6.451  0.00  0.00     0.163 HD
HETATM    4  C           1     -21.184  -5.955  -6.210  0.00  0.00     0.243 C 
ENDROOT
BRANCH   1   5
HETATM    5  C           1     -21.670  -4.927  -8.371  0.00  0.00     0.214 C 
BRANCH   5   6
HETATM    6  C           1     -22.866  -4.101  -8.828  0.00  0.00     0.147 C 
HETATM    7  C           1     -23.473  -4.734 -10.073  0.00  0.00     0.042 C 
BRANCH   6   8
HETATM    8  O           1     -23.825  -4.065  -7.807  0.00  0.00    -0.393 OA
HETATM    9  H           1     -23.768  -4.885  -7.346  0.00  0.00     0.210 HD
ENDBRANCH   6   8
ENDBRANCH   5   6
BRANCH   5  10
HETATM   10  C           1     -20.412  -4.386  -9.006  0.00  0.00     0.199 C 
HETATM   11  O           1     -20.127  -4.687 -10.185  0.00  0.00    -0.646 OA
HETATM   12  O           1     -19.654  -3.637  -8.352  0.00  0.00    -0.646 OA
ENDBRANCH   5  10
ENDBRANCH   1   5
BRANCH   4  13
HETATM   13  C           1     -21.063  -5.874  -4.708  0.00  0.00     0.332 C 
BRANCH  13  14
HETATM   14  N           1     -22.372  -6.251  -4.079  0.00  0.00    -0.071 N 
HETATM   15  H           1     -22.441  -7.292  -4.016  0.00  0.00     0.274 HD
HETATM   16  H           1     -22.428  -5.840  -3.120  0.00  0.00     0.274 HD
HETATM   17  H           1     -23.157  -5.885  -4.663  0.00  0.00     0.274 HD
ENDBRANCH  13  14
ENDBRANCH   4  13
TORSDOF 6
ENDMDL
MODEL 8
REMARK VINA RESULT:      -4.5      9.337     10.835
REMARK  6 active torsions:
REMARK  status: ('A' for Active; 'I' for Inactive)
REMARK    1  A    between atoms: N_5  and  C_7 
REMARK       I    between atoms: N_5  and  C_16 
REMARK    2  A    between atoms: O_6  and  C_14 
REMARK    3  A    between atoms: C_7  and  C_14 
REMARK    4  A    between atoms: C_7  and  C_17 
REMARK    5  A    between atoms: C_8  and  C_16 
REMARK    6  A    between atoms: C_8  and  N_9 
ROOT
HETATM    1  N           1     -28.799  -5.123 -17.959  0.00  0.00    -0.343 N 
HETATM    2  O           1     -30.511  -5.742 -16.667  0.00  0.00    -0.272 OA
HETATM    3  H           1     -28.386  -4.417 -18.556  0.00  0.00     0.163 HD
HETATM    4  C           1     -30.019  -4.900 -17.380  0.00  0.00     0.243 C 
ENDROOT
BRANCH   1   5
HETATM    5  C           1     -28.097  -6.369 -17.718  0.00  0.00     0.214 C 
BRANCH   5   6
HETATM    6  C           1     -27.329  -6.768 -18.970  0.00  0.00     0.147 C 
HETATM    7  C           1     -27.635  -5.782 -20.089  0.00  0.00     0.042 C 
BRANCH   6   8
HETATM    8  O           1     -25.954  -6.755 -18.698  0.00  0.00    -0.393 OA
HETATM    9  H           1     -25.854  -6.499 -17.797  0.00  0.00     0.210 HD
ENDBRANCH   6   8
ENDBRANCH   5   6
BRANCH   5  10
HETATM   10  C           1     -27.133  -6.188 -16.570  0.00  0.00     0.199 C 
HETATM   11  O           1     -26.510  -5.112 -16.441  0.00  0.00    -0.646 OA
HETATM   12  O           1     -26.957  -7.115 -15.750  0.00  0.00    -0.646 OA
ENDBRANCH   5  10
ENDBRANCH   1   5
BRANCH   4  13
HETATM   13  C           1     -30.749  -3.603 -17.631  0.00  0.00     0.332 C 
BRANCH  13  14
HETATM   14  N           1     -29.779  -2.461 -17.555  0.00  0.00    -0.071 N 
HETATM   15  H           1     -28.823  -2.829 -17.349  0.00  0.00     0.274 HD
HETATM   16  H           1     -29.767  -1.954 -18.470  0.00  0.00     0.274 HD
HETATM   17  H           1     -30.071  -1.806 -16.796  0.00  0.00     0.274 HD
ENDBRANCH  13  14
ENDBRANCH   4  13
TORSDOF 6
ENDMDL
MODEL 9
REMARK VINA RESULT:      -4.3      3.366      5.117
REMARK  6 active torsions:
REMARK  status: ('A' for Active; 'I' for Inactive)
REMARK    1  A    between atoms: N_5  and  C_7 
REMARK       I    between atoms: N_5  and  C_16 
REMARK    2  A    between atoms: O_6  and  C_14 
REMARK    3  A    between atoms: C_7  and  C_14 
REMARK    4  A    between atoms: C_7  and  C_17 
REMARK    5  A    between atoms: C_8  and  C_16 
REMARK    6  A    between atoms: C_8  and  N_9 
ROOT
HETATM    1  N           1     -21.623  -5.797  -4.863  0.00  0.00    -0.343 N 
HETATM    2  O           1     -21.634  -8.030  -4.827  0.00  0.00    -0.272 OA
HETATM    3  H           1     -21.628  -4.931  -4.339  0.00  0.00     0.163 HD
HETATM    4  C           1     -21.639  -6.996  -4.202  0.00  0.00     0.243 C 
ENDROOT
BRANCH   1   5
HETATM    5  C           1     -21.600  -5.768  -6.313  0.00  0.00     0.214 C 
BRANCH   5   6
HETATM    6  C           1     -22.442  -4.601  -6.809  0.00  0.00     0.147 C 
HETATM    7  C           1     -22.323  -4.498  -8.324  0.00  0.00     0.042 C 
BRANCH   6   8
HETATM    8  O           1     -23.783  -4.809  -6.458  0.00  0.00    -0.393 OA
HETATM    9  H           1     -24.224  -5.123  -7.230  0.00  0.00     0.210 HD
ENDBRANCH   6   8
ENDBRANCH   5   6
BRANCH   5  10
HETATM   10  C           1     -20.177  -5.602  -6.788  0.00  0.00     0.199 C 
HETATM   11  O           1     -19.522  -4.590  -6.459  0.00  0.00    -0.646 OA
HETATM   12  O           1     -19.655  -6.477  -7.513  0.00  0.00    -0.646 OA
ENDBRANCH   5  10
ENDBRANCH   1   5
BRANCH   4  13
HETATM   13  C           1     -21.663  -7.026  -2.693  0.00  0.00     0.332 C 
BRANCH  13  14
HETATM   14  N           1     -22.415  -5.833  -2.181  0.00  0.00    -0.071 N 
HETATM   15  H           1     -22.961  -5.405  -2.962  0.00  0.00     0.274 HD
HETATM   16  H           1     -23.068  -6.133  -1.423  0.00  0.00     0.274 HD
HETATM   17  H           1     -21.739  -5.132  -1.803  0.00  0.00     0.274 HD
ENDBRANCH  13  14
ENDBRANCH   4  13
TORSDOF 6
ENDMDL
