MODEL 1
REMARK VINA RESULT:      -4.9      0.000      0.000
REMARK  8 active torsions:
REMARK  status: ('A' for Active; 'I' for Inactive)
REMARK    1  A    between atoms: C_3  and  C_19 
REMARK    2  A    between atoms: N_6  and  C_19 
REMARK       I    between atoms: N_6  and  C_7 
REMARK    3  A    between atoms: C_7  and  C_8 
REMARK    4  A    between atoms: C_8  and  C_9 
REMARK    5  A    between atoms: C_8  and  N_11 
REMARK    6  A    between atoms: C_9  and  Se_10 
REMARK    7  A    between atoms: Se_17  and  C_18 
REMARK    8  A    between atoms: C_18  and  C_19 
ROOT
HETATM    1  N           1     -34.958  -1.677 -13.031  0.00  0.00    -0.345 N 
HETATM    2  C           1     -34.281  -2.576 -12.252  0.00  0.00     0.249 C 
HETATM    3  O           1     -33.762  -2.214 -11.223  0.00  0.00    -0.271 OA
HETATM    4  H           1     -35.394  -1.981 -13.892  0.00  0.00     0.163 HD
ENDROOT
BRANCH   2   5
HETATM    5  C           1     -34.183  -4.020 -12.679  0.00  0.00     0.274 C 
BRANCH   5   6
HETATM    6  C           1     -33.239  -4.764 -11.742  0.00  0.00     0.045 C 
BRANCH   6   7
HETATM    7 Se           1     -34.247  -6.074 -10.709  0.00  0.00     0.000 Se
HETATM    8  H           1     -33.750  -5.601  -9.407  0.00  0.00     0.000 HD
ENDBRANCH   6   7
ENDBRANCH   5   6
BRANCH   5   9
HETATM    9  N           1     -33.653  -4.092 -14.080  0.00  0.00    -0.067 N 
HETATM   10  H           1     -33.198  -5.020 -14.233  0.00  0.00     0.275 HD
HETATM   11  H           1     -34.441  -3.975 -14.756  0.00  0.00     0.275 HD
HETATM   12  H           1     -32.951  -3.331 -14.226  0.00  0.00     0.275 HD
ENDBRANCH   5   9
ENDBRANCH   2   5
BRANCH   1  13
HETATM   13  C           1     -35.052  -0.289 -12.620  0.00  0.00     0.185 C 
BRANCH  13  14
HETATM   14  C           1     -36.318  -0.086 -11.824  0.00  0.00     0.196 C 
HETATM   15  O           1     -37.403  -0.536 -12.250  0.00  0.00    -0.646 OA
HETATM   16  O           1     -36.280   0.533 -10.738  0.00  0.00    -0.646 OA
ENDBRANCH  13  14
BRANCH  13  17
HETATM   17  C           1     -35.080   0.603 -13.855  0.00  0.00     0.039 C 
BRANCH  17  18
HETATM   18 Se           1     -35.685  -0.432 -15.391  0.00  0.00     0.000 Se
HETATM   19  H           1     -34.396  -1.117 -15.585  0.00  0.00     0.000 HD
ENDBRANCH  17  18
ENDBRANCH  13  17
ENDBRANCH   1  13
TORSDOF 8
ENDMDL
MODEL 2
REMARK VINA RESULT:      -4.7     12.238     13.773
REMARK  8 active torsions:
REMARK  status: ('A' for Active; 'I' for Inactive)
REMARK    1  A    between atoms: C_3  and  C_19 
REMARK    2  A    between atoms: N_6  and  C_19 
REMARK       I    between atoms: N_6  and  C_7 
REMARK    3  A    between atoms: C_7  and  C_8 
REMARK    4  A    between atoms: C_8  and  C_9 
REMARK    5  A    between atoms: C_8  and  N_11 
REMARK    6  A    between atoms: C_9  and  Se_10 
REMARK    7  A    between atoms: Se_17  and  C_18 
REMARK    8  A    between atoms: C_18  and  C_19 
ROOT
HETATM    1  N           1     -22.311  -4.663  -9.098  0.00  0.00    -0.345 N 
HETATM    2  C           1     -21.793  -4.622  -7.831  0.00  0.00     0.249 C 
HETATM    3  O           1     -21.652  -3.562  -7.270  0.00  0.00    -0.271 OA
HETATM    4  H           1     -22.429  -5.551  -9.568  0.00  0.00     0.163 HD
ENDROOT
BRANCH   2   5
HETATM    5  C           1     -21.400  -5.902  -7.135  0.00  0.00     0.274 C 
BRANCH   5   6
HETATM    6  C           1     -21.681  -5.777  -5.643  0.00  0.00     0.045 C 
BRANCH   6   7
HETATM    7 Se           1     -21.609  -7.540  -4.817  0.00  0.00     0.000 Se
HETATM    8  H           1     -22.345  -7.132  -3.610  0.00  0.00     0.000 HD
ENDBRANCH   6   7
ENDBRANCH   5   6
BRANCH   5   9
HETATM    9  N           1     -19.937  -6.157  -7.348  0.00  0.00    -0.067 N 
HETATM   10  H           1     -19.458  -6.225  -6.423  0.00  0.00     0.275 HD
HETATM   11  H           1     -19.813  -7.053  -7.871  0.00  0.00     0.275 HD
HETATM   12  H           1     -19.524  -5.371  -7.899  0.00  0.00     0.275 HD
ENDBRANCH   5   9
ENDBRANCH   2   5
BRANCH   1  13
HETATM   13  C           1     -22.688  -3.433  -9.766  0.00  0.00     0.185 C 
BRANCH  13  14
HETATM   14  C           1     -24.143  -3.502 -10.162  0.00  0.00     0.196 C 
HETATM   15  O           1     -25.007  -2.923  -9.470  0.00  0.00    -0.646 OA
HETATM   16  O           1     -24.482  -4.139 -11.183  0.00  0.00    -0.646 OA
ENDBRANCH  13  14
BRANCH  13  17
HETATM   17  C           1     -21.830  -3.249 -11.012  0.00  0.00     0.039 C 
BRANCH  17  18
HETATM   18 Se           1     -20.255  -4.390 -10.889  0.00  0.00     0.000 Se
HETATM   19  H           1     -20.950  -5.471 -10.171  0.00  0.00     0.000 HD
ENDBRANCH  17  18
ENDBRANCH  13  17
ENDBRANCH   1  13
TORSDOF 8
ENDMDL
MODEL 3
REMARK VINA RESULT:      -4.6      3.615      5.144
REMARK  8 active torsions:
REMARK  status: ('A' for Active; 'I' for Inactive)
REMARK    1  A    between atoms: C_3  and  C_19 
REMARK    2  A    between atoms: N_6  and  C_19 
REMARK       I    between atoms: N_6  and  C_7 
REMARK    3  A    between atoms: C_7  and  C_8 
REMARK    4  A    between atoms: C_8  and  C_9 
REMARK    5  A    between atoms: C_8  and  N_11 
REMARK    6  A    between atoms: C_9  and  Se_10 
REMARK    7  A    between atoms: Se_17  and  C_18 
REMARK    8  A    between atoms: C_18  and  C_19 
ROOT
HETATM    1  N           1     -36.047   0.047 -11.399  0.00  0.00    -0.345 N 
HETATM    2  C           1     -37.018   0.107 -10.435  0.00  0.00     0.249 C 
HETATM    3  O           1     -38.019  -0.562 -10.544  0.00  0.00    -0.271 OA
HETATM    4  H           1     -35.209   0.606 -11.308  0.00  0.00     0.163 HD
ENDROOT
BRANCH   2   5
HETATM    5  C           1     -36.838   1.007  -9.238  0.00  0.00     0.274 C 
BRANCH   5   6
HETATM    6  C           1     -36.594   0.157  -7.996  0.00  0.00     0.045 C 
BRANCH   6   7
HETATM    7 Se           1     -37.368   1.041  -6.441  0.00  0.00     0.000 Se
HETATM    8  H           1     -38.683   0.397  -6.585  0.00  0.00     0.000 HD
ENDBRANCH   6   7
ENDBRANCH   5   6
BRANCH   5   9
HETATM    9  N           1     -38.074   1.832  -9.043  0.00  0.00    -0.067 N 
HETATM   10  H           1     -38.210   2.457  -9.870  0.00  0.00     0.275 HD
HETATM   11  H           1     -38.902   1.202  -8.943  0.00  0.00     0.275 HD
HETATM   12  H           1     -37.972   2.414  -8.180  0.00  0.00     0.275 HD
ENDBRANCH   5   9
ENDBRANCH   2   5
BRANCH   1  13
HETATM   13  C           1     -36.221  -0.818 -12.550  0.00  0.00     0.185 C 
BRANCH  13  14
HETATM   14  C           1     -35.015  -1.714 -12.691  0.00  0.00     0.196 C 
HETATM   15  O           1     -34.175  -1.780 -11.769  0.00  0.00    -0.646 OA
HETATM   16  O           1     -34.858  -2.390 -13.731  0.00  0.00    -0.646 OA
ENDBRANCH  13  14
BRANCH  13  17
HETATM   17  C           1     -36.372   0.033 -13.804  0.00  0.00     0.039 C 
BRANCH  17  18
HETATM   18 Se           1     -34.784   1.138 -14.035  0.00  0.00     0.000 Se
HETATM   19  H           1     -33.966   0.365 -13.085  0.00  0.00     0.000 HD
ENDBRANCH  17  18
ENDBRANCH  13  17
ENDBRANCH   1  13
TORSDOF 8
ENDMDL
MODEL 4
REMARK VINA RESULT:      -4.1     14.905     16.272
REMARK  8 active torsions:
REMARK  status: ('A' for Active; 'I' for Inactive)
REMARK    1  A    between atoms: C_3  and  C_19 
REMARK    2  A    between atoms: N_6  and  C_19 
REMARK       I    between atoms: N_6  and  C_7 
REMARK    3  A    between atoms: C_7  and  C_8 
REMARK    4  A    between atoms: C_8  and  C_9 
REMARK    5  A    between atoms: C_8  and  N_11 
REMARK    6  A    between atoms: C_9  and  Se_10 
REMARK    7  A    between atoms: Se_17  and  C_18 
REMARK    8  A    between atoms: C_18  and  C_19 
ROOT
HETATM    1  N           1     -21.065  -5.344  -5.302  0.00  0.00    -0.345 N 
HETATM    2  C           1     -21.593  -6.308  -4.486  0.00  0.00     0.249 C 
HETATM    3  O           1     -22.315  -7.161  -4.946  0.00  0.00    -0.271 OA
HETATM    4  H           1     -20.459  -4.631  -4.916  0.00  0.00     0.163 HD
ENDROOT
BRANCH   2   5
HETATM    5  C           1     -21.274  -6.306  -3.011  0.00  0.00     0.274 C 
BRANCH   5   6
HETATM    6  C           1     -20.889  -7.714  -2.572  0.00  0.00     0.045 C 
BRANCH   6   7
HETATM    7 Se           1     -21.817  -8.156  -0.917  0.00  0.00     0.000 Se
HETATM    8  H           1     -23.160  -7.918  -1.470  0.00  0.00     0.000 HD
ENDBRANCH   6   7
ENDBRANCH   5   6
BRANCH   5   9
HETATM    9  N           1     -22.478  -5.855  -2.240  0.00  0.00    -0.067 N 
HETATM   10  H           1     -23.125  -6.663  -2.099  0.00  0.00     0.275 HD
HETATM   11  H           1     -22.178  -5.484  -1.310  0.00  0.00     0.275 HD
HETATM   12  H           1     -22.971  -5.103  -2.773  0.00  0.00     0.275 HD
ENDBRANCH   5   9
ENDBRANCH   2   5
BRANCH   1  13
HETATM   13  C           1     -21.372  -5.346  -6.719  0.00  0.00     0.185 C 
BRANCH  13  14
HETATM   14  C           1     -20.145  -5.752  -7.498  0.00  0.00     0.196 C 
HETATM   15  O           1     -19.781  -5.077  -8.485  0.00  0.00    -0.646 OA
HETATM   16  O           1     -19.493  -6.762  -7.156  0.00  0.00    -0.646 OA
ENDBRANCH  13  14
BRANCH  13  17
HETATM   17  C           1     -21.806  -3.950  -7.144  0.00  0.00     0.039 C 
BRANCH  17  18
HETATM   18 Se           1     -23.145  -4.087  -8.554  0.00  0.00     0.000 Se
HETATM   19  H           1     -22.293  -4.891  -9.446  0.00  0.00     0.000 HD
ENDBRANCH  17  18
ENDBRANCH  13  17
ENDBRANCH   1  13
TORSDOF 8
ENDMDL
MODEL 5
REMARK VINA RESULT:      -4.1     14.818     16.737
REMARK  8 active torsions:
REMARK  status: ('A' for Active; 'I' for Inactive)
REMARK    1  A    between atoms: C_3  and  C_19 
REMARK    2  A    between atoms: N_6  and  C_19 
REMARK       I    between atoms: N_6  and  C_7 
REMARK    3  A    between atoms: C_7  and  C_8 
REMARK    4  A    between atoms: C_8  and  C_9 
REMARK    5  A    between atoms: C_8  and  N_11 
REMARK    6  A    between atoms: C_9  and  Se_10 
REMARK    7  A    between atoms: Se_17  and  C_18 
REMARK    8  A    between atoms: C_18  and  C_19 
ROOT
HETATM    1  N           1     -20.901  -6.625  -4.916  0.00  0.00    -0.345 N 
HETATM    2  C           1     -21.481  -5.710  -5.755  0.00  0.00     0.249 C 
HETATM    3  O           1     -22.680  -5.562  -5.750  0.00  0.00    -0.271 OA
HETATM    4  H           1     -19.896  -6.748  -4.919  0.00  0.00     0.163 HD
ENDROOT
BRANCH   2   5
HETATM    5  C           1     -20.622  -4.888  -6.683  0.00  0.00     0.274 C 
BRANCH   5   6
HETATM    6  C           1     -21.468  -3.794  -7.324  0.00  0.00     0.045 C 
BRANCH   6   7
HETATM    7 Se           1     -21.969  -4.332  -9.128  0.00  0.00     0.000 Se
HETATM    8  H           1     -22.945  -3.245  -9.307  0.00  0.00     0.000 HD
ENDBRANCH   6   7
ENDBRANCH   5   6
BRANCH   5   9
HETATM    9  N           1     -20.055  -5.772  -7.754  0.00  0.00    -0.067 N 
HETATM   10  H           1     -20.605  -6.660  -7.799  0.00  0.00     0.275 HD
HETATM   11  H           1     -20.110  -5.282  -8.675  0.00  0.00     0.275 HD
HETATM   12  H           1     -19.057  -5.990  -7.533  0.00  0.00     0.275 HD
ENDBRANCH   5   9
ENDBRANCH   2   5
BRANCH   1  13
HETATM   13  C           1     -21.726  -7.415  -4.024  0.00  0.00     0.185 C 
BRANCH  13  14
HETATM   14  C           1     -21.620  -6.866  -2.623  0.00  0.00     0.196 C 
HETATM   15  O           1     -22.324  -5.893  -2.278  0.00  0.00    -0.646 OA
HETATM   16  O           1     -20.827  -7.384  -1.807  0.00  0.00    -0.646 OA
ENDBRANCH  13  14
BRANCH  13  17
HETATM   17  C           1     -21.248  -8.861  -4.041  0.00  0.00     0.039 C 
BRANCH  17  18
HETATM   18 Se           1     -19.466  -8.948  -4.824  0.00  0.00     0.000 Se
HETATM   19  H           1     -19.792 -10.060  -5.733  0.00  0.00     0.000 HD
ENDBRANCH  17  18
ENDBRANCH  13  17
ENDBRANCH   1  13
TORSDOF 8
ENDMDL
MODEL 6
REMARK VINA RESULT:      -4.0     13.065     15.317
REMARK  8 active torsions:
REMARK  status: ('A' for Active; 'I' for Inactive)
REMARK    1  A    between atoms: C_3  and  C_19 
REMARK    2  A    between atoms: N_6  and  C_19 
REMARK       I    between atoms: N_6  and  C_7 
REMARK    3  A    between atoms: C_7  and  C_8 
REMARK    4  A    between atoms: C_8  and  C_9 
REMARK    5  A    between atoms: C_8  and  N_11 
REMARK    6  A    between atoms: C_9  and  Se_10 
REMARK    7  A    between atoms: Se_17  and  C_18 
REMARK    8  A    between atoms: C_18  and  C_19 
ROOT
HETATM    1  N           1     -22.176  -5.411  -7.400  0.00  0.00    -0.345 N 
HETATM    2  C           1     -22.382  -4.197  -8.000  0.00  0.00     0.249 C 
HETATM    3  O           1     -21.877  -3.202  -7.536  0.00  0.00    -0.271 OA
HETATM    4  H           1     -22.598  -6.245  -7.789  0.00  0.00     0.163 HD
ENDROOT
BRANCH   2   5
HETATM    5  C           1     -23.237  -4.103  -9.239  0.00  0.00     0.274 C 
BRANCH   5   6
HETATM    6  C           1     -22.533  -3.238 -10.278  0.00  0.00     0.045 C 
BRANCH   6   7
HETATM    7 Se           1     -21.618  -4.382 -11.563  0.00  0.00     0.000 Se
HETATM    8  H           1     -22.395  -5.584 -11.222  0.00  0.00     0.000 HD
ENDBRANCH   6   7
ENDBRANCH   5   6
BRANCH   5   9
HETATM    9  N           1     -24.558  -3.485  -8.888  0.00  0.00    -0.067 N 
HETATM   10  H           1     -24.755  -2.691  -9.538  0.00  0.00     0.275 HD
HETATM   11  H           1     -25.313  -4.203  -8.976  0.00  0.00     0.275 HD
HETATM   12  H           1     -24.526  -3.131  -7.905  0.00  0.00     0.275 HD
ENDBRANCH   5   9
ENDBRANCH   2   5
BRANCH   1  13
HETATM   13  C           1     -21.354  -5.501  -6.209  0.00  0.00     0.185 C 
BRANCH  13  14
HETATM   14  C           1     -19.928  -5.796  -6.605  0.00  0.00     0.196 C 
HETATM   15  O           1     -19.125  -4.858  -6.791  0.00  0.00    -0.646 OA
HETATM   16  O           1     -19.551  -6.980  -6.746  0.00  0.00    -0.646 OA
ENDBRANCH  13  14
BRANCH  13  17
HETATM   17  C           1     -21.877  -6.621  -5.318  0.00  0.00     0.039 C 
BRANCH  17  18
HETATM   18 Se           1     -21.397  -6.253  -3.465  0.00  0.00     0.000 Se
HETATM   19  H           1     -22.318  -7.256  -2.905  0.00  0.00     0.000 HD
ENDBRANCH  17  18
ENDBRANCH  13  17
ENDBRANCH   1  13
TORSDOF 8
ENDMDL
MODEL 7
REMARK VINA RESULT:      -4.0     14.097     15.597
REMARK  8 active torsions:
REMARK  status: ('A' for Active; 'I' for Inactive)
REMARK    1  A    between atoms: C_3  and  C_19 
REMARK    2  A    between atoms: N_6  and  C_19 
REMARK       I    between atoms: N_6  and  C_7 
REMARK    3  A    between atoms: C_7  and  C_8 
REMARK    4  A    between atoms: C_8  and  C_9 
REMARK    5  A    between atoms: C_8  and  N_11 
REMARK    6  A    between atoms: C_9  and  Se_10 
REMARK    7  A    between atoms: Se_17  and  C_18 
REMARK    8  A    between atoms: C_18  and  C_19 
ROOT
HETATM    1  N           1     -21.432  -5.068  -6.693  0.00  0.00    -0.345 N 
HETATM    2  C           1     -21.202  -6.276  -6.090  0.00  0.00     0.249 C 
HETATM    3  O           1     -21.132  -7.280  -6.757  0.00  0.00    -0.271 OA
HETATM    4  H           1     -21.489  -4.226  -6.134  0.00  0.00     0.163 HD
ENDROOT
BRANCH   2   5
HETATM    5  C           1     -21.036  -6.351  -4.592  0.00  0.00     0.274 C 
BRANCH   5   6
HETATM    6  C           1     -20.499  -7.725  -4.209  0.00  0.00     0.045 C 
BRANCH   6   7
HETATM    7 Se           1     -20.978  -8.119  -2.362  0.00  0.00     0.000 Se
HETATM    8  H           1     -20.363  -6.897  -1.820  0.00  0.00     0.000 HD
ENDBRANCH   6   7
ENDBRANCH   5   6
BRANCH   5   9
HETATM    9  N           1     -22.365  -6.133  -3.931  0.00  0.00    -0.067 N 
HETATM   10  H           1     -22.543  -5.108  -3.838  0.00  0.00     0.275 HD
HETATM   11  H           1     -23.118  -6.567  -4.511  0.00  0.00     0.275 HD
HETATM   12  H           1     -22.358  -6.573  -2.982  0.00  0.00     0.275 HD
ENDBRANCH   5   9
ENDBRANCH   2   5
BRANCH   1  13
HETATM   13  C           1     -21.591  -4.995  -8.132  0.00  0.00     0.185 C 
BRANCH  13  14
HETATM   14  C           1     -20.309  -4.500  -8.755  0.00  0.00     0.196 C 
HETATM   15  O           1     -19.542  -3.761  -8.102  0.00  0.00    -0.646 OA
HETATM   16  O           1     -20.014  -4.831  -9.924  0.00  0.00    -0.646 OA
ENDBRANCH  13  14
BRANCH  13  17
HETATM   17  C           1     -22.724  -4.034  -8.468  0.00  0.00     0.039 C 
BRANCH  17  18
HETATM   18 Se           1     -23.602  -4.611 -10.109  0.00  0.00     0.000 Se
HETATM   19  H           1     -22.872  -5.888 -10.188  0.00  0.00     0.000 HD
ENDBRANCH  17  18
ENDBRANCH  13  17
ENDBRANCH   1  13
TORSDOF 8
ENDMDL
MODEL 8
REMARK VINA RESULT:      -3.8     14.755     16.465
REMARK  8 active torsions:
REMARK  status: ('A' for Active; 'I' for Inactive)
REMARK    1  A    between atoms: C_3  and  C_19 
REMARK    2  A    between atoms: N_6  and  C_19 
REMARK       I    between atoms: N_6  and  C_7 
REMARK    3  A    between atoms: C_7  and  C_8 
REMARK    4  A    between atoms: C_8  and  C_9 
REMARK    5  A    between atoms: C_8  and  N_11 
REMARK    6  A    between atoms: C_9  and  Se_10 
REMARK    7  A    between atoms: Se_17  and  C_18 
REMARK    8  A    between atoms: C_18  and  C_19 
ROOT
HETATM    1  N           1     -21.357  -5.806  -6.175  0.00  0.00    -0.345 N 
HETATM    2  C           1     -20.509  -4.843  -6.653  0.00  0.00     0.249 C 
HETATM    3  O           1     -19.507  -4.563  -6.040  0.00  0.00    -0.271 OA
HETATM    4  H           1     -22.196  -6.042  -6.689  0.00  0.00     0.163 HD
ENDROOT
BRANCH   2   5
HETATM    5  C           1     -20.827  -4.133  -7.946  0.00  0.00     0.274 C 
BRANCH   5   6
HETATM    6  C           1     -22.311  -4.285  -8.258  0.00  0.00     0.045 C 
BRANCH   6   7
HETATM    7 Se           1     -22.648  -3.740 -10.098  0.00  0.00     0.000 Se
HETATM    8  H           1     -22.185  -2.358  -9.896  0.00  0.00     0.000 HD
ENDBRANCH   6   7
ENDBRANCH   5   6
BRANCH   5   9
HETATM    9  N           1     -20.019  -4.734  -9.057  0.00  0.00    -0.067 N 
HETATM   10  H           1     -20.647  -5.282  -9.688  0.00  0.00     0.275 HD
HETATM   11  H           1     -19.556  -3.973  -9.603  0.00  0.00     0.275 HD
HETATM   12  H           1     -19.291  -5.367  -8.655  0.00  0.00     0.275 HD
ENDBRANCH   5   9
ENDBRANCH   2   5
BRANCH   1  13
HETATM   13  C           1     -21.052  -6.488  -4.933  0.00  0.00     0.185 C 
BRANCH  13  14
HETATM   14  C           1     -20.529  -7.871  -5.234  0.00  0.00     0.196 C 
HETATM   15  O           1     -19.482  -8.276  -4.686  0.00  0.00    -0.646 OA
HETATM   16  O           1     -21.145  -8.611  -6.032  0.00  0.00    -0.646 OA
ENDBRANCH  13  14
BRANCH  13  17
HETATM   17  C           1     -22.316  -6.595  -4.090  0.00  0.00     0.039 C 
BRANCH  17  18
HETATM   18 Se           1     -21.872  -6.316  -2.213  0.00  0.00     0.000 Se
HETATM   19  H           1     -23.210  -6.687  -1.721  0.00  0.00     0.000 HD
ENDBRANCH  17  18
ENDBRANCH  13  17
ENDBRANCH   1  13
TORSDOF 8
ENDMDL
MODEL 9
REMARK VINA RESULT:      -3.7     16.777     18.359
REMARK  8 active torsions:
REMARK  status: ('A' for Active; 'I' for Inactive)
REMARK    1  A    between atoms: C_3  and  C_19 
REMARK    2  A    between atoms: N_6  and  C_19 
REMARK       I    between atoms: N_6  and  C_7 
REMARK    3  A    between atoms: C_7  and  C_8 
REMARK    4  A    between atoms: C_8  and  C_9 
REMARK    5  A    between atoms: C_8  and  N_11 
REMARK    6  A    between atoms: C_9  and  Se_10 
REMARK    7  A    between atoms: Se_17  and  C_18 
REMARK    8  A    between atoms: C_18  and  C_19 
ROOT
HETATM    1  N           1     -21.081  -7.972  -2.434  0.00  0.00    -0.345 N 
HETATM    2  C           1     -21.271  -8.267  -3.757  0.00  0.00     0.249 C 
HETATM    3  O           1     -21.932  -9.228  -4.073  0.00  0.00    -0.271 OA
HETATM    4  H           1     -20.528  -7.166  -2.170  0.00  0.00     0.163 HD
ENDROOT
BRANCH   2   5
HETATM    5  C           1     -20.656  -7.392  -4.822  0.00  0.00     0.274 C 
BRANCH   5   6
HETATM    6  C           1     -21.100  -5.949  -4.612  0.00  0.00     0.045 C 
BRANCH   6   7
HETATM    7 Se           1     -20.206  -4.799  -5.906  0.00  0.00     0.000 Se
HETATM    8  H           1     -20.662  -5.565  -7.076  0.00  0.00     0.000 HD
ENDBRANCH   6   7
ENDBRANCH   5   6
BRANCH   5   9
HETATM    9  N           1     -21.105  -7.861  -6.174  0.00  0.00    -0.067 N 
HETATM   10  H           1     -21.415  -7.040  -6.742  0.00  0.00     0.275 HD
HETATM   11  H           1     -20.311  -8.339  -6.658  0.00  0.00     0.275 HD
HETATM   12  H           1     -21.901  -8.529  -6.064  0.00  0.00     0.275 HD
ENDBRANCH   5   9
ENDBRANCH   2   5
BRANCH   1  13
HETATM   13  C           1     -21.672  -8.813  -1.411  0.00  0.00     0.185 C 
BRANCH  13  14
HETATM   14  C           1     -22.171  -7.950  -0.278  0.00  0.00     0.196 C 
HETATM   15  O           1     -21.843  -8.214   0.898  0.00  0.00    -0.646 OA
HETATM   16  O           1     -22.912  -6.972  -0.517  0.00  0.00    -0.646 OA
ENDBRANCH  13  14
BRANCH  13  17
HETATM   17  C           1     -20.623  -9.784  -0.887  0.00  0.00     0.039 C 
BRANCH  17  18
HETATM   18 Se           1     -21.359 -11.589  -0.870  0.00  0.00     0.000 Se
HETATM   19  H           1     -20.162 -12.197  -0.266  0.00  0.00     0.000 HD
ENDBRANCH  17  18
ENDBRANCH  13  17
ENDBRANCH   1  13
TORSDOF 8
ENDMDL
