MODEL 1
REMARK VINA RESULT:      -6.4      0.000      0.000
REMARK  5 active torsions:
REMARK  status: ('A' for Active; 'I' for Inactive)
REMARK    1  A    between atoms: C_1  and  C_11 
REMARK    2  A    between atoms: C_1  and  C_2 
REMARK    3  A    between atoms: N_5  and  C_11 
REMARK    4  A    between atoms: C_7  and  C_15 
REMARK    5  A    between atoms: C_11  and  C_14 
REMARK       I    between atoms: N_13  and  C_14 
ROOT
HETATM    1  O           1     -22.163  -3.877  -7.410  0.00  0.00    -0.271 OA
HETATM    2  N           1     -21.349  -4.280  -9.451  0.00  0.00    -0.336 N 
HETATM    3  C           1     -21.307  -4.394  -8.087  0.00  0.00     0.251 C 
HETATM    4  C           1     -22.348  -3.578 -10.253  0.00  0.00     0.188 C 
HETATM    5  C           1     -20.408  -4.834 -10.420  0.00  0.00     0.127 C 
HETATM    6  C           1     -20.254  -3.727 -11.449  0.00  0.00     0.022 C 
HETATM    7  C           1     -21.527  -2.898 -11.336  0.00  0.00     0.038 C 
ENDROOT
BRANCH   3   8
HETATM    8  C           1     -20.189  -5.166  -7.430  0.00  0.00     0.275 C 
BRANCH   8   9
HETATM    9  C           1     -20.526  -5.397  -5.963  0.00  0.00     0.046 C 
BRANCH   9  10
HETATM   10  C           1     -21.134  -6.783  -5.792  0.00  0.00    -0.020 C 
HETATM   11  C           1     -20.090  -7.727  -5.209  0.00  0.00     0.009 C 
HETATM   12  C           1     -22.327  -6.702  -4.850  0.00  0.00     0.009 C 
ENDBRANCH   9  10
ENDBRANCH   8   9
BRANCH   8  13
HETATM   13  N           1     -18.914  -4.382  -7.532  0.00  0.00    -0.066 N 
HETATM   14  H           1     -18.801  -4.027  -8.508  0.00  0.00     0.275 HD
HETATM   15  H           1     -18.106  -4.999  -7.291  0.00  0.00     0.275 HD
HETATM   16  H           1     -18.946  -3.576  -6.869  0.00  0.00     0.275 HD
ENDBRANCH   8  13
ENDBRANCH   3   8
BRANCH   4  17
HETATM   17  C           1     -23.333  -4.549 -10.856  0.00  0.00     0.196 C 
HETATM   18  O           1     -23.458  -4.622 -12.097  0.00  0.00    -0.646 OA
HETATM   19  O           1     -24.025  -5.279 -10.113  0.00  0.00    -0.646 OA
ENDBRANCH   4  17
TORSDOF 5
ENDMDL
MODEL 2
REMARK VINA RESULT:      -6.4     13.993     15.813
REMARK  5 active torsions:
REMARK  status: ('A' for Active; 'I' for Inactive)
REMARK    1  A    between atoms: C_1  and  C_11 
REMARK    2  A    between atoms: C_1  and  C_2 
REMARK    3  A    between atoms: N_5  and  C_11 
REMARK    4  A    between atoms: C_7  and  C_15 
REMARK    5  A    between atoms: C_11  and  C_14 
REMARK       I    between atoms: N_13  and  C_14 
ROOT
HETATM    1  O           1     -37.879  -0.754 -12.707  0.00  0.00    -0.271 OA
HETATM    2  N           1     -36.101   0.118 -13.740  0.00  0.00    -0.336 N 
HETATM    3  C           1     -36.733  -0.378 -12.631  0.00  0.00     0.251 C 
HETATM    4  C           1     -36.649   0.262 -15.086  0.00  0.00     0.188 C 
HETATM    5  C           1     -34.732   0.615 -13.835  0.00  0.00     0.127 C 
HETATM    6  C           1     -34.850   1.836 -14.731  0.00  0.00     0.022 C 
HETATM    7  C           1     -36.114   1.606 -15.551  0.00  0.00     0.038 C 
ENDROOT
BRANCH   3   8
HETATM    8  C           1     -36.000  -0.452 -11.314  0.00  0.00     0.275 C 
BRANCH   8   9
HETATM    9  C           1     -36.108  -1.863 -10.752  0.00  0.00     0.046 C 
BRANCH   9  10
HETATM   10  C           1     -34.993  -2.726 -11.327  0.00  0.00    -0.020 C 
HETATM   11  C           1     -33.654  -2.268 -10.762  0.00  0.00     0.009 C 
HETATM   12  C           1     -35.231  -4.182 -10.950  0.00  0.00     0.009 C 
ENDBRANCH   9  10
ENDBRANCH   8   9
BRANCH   8  13
HETATM   13  N           1     -36.611   0.519 -10.348  0.00  0.00    -0.066 N 
HETATM   14  H           1     -37.149  -0.005  -9.621  0.00  0.00     0.275 HD
HETATM   15  H           1     -37.256   1.162 -10.861  0.00  0.00     0.275 HD
HETATM   16  H           1     -35.856   1.077  -9.889  0.00  0.00     0.275 HD
ENDBRANCH   8  13
ENDBRANCH   3   8
BRANCH   4  17
HETATM   17  C           1     -36.166  -0.849 -15.986  0.00  0.00     0.196 C 
HETATM   18  O           1     -36.546  -0.899 -17.175  0.00  0.00    -0.646 OA
HETATM   19  O           1     -35.387  -1.719 -15.541  0.00  0.00    -0.646 OA
ENDBRANCH   4  17
TORSDOF 5
ENDMDL
MODEL 3
REMARK VINA RESULT:      -6.1      1.897      2.639
REMARK  5 active torsions:
REMARK  status: ('A' for Active; 'I' for Inactive)
REMARK    1  A    between atoms: C_1  and  C_11 
REMARK    2  A    between atoms: C_1  and  C_2 
REMARK    3  A    between atoms: N_5  and  C_11 
REMARK    4  A    between atoms: C_7  and  C_15 
REMARK    5  A    between atoms: C_11  and  C_14 
REMARK       I    between atoms: N_13  and  C_14 
ROOT
HETATM    1  O           1     -20.807  -5.870  -8.237  0.00  0.00    -0.271 OA
HETATM    2  N           1     -22.343  -4.487  -9.084  0.00  0.00    -0.336 N 
HETATM    3  C           1     -21.678  -5.059  -8.032  0.00  0.00     0.251 C 
HETATM    4  C           1     -22.132  -4.733 -10.508  0.00  0.00     0.188 C 
HETATM    5  C           1     -23.415  -3.497  -9.026  0.00  0.00     0.127 C 
HETATM    6  C           1     -24.382  -3.946 -10.108  0.00  0.00     0.022 C 
HETATM    7  C           1     -23.539  -4.763 -11.081  0.00  0.00     0.038 C 
ENDROOT
BRANCH   3   8
HETATM    8  C           1     -22.036  -4.677  -6.617  0.00  0.00     0.275 C 
BRANCH   8   9
HETATM    9  C           1     -21.078  -5.360  -5.649  0.00  0.00     0.046 C 
BRANCH   9  10
HETATM   10  C           1     -21.824  -6.433  -4.867  0.00  0.00    -0.020 C 
HETATM   11  C           1     -21.350  -7.809  -5.315  0.00  0.00     0.009 C 
HETATM   12  C           1     -21.547  -6.261  -3.379  0.00  0.00     0.009 C 
ENDBRANCH   9  10
ENDBRANCH   8   9
BRANCH   8  13
HETATM   13  N           1     -23.440  -5.116  -6.321  0.00  0.00    -0.066 N 
HETATM   14  H           1     -24.087  -4.716  -7.037  0.00  0.00     0.275 HD
HETATM   15  H           1     -23.719  -4.776  -5.373  0.00  0.00     0.275 HD
HETATM   16  H           1     -23.492  -6.159  -6.346  0.00  0.00     0.275 HD
ENDBRANCH   8  13
ENDBRANCH   3   8
BRANCH   4  17
HETATM   17  C           1     -21.322  -3.622 -11.131  0.00  0.00     0.196 C 
HETATM   18  O           1     -21.780  -2.986 -12.105  0.00  0.00    -0.646 OA
HETATM   19  O           1     -20.193  -3.340 -10.675  0.00  0.00    -0.646 OA
ENDBRANCH   4  17
TORSDOF 5
ENDMDL
MODEL 4
REMARK VINA RESULT:      -5.9     12.750     14.817
REMARK  5 active torsions:
REMARK  status: ('A' for Active; 'I' for Inactive)
REMARK    1  A    between atoms: C_1  and  C_11 
REMARK    2  A    between atoms: C_1  and  C_2 
REMARK    3  A    between atoms: N_5  and  C_11 
REMARK    4  A    between atoms: C_7  and  C_15 
REMARK    5  A    between atoms: C_11  and  C_14 
REMARK       I    between atoms: N_13  and  C_14 
ROOT
HETATM    1  O           1     -34.565  -2.998 -13.931  0.00  0.00    -0.271 OA
HETATM    2  N           1     -35.494  -1.191 -13.004  0.00  0.00    -0.336 N 
HETATM    3  C           1     -34.707  -2.310 -12.948  0.00  0.00     0.251 C 
HETATM    4  C           1     -36.230  -0.679 -14.157  0.00  0.00     0.188 C 
HETATM    5  C           1     -35.780  -0.250 -11.925  0.00  0.00     0.127 C 
HETATM    6  C           1     -37.255   0.065 -12.099  0.00  0.00     0.022 C 
HETATM    7  C           1     -37.553  -0.221 -13.566  0.00  0.00     0.038 C 
ENDROOT
BRANCH   3   8
HETATM    8  C           1     -34.020  -2.686 -11.659  0.00  0.00     0.275 C 
BRANCH   8   9
HETATM    9  C           1     -34.825  -3.766 -10.949  0.00  0.00     0.046 C 
BRANCH   9  10
HETATM   10  C           1     -33.900  -4.908 -10.547  0.00  0.00    -0.020 C 
HETATM   11  C           1     -34.698  -6.202 -10.463  0.00  0.00     0.009 C 
HETATM   12  C           1     -32.798  -5.059 -11.587  0.00  0.00     0.009 C 
ENDBRANCH   9  10
ENDBRANCH   8   9
BRANCH   8  13
HETATM   13  N           1     -33.921  -1.476 -10.776  0.00  0.00    -0.066 N 
HETATM   14  H           1     -34.881  -1.129 -10.553  0.00  0.00     0.275 HD
HETATM   15  H           1     -33.387  -0.727 -11.271  0.00  0.00     0.275 HD
HETATM   16  H           1     -33.427  -1.730  -9.891  0.00  0.00     0.275 HD
ENDBRANCH   8  13
ENDBRANCH   3   8
BRANCH   4  17
HETATM   17  C           1     -35.497   0.478 -14.791  0.00  0.00     0.196 C 
HETATM   18  O           1     -36.125   1.314 -15.476  0.00  0.00    -0.646 OA
HETATM   19  O           1     -34.263   0.599 -14.632  0.00  0.00    -0.646 OA
ENDBRANCH   4  17
TORSDOF 5
ENDMDL
MODEL 5
REMARK VINA RESULT:      -5.7      2.933      6.178
REMARK  5 active torsions:
REMARK  status: ('A' for Active; 'I' for Inactive)
REMARK    1  A    between atoms: C_1  and  C_11 
REMARK    2  A    between atoms: C_1  and  C_2 
REMARK    3  A    between atoms: N_5  and  C_11 
REMARK    4  A    between atoms: C_7  and  C_15 
REMARK    5  A    between atoms: C_11  and  C_14 
REMARK       I    between atoms: N_13  and  C_14 
ROOT
HETATM    1  O           1     -19.353  -6.702  -6.983  0.00  0.00    -0.271 OA
HETATM    2  N           1     -21.010  -6.826  -5.490  0.00  0.00    -0.336 N 
HETATM    3  C           1     -20.429  -6.297  -6.611  0.00  0.00     0.251 C 
HETATM    4  C           1     -20.480  -7.878  -4.627  0.00  0.00     0.188 C 
HETATM    5  C           1     -22.294  -6.463  -4.897  0.00  0.00     0.127 C 
HETATM    6  C           1     -22.021  -6.476  -3.403  0.00  0.00     0.022 C 
HETATM    7  C           1     -20.825  -7.403  -3.225  0.00  0.00     0.038 C 
ENDROOT
BRANCH   3   8
HETATM    8  C           1     -21.133  -5.207  -7.382  0.00  0.00     0.275 C 
BRANCH   8   9
HETATM    9  C           1     -20.519  -5.090  -8.771  0.00  0.00     0.046 C 
BRANCH   9  10
HETATM   10  C           1     -21.335  -4.113  -9.607  0.00  0.00    -0.020 C 
HETATM   11  C           1     -20.692  -3.960 -10.979  0.00  0.00     0.009 C 
HETATM   12  C           1     -22.753  -4.644  -9.767  0.00  0.00     0.009 C 
ENDBRANCH   9  10
ENDBRANCH   8   9
BRANCH   8  13
HETATM   13  N           1     -20.977  -3.903  -6.656  0.00  0.00    -0.066 N 
HETATM   14  H           1     -21.351  -3.998  -5.685  0.00  0.00     0.275 HD
HETATM   15  H           1     -21.508  -3.158  -7.161  0.00  0.00     0.275 HD
HETATM   16  H           1     -19.966  -3.644  -6.617  0.00  0.00     0.275 HD
ENDBRANCH   8  13
ENDBRANCH   3   8
BRANCH   4  17
HETATM   17  C           1     -21.143  -9.202  -4.923  0.00  0.00     0.196 C 
HETATM   18  O           1     -21.752  -9.811  -4.018  0.00  0.00    -0.646 OA
HETATM   19  O           1     -21.081  -9.688  -6.073  0.00  0.00    -0.646 OA
ENDBRANCH   4  17
TORSDOF 5
ENDMDL
MODEL 6
REMARK VINA RESULT:      -5.7      5.450      7.599
REMARK  5 active torsions:
REMARK  status: ('A' for Active; 'I' for Inactive)
REMARK    1  A    between atoms: C_1  and  C_11 
REMARK    2  A    between atoms: C_1  and  C_2 
REMARK    3  A    between atoms: N_5  and  C_11 
REMARK    4  A    between atoms: C_7  and  C_15 
REMARK    5  A    between atoms: C_11  and  C_14 
REMARK       I    between atoms: N_13  and  C_14 
ROOT
HETATM    1  O           1     -19.823  -8.019  -1.346  0.00  0.00    -0.271 OA
HETATM    2  N           1     -20.961  -8.554  -3.191  0.00  0.00    -0.336 N 
HETATM    3  C           1     -20.481  -8.838  -1.941  0.00  0.00     0.251 C 
HETATM    4  C           1     -20.781  -7.321  -3.953  0.00  0.00     0.188 C 
HETATM    5  C           1     -21.766  -9.415  -4.053  0.00  0.00     0.127 C 
HETATM    6  C           1     -21.191  -9.182  -5.439  0.00  0.00     0.022 C 
HETATM    7  C           1     -20.539  -7.806  -5.373  0.00  0.00     0.038 C 
ENDROOT
BRANCH   3   8
HETATM    8  C           1     -20.772 -10.177  -1.308  0.00  0.00     0.275 C 
BRANCH   8   9
HETATM    9  C           1     -21.524  -9.967  -0.001  0.00  0.00     0.046 C 
BRANCH   9  10
HETATM   10  C           1     -22.926  -9.451  -0.298  0.00  0.00    -0.020 C 
HETATM   11  C           1     -23.941 -10.552  -0.020  0.00  0.00     0.009 C 
HETATM   12  C           1     -23.223  -8.251   0.591  0.00  0.00     0.009 C 
ENDBRANCH   9  10
ENDBRANCH   8   9
BRANCH   8  13
HETATM   13  N           1     -19.480 -10.890  -1.033  0.00  0.00    -0.066 N 
HETATM   14  H           1     -18.728 -10.188  -0.852  0.00  0.00     0.275 HD
HETATM   15  H           1     -19.221 -11.472  -1.861  0.00  0.00     0.275 HD
HETATM   16  H           1     -19.593 -11.505  -0.197  0.00  0.00     0.275 HD
ENDBRANCH   8  13
ENDBRANCH   3   8
BRANCH   4  17
HETATM   17  C           1     -22.019  -6.460  -3.884  0.00  0.00     0.196 C 
HETATM   18  O           1     -22.454  -6.081  -2.776  0.00  0.00    -0.646 OA
HETATM   19  O           1     -22.607  -6.127  -4.935  0.00  0.00    -0.646 OA
ENDBRANCH   4  17
TORSDOF 5
ENDMDL
MODEL 7
REMARK VINA RESULT:      -5.5      8.035     10.422
REMARK  5 active torsions:
REMARK  status: ('A' for Active; 'I' for Inactive)
REMARK    1  A    between atoms: C_1  and  C_11 
REMARK    2  A    between atoms: C_1  and  C_2 
REMARK    3  A    between atoms: N_5  and  C_11 
REMARK    4  A    between atoms: C_7  and  C_15 
REMARK    5  A    between atoms: C_11  and  C_14 
REMARK       I    between atoms: N_13  and  C_14 
ROOT
HETATM    1  O           1     -20.593 -10.370   1.268  0.00  0.00    -0.271 OA
HETATM    2  N           1     -21.292  -9.708  -0.747  0.00  0.00    -0.336 N 
HETATM    3  C           1     -21.035 -10.676   0.186  0.00  0.00     0.251 C 
HETATM    4  C           1     -21.097  -8.267  -0.610  0.00  0.00     0.188 C 
HETATM    5  C           1     -21.823  -9.890  -2.095  0.00  0.00     0.127 C 
HETATM    6  C           1     -21.019  -8.914  -2.937  0.00  0.00     0.022 C 
HETATM    7  C           1     -20.537  -7.849  -1.959  0.00  0.00     0.038 C 
ENDROOT
BRANCH   3   8
HETATM    8  C           1     -21.303 -12.125  -0.137  0.00  0.00     0.275 C 
BRANCH   8   9
HETATM    9  C           1     -21.695 -12.865   1.135  0.00  0.00     0.046 C 
BRANCH   9  10
HETATM   10  C           1     -23.205 -13.062   1.164  0.00  0.00    -0.020 C 
HETATM   11  C           1     -23.671 -13.608  -0.179  0.00  0.00     0.009 C 
HETATM   12  C           1     -23.567 -14.049   2.266  0.00  0.00     0.009 C 
ENDBRANCH   9  10
ENDBRANCH   8   9
BRANCH   8  13
HETATM   13  N           1     -20.064 -12.745  -0.714  0.00  0.00    -0.066 N 
HETATM   14  H           1     -19.696 -12.138  -1.480  0.00  0.00     0.275 HD
HETATM   15  H           1     -20.294 -13.689  -1.099  0.00  0.00     0.275 HD
HETATM   16  H           1     -19.342 -12.841   0.034  0.00  0.00     0.275 HD
ENDBRANCH   8  13
ENDBRANCH   3   8
BRANCH   4  17
HETATM   17  C           1     -22.407  -7.570  -0.333  0.00  0.00     0.196 C 
HETATM   18  O           1     -23.170  -8.005   0.555  0.00  0.00    -0.646 OA
HETATM   19  O           1     -22.727  -6.558  -0.993  0.00  0.00    -0.646 OA
ENDBRANCH   4  17
TORSDOF 5
ENDMDL
MODEL 8
REMARK VINA RESULT:      -5.5      9.256     11.217
REMARK  5 active torsions:
REMARK  status: ('A' for Active; 'I' for Inactive)
REMARK    1  A    between atoms: C_1  and  C_11 
REMARK    2  A    between atoms: C_1  and  C_2 
REMARK    3  A    between atoms: N_5  and  C_11 
REMARK    4  A    between atoms: C_7  and  C_15 
REMARK    5  A    between atoms: C_11  and  C_14 
REMARK       I    between atoms: N_13  and  C_14 
ROOT
HETATM    1  O           1     -27.369  -7.458 -15.063  0.00  0.00    -0.271 OA
HETATM    2  N           1     -28.194  -6.184 -16.701  0.00  0.00    -0.336 N 
HETATM    3  C           1     -27.152  -6.713 -15.990  0.00  0.00     0.251 C 
HETATM    4  C           1     -29.621  -6.407 -16.486  0.00  0.00     0.188 C 
HETATM    5  C           1     -28.123  -5.274 -17.841  0.00  0.00     0.127 C 
HETATM    6  C           1     -29.253  -4.291 -17.593  0.00  0.00     0.022 C 
HETATM    7  C           1     -30.238  -5.034 -16.698  0.00  0.00     0.038 C 
ENDROOT
BRANCH   3   8
HETATM    8  C           1     -25.731  -6.366 -16.361  0.00  0.00     0.275 C 
BRANCH   8   9
HETATM    9  C           1     -25.205  -7.385 -17.364  0.00  0.00     0.046 C 
BRANCH   9  10
HETATM   10  C           1     -24.593  -6.658 -18.554  0.00  0.00    -0.020 C 
HETATM   11  C           1     -23.170  -7.155 -18.775  0.00  0.00     0.009 C 
HETATM   12  C           1     -25.426  -6.934 -19.799  0.00  0.00     0.009 C 
ENDBRANCH   9  10
ENDBRANCH   8   9
BRANCH   8  13
HETATM   13  N           1     -24.873  -6.388 -15.130  0.00  0.00    -0.066 N 
HETATM   14  H           1     -23.911  -6.708 -15.383  0.00  0.00     0.275 HD
HETATM   15  H           1     -25.286  -7.046 -14.431  0.00  0.00     0.275 HD
HETATM   16  H           1     -24.827  -5.428 -14.721  0.00  0.00     0.275 HD
ENDBRANCH   8  13
ENDBRANCH   3   8
BRANCH   4  17
HETATM   17  C           1     -30.167  -7.399 -17.484  0.00  0.00     0.196 C 
HETATM   18  O           1     -31.254  -7.174 -18.058  0.00  0.00    -0.646 OA
HETATM   19  O           1     -29.532  -8.446 -17.734  0.00  0.00    -0.646 OA
ENDBRANCH   4  17
TORSDOF 5
ENDMDL
MODEL 9
REMARK VINA RESULT:      -5.3     10.196     12.050
REMARK  5 active torsions:
REMARK  status: ('A' for Active; 'I' for Inactive)
REMARK    1  A    between atoms: C_1  and  C_11 
REMARK    2  A    between atoms: C_1  and  C_2 
REMARK    3  A    between atoms: N_5  and  C_11 
REMARK    4  A    between atoms: C_7  and  C_15 
REMARK    5  A    between atoms: C_11  and  C_14 
REMARK       I    between atoms: N_13  and  C_14 
ROOT
HETATM    1  O           1     -24.872  -6.442 -17.457  0.00  0.00    -0.271 OA
HETATM    2  N           1     -27.047  -6.050 -17.779  0.00  0.00    -0.336 N 
HETATM    3  C           1     -25.827  -6.515 -18.193  0.00  0.00     0.251 C 
HETATM    4  C           1     -27.377  -5.442 -16.493  0.00  0.00     0.188 C 
HETATM    5  C           1     -28.301  -6.056 -18.526  0.00  0.00     0.127 C 
HETATM    6  C           1     -28.926  -4.711 -18.197  0.00  0.00     0.022 C 
HETATM    7  C           1     -28.315  -4.305 -16.861  0.00  0.00     0.038 C 
ENDROOT
BRANCH   3   8
HETATM    8  C           1     -25.677  -7.117 -19.568  0.00  0.00     0.275 C 
BRANCH   8   9
HETATM    9  C           1     -24.207  -7.106 -19.969  0.00  0.00     0.046 C 
BRANCH   9  10
HETATM   10  C           1     -23.962  -8.169 -21.032  0.00  0.00    -0.020 C 
HETATM   11  C           1     -24.232  -7.580 -22.410  0.00  0.00     0.009 C 
HETATM   12  C           1     -22.516  -8.639 -20.955  0.00  0.00     0.009 C 
ENDBRANCH   9  10
ENDBRANCH   8   9
BRANCH   8  13
HETATM   13  N           1     -26.470  -6.313 -20.555  0.00  0.00    -0.066 N 
HETATM   14  H           1     -27.486  -6.377 -20.319  0.00  0.00     0.275 HD
HETATM   15  H           1     -26.313  -6.689 -21.517  0.00  0.00     0.275 HD
HETATM   16  H           1     -26.165  -5.315 -20.517  0.00  0.00     0.275 HD
ENDBRANCH   8  13
ENDBRANCH   3   8
BRANCH   4  17
HETATM   17  C           1     -28.066  -6.435 -15.589  0.00  0.00     0.196 C 
HETATM   18  O           1     -27.523  -7.532 -15.336  0.00  0.00    -0.646 OA
HETATM   19  O           1     -29.181  -6.160 -15.095  0.00  0.00    -0.646 OA
ENDBRANCH   4  17
TORSDOF 5
ENDMDL
