MODEL 1
REMARK VINA RESULT:      -7.0      0.000      0.000
REMARK  8 active torsions:
REMARK  status: ('A' for Active; 'I' for Inactive)
REMARK    1  A    between atoms: C_1  and  O_8 
REMARK    2  A    between atoms: C_1  and  C_9 
REMARK    3  A    between atoms: N_4  and  C_21 
REMARK    4  A    between atoms: C_7  and  C_12 
REMARK    5  A    between atoms: C_9  and  C_14 
REMARK    6  A    between atoms: C_9  and  N_19 
REMARK    7  A    between atoms: C_12  and  C_21 
REMARK       I    between atoms: N_19  and  C_20 
REMARK    8  A    between atoms: C_20  and  C_21 
ROOT
HETATM    1  O           1     -36.506  -1.508 -12.282  0.00  0.00    -0.271 OA
HETATM    2  H           1     -34.120  -1.281 -14.306  0.00  0.00     0.163 HD
HETATM    3  N           1     -35.062  -1.173 -13.952  0.00  0.00    -0.343 N 
HETATM    4  C           1     -35.382  -1.637 -12.705  0.00  0.00     0.249 C 
ENDROOT
BRANCH   4   5
HETATM    5  C           1     -34.330  -2.308 -11.857  0.00  0.00     0.275 C 
BRANCH   5   6
HETATM    6  N           1     -34.046  -1.461 -10.651  0.00  0.00    -0.066 N 
HETATM    7  H           1     -34.785  -0.729 -10.557  0.00  0.00     0.275 HD
HETATM    8  H           1     -34.042  -2.062  -9.797  0.00  0.00     0.275 HD
HETATM    9  H           1     -33.114  -1.002 -10.760  0.00  0.00     0.275 HD
ENDBRANCH   5   6
BRANCH   5  10
HETATM   10  C           1     -34.832  -3.674 -11.410  0.00  0.00     0.046 C 
BRANCH  10  11
HETATM   11  C           1     -33.659  -4.506 -10.906  0.00  0.00    -0.020 C 
HETATM   12  C           1     -32.544  -4.493 -11.944  0.00  0.00     0.009 C 
HETATM   13  C           1     -34.117  -5.940 -10.671  0.00  0.00     0.009 C 
ENDBRANCH  10  11
ENDBRANCH   5  10
ENDBRANCH   4   5
BRANCH   3  14
HETATM   14  C           1     -36.074  -0.528 -14.767  0.00  0.00     0.214 C 
BRANCH  14  15
HETATM   15  C           1     -35.932   0.984 -14.649  0.00  0.00     0.147 C 
HETATM   16  C           1     -34.570   1.321 -14.056  0.00  0.00     0.042 C 
BRANCH  15  17
HETATM   17  O           1     -36.044   1.564 -15.921  0.00  0.00    -0.393 OA
HETATM   18  H           1     -36.662   1.043 -16.405  0.00  0.00     0.210 HD
ENDBRANCH  15  17
ENDBRANCH  14  15
BRANCH  14  19
HETATM   19  C           1     -35.896  -0.939 -16.207  0.00  0.00     0.199 C 
HETATM   20  O           1     -34.806  -1.418 -16.591  0.00  0.00    -0.646 OA
HETATM   21  O           1     -36.838  -0.801 -17.018  0.00  0.00    -0.646 OA
ENDBRANCH  14  19
ENDBRANCH   3  14
TORSDOF 8
ENDMDL
MODEL 2
REMARK VINA RESULT:      -6.3      2.004      3.517
REMARK  8 active torsions:
REMARK  status: ('A' for Active; 'I' for Inactive)
REMARK    1  A    between atoms: C_1  and  O_8 
REMARK    2  A    between atoms: C_1  and  C_9 
REMARK    3  A    between atoms: N_4  and  C_21 
REMARK    4  A    between atoms: C_7  and  C_12 
REMARK    5  A    between atoms: C_9  and  C_14 
REMARK    6  A    between atoms: C_9  and  N_19 
REMARK    7  A    between atoms: C_12  and  C_21 
REMARK       I    between atoms: N_19  and  C_20 
REMARK    8  A    between atoms: C_20  and  C_21 
ROOT
HETATM    1  O           1     -33.610  -1.838 -10.579  0.00  0.00    -0.271 OA
HETATM    2  H           1     -35.787  -2.487 -12.743  0.00  0.00     0.163 HD
HETATM    3  N           1     -35.274  -1.937 -12.064  0.00  0.00    -0.343 N 
HETATM    4  C           1     -34.223  -2.493 -11.388  0.00  0.00     0.249 C 
ENDROOT
BRANCH   4   5
HETATM    5  C           1     -33.827  -3.925 -11.652  0.00  0.00     0.275 C 
BRANCH   5   6
HETATM    6  N           1     -32.365  -3.986 -11.985  0.00  0.00    -0.066 N 
HETATM    7  H           1     -32.108  -3.164 -12.576  0.00  0.00     0.275 HD
HETATM    8  H           1     -31.806  -3.967 -11.102  0.00  0.00     0.275 HD
HETATM    9  H           1     -32.164  -4.867 -12.508  0.00  0.00     0.275 HD
ENDBRANCH   5   6
BRANCH   5  10
HETATM   10  C           1     -34.101  -4.766 -10.413  0.00  0.00     0.046 C 
BRANCH  10  11
HETATM   11  C           1     -34.237  -6.231 -10.812  0.00  0.00    -0.020 C 
HETATM   12  C           1     -35.124  -6.339 -12.045  0.00  0.00     0.009 C 
HETATM   13  C           1     -34.863  -7.013  -9.665  0.00  0.00     0.009 C 
ENDBRANCH  10  11
ENDBRANCH   5  10
ENDBRANCH   4   5
BRANCH   3  14
HETATM   14  C           1     -35.653  -0.561 -11.810  0.00  0.00     0.214 C 
BRANCH  14  15
HETATM   15  C           1     -36.193   0.062 -13.091  0.00  0.00     0.147 C 
HETATM   16  C           1     -35.032   0.586 -13.927  0.00  0.00     0.042 C 
BRANCH  15  17
HETATM   17  O           1     -36.895  -0.908 -13.822  0.00  0.00    -0.393 OA
HETATM   18  H           1     -36.256  -1.396 -14.313  0.00  0.00     0.210 HD
ENDBRANCH  15  17
ENDBRANCH  14  15
BRANCH  14  19
HETATM   19  C           1     -36.721  -0.523 -10.745  0.00  0.00     0.199 C 
HETATM   20  O           1     -36.479   0.001  -9.635  0.00  0.00    -0.646 OA
HETATM   21  O           1     -37.848  -1.016 -10.970  0.00  0.00    -0.646 OA
ENDBRANCH  14  19
ENDBRANCH   3  14
TORSDOF 8
ENDMDL
MODEL 3
REMARK VINA RESULT:      -6.0     10.284     12.095
REMARK  8 active torsions:
REMARK  status: ('A' for Active; 'I' for Inactive)
REMARK    1  A    between atoms: C_1  and  O_8 
REMARK    2  A    between atoms: C_1  and  C_9 
REMARK    3  A    between atoms: N_4  and  C_21 
REMARK    4  A    between atoms: C_7  and  C_12 
REMARK    5  A    between atoms: C_9  and  C_14 
REMARK    6  A    between atoms: C_9  and  N_19 
REMARK    7  A    between atoms: C_12  and  C_21 
REMARK       I    between atoms: N_19  and  C_20 
REMARK    8  A    between atoms: C_20  and  C_21 
ROOT
HETATM    1  O           1     -27.025  -6.584 -20.167  0.00  0.00    -0.271 OA
HETATM    2  H           1     -26.086  -6.399 -17.180  0.00  0.00     0.163 HD
HETATM    3  N           1     -26.724  -6.372 -17.965  0.00  0.00    -0.343 N 
HETATM    4  C           1     -26.264  -6.616 -19.230  0.00  0.00     0.249 C 
ENDROOT
BRANCH   4   5
HETATM    5  C           1     -24.803  -6.925 -19.456  0.00  0.00     0.275 C 
BRANCH   5   6
HETATM    6  N           1     -24.194  -7.417 -18.176  0.00  0.00    -0.066 N 
HETATM    7  H           1     -23.273  -7.867 -18.378  0.00  0.00     0.275 HD
HETATM    8  H           1     -24.052  -6.612 -17.526  0.00  0.00     0.275 HD
HETATM    9  H           1     -24.833  -8.115 -17.732  0.00  0.00     0.275 HD
ENDBRANCH   5   6
BRANCH   5  10
HETATM   10  C           1     -24.671  -7.999 -20.527  0.00  0.00     0.046 C 
BRANCH  10  11
HETATM   11  C           1     -23.469  -7.688 -21.412  0.00  0.00    -0.020 C 
HETATM   12  C           1     -23.891  -7.735 -22.874  0.00  0.00     0.009 C 
HETATM   13  C           1     -22.377  -8.720 -21.165  0.00  0.00     0.009 C 
ENDBRANCH  10  11
ENDBRANCH   5  10
ENDBRANCH   4   5
BRANCH   3  14
HETATM   14  C           1     -28.127  -6.075 -17.749  0.00  0.00     0.214 C 
BRANCH  14  15
HETATM   15  C           1     -28.635  -6.868 -16.552  0.00  0.00     0.147 C 
HETATM   16  C           1     -27.460  -7.250 -15.662  0.00  0.00     0.042 C 
BRANCH  15  17
HETATM   17  O           1     -29.539  -6.083 -15.822  0.00  0.00    -0.393 OA
HETATM   18  H           1     -29.438  -6.319 -14.916  0.00  0.00     0.210 HD
ENDBRANCH  15  17
ENDBRANCH  14  15
BRANCH  14  19
HETATM   19  C           1     -28.292  -4.599 -17.482  0.00  0.00     0.199 C 
HETATM   20  O           1     -27.532  -4.021 -16.675  0.00  0.00    -0.646 OA
HETATM   21  O           1     -29.190  -3.954 -18.067  0.00  0.00    -0.646 OA
ENDBRANCH  14  19
ENDBRANCH   3  14
TORSDOF 8
ENDMDL
MODEL 4
REMARK VINA RESULT:      -5.9      4.030      6.041
REMARK  8 active torsions:
REMARK  status: ('A' for Active; 'I' for Inactive)
REMARK    1  A    between atoms: C_1  and  O_8 
REMARK    2  A    between atoms: C_1  and  C_9 
REMARK    3  A    between atoms: N_4  and  C_21 
REMARK    4  A    between atoms: C_7  and  C_12 
REMARK    5  A    between atoms: C_9  and  C_14 
REMARK    6  A    between atoms: C_9  and  N_19 
REMARK    7  A    between atoms: C_12  and  C_21 
REMARK       I    between atoms: N_19  and  C_20 
REMARK    8  A    between atoms: C_20  and  C_21 
ROOT
HETATM    1  O           1     -34.990  -4.926 -15.432  0.00  0.00    -0.271 OA
HETATM    2  H           1     -32.388  -3.659 -14.222  0.00  0.00     0.163 HD
HETATM    3  N           1     -33.336  -4.016 -14.242  0.00  0.00    -0.343 N 
HETATM    4  C           1     -33.861  -4.500 -15.409  0.00  0.00     0.249 C 
ENDROOT
BRANCH   4   5
HETATM    5  C           1     -33.027  -4.504 -16.667  0.00  0.00     0.275 C 
BRANCH   5   6
HETATM    6  N           1     -33.197  -3.197 -17.383  0.00  0.00    -0.066 N 
HETATM    7  H           1     -32.380  -3.035 -18.013  0.00  0.00     0.275 HD
HETATM    8  H           1     -34.074  -3.223 -17.951  0.00  0.00     0.275 HD
HETATM    9  H           1     -33.257  -2.423 -16.684  0.00  0.00     0.275 HD
ENDBRANCH   5   6
BRANCH   5  10
HETATM   10  C           1     -31.561  -4.697 -16.305  0.00  0.00     0.046 C 
BRANCH  10  11
HETATM   11  C           1     -30.793  -5.171 -17.533  0.00  0.00    -0.020 C 
HETATM   12  C           1     -30.318  -6.602 -17.314  0.00  0.00     0.009 C 
HETATM   13  C           1     -29.588  -4.266 -17.759  0.00  0.00     0.009 C 
ENDBRANCH  10  11
ENDBRANCH   5  10
ENDBRANCH   4   5
BRANCH   3  14
HETATM   14  C           1     -34.137  -4.012 -13.033  0.00  0.00     0.214 C 
BRANCH  14  15
HETATM   15  C           1     -33.287  -4.481 -11.859  0.00  0.00     0.147 C 
HETATM   16  C           1     -33.957  -5.676 -11.193  0.00  0.00     0.042 C 
BRANCH  15  17
HETATM   17  O           1     -32.017  -4.855 -12.323  0.00  0.00    -0.393 OA
HETATM   18  H           1     -31.927  -5.778 -12.158  0.00  0.00     0.210 HD
ENDBRANCH  15  17
ENDBRANCH  14  15
BRANCH  14  19
HETATM   19  C           1     -34.637  -2.614 -12.765  0.00  0.00     0.199 C 
HETATM   20  O           1     -35.020  -1.895 -13.714  0.00  0.00    -0.646 OA
HETATM   21  O           1     -34.667  -2.174 -11.595  0.00  0.00    -0.646 OA
ENDBRANCH  14  19
ENDBRANCH   3  14
TORSDOF 8
ENDMDL
MODEL 5
REMARK VINA RESULT:      -5.8      1.556      2.446
REMARK  8 active torsions:
REMARK  status: ('A' for Active; 'I' for Inactive)
REMARK    1  A    between atoms: C_1  and  O_8 
REMARK    2  A    between atoms: C_1  and  C_9 
REMARK    3  A    between atoms: N_4  and  C_21 
REMARK    4  A    between atoms: C_7  and  C_12 
REMARK    5  A    between atoms: C_9  and  C_14 
REMARK    6  A    between atoms: C_9  and  N_19 
REMARK    7  A    between atoms: C_12  and  C_21 
REMARK       I    between atoms: N_19  and  C_20 
REMARK    8  A    between atoms: C_20  and  C_21 
ROOT
HETATM    1  O           1     -34.630   0.824 -13.025  0.00  0.00    -0.271 OA
HETATM    2  H           1     -35.876  -1.807 -14.195  0.00  0.00     0.163 HD
HETATM    3  N           1     -35.571  -0.841 -14.177  0.00  0.00    -0.343 N 
HETATM    4  C           1     -34.995  -0.327 -13.047  0.00  0.00     0.249 C 
ENDROOT
BRANCH   4   5
HETATM    5  C           1     -34.815  -1.198 -11.828  0.00  0.00     0.275 C 
BRANCH   5   6
HETATM    6  N           1     -35.704  -0.703 -10.725  0.00  0.00    -0.066 N 
HETATM    7  H           1     -35.261   0.123 -10.265  0.00  0.00     0.275 HD
HETATM    8  H           1     -36.629  -0.425 -11.123  0.00  0.00     0.275 HD
HETATM    9  H           1     -35.840  -1.463 -10.021  0.00  0.00     0.275 HD
ENDBRANCH   5   6
BRANCH   5  10
HETATM   10  C           1     -35.183  -2.635 -12.171  0.00  0.00     0.046 C 
BRANCH  10  11
HETATM   11  C           1     -33.917  -3.480 -12.247  0.00  0.00    -0.020 C 
HETATM   12  C           1     -34.265  -4.940 -11.990  0.00  0.00     0.009 C 
HETATM   13  C           1     -32.925  -3.002 -11.194  0.00  0.00     0.009 C 
ENDBRANCH  10  11
ENDBRANCH   5  10
ENDBRANCH   4   5
BRANCH   3  14
HETATM   14  C           1     -35.744  -0.004 -15.348  0.00  0.00     0.214 C 
BRANCH  14  15
HETATM   15  C           1     -35.430  -0.812 -16.601  0.00  0.00     0.147 C 
HETATM   16  C           1     -34.981  -2.212 -16.202  0.00  0.00     0.042 C 
BRANCH  15  17
HETATM   17  O           1     -36.579  -0.899 -17.400  0.00  0.00    -0.393 OA
HETATM   18  H           1     -36.347  -1.408 -18.158  0.00  0.00     0.210 HD
ENDBRANCH  15  17
ENDBRANCH  14  15
BRANCH  14  19
HETATM   19  C           1     -37.170   0.485 -15.410  0.00  0.00     0.199 C 
HETATM   20  O           1     -37.453   1.504 -16.078  0.00  0.00    -0.646 OA
HETATM   21  O           1     -38.068  -0.127 -14.792  0.00  0.00    -0.646 OA
ENDBRANCH  14  19
ENDBRANCH   3  14
TORSDOF 8
ENDMDL
MODEL 6
REMARK VINA RESULT:      -5.7      9.788     11.342
REMARK  8 active torsions:
REMARK  status: ('A' for Active; 'I' for Inactive)
REMARK    1  A    between atoms: C_1  and  O_8 
REMARK    2  A    between atoms: C_1  and  C_9 
REMARK    3  A    between atoms: N_4  and  C_21 
REMARK    4  A    between atoms: C_7  and  C_12 
REMARK    5  A    between atoms: C_9  and  C_14 
REMARK    6  A    between atoms: C_9  and  N_19 
REMARK    7  A    between atoms: C_12  and  C_21 
REMARK       I    between atoms: N_19  and  C_20 
REMARK    8  A    between atoms: C_20  and  C_21 
ROOT
HETATM    1  O           1     -25.868  -6.226 -16.757  0.00  0.00    -0.271 OA
HETATM    2  H           1     -27.626  -6.449 -19.345  0.00  0.00     0.163 HD
HETATM    3  N           1     -27.418  -6.350 -18.359  0.00  0.00    -0.343 N 
HETATM    4  C           1     -26.118  -6.345 -17.932  0.00  0.00     0.249 C 
ENDROOT
BRANCH   4   5
HETATM    5  C           1     -24.995  -6.488 -18.930  0.00  0.00     0.275 C 
BRANCH   5   6
HETATM    6  N           1     -24.240  -7.755 -18.655  0.00  0.00    -0.066 N 
HETATM    7  H           1     -23.254  -7.524 -18.397  0.00  0.00     0.275 HD
HETATM    8  H           1     -24.695  -8.266 -17.866  0.00  0.00     0.275 HD
HETATM    9  H           1     -24.245  -8.355 -19.510  0.00  0.00     0.275 HD
ENDBRANCH   5   6
BRANCH   5  10
HETATM   10  C           1     -25.569  -6.535 -20.340  0.00  0.00     0.046 C 
BRANCH  10  11
HETATM   11  C           1     -25.334  -7.917 -20.938  0.00  0.00    -0.020 C 
HETATM   12  C           1     -24.419  -7.795 -22.150  0.00  0.00     0.009 C 
HETATM   13  C           1     -26.666  -8.518 -21.366  0.00  0.00     0.009 C 
ENDBRANCH  10  11
ENDBRANCH   5  10
ENDBRANCH   4   5
BRANCH   3  14
HETATM   14  C           1     -28.496  -6.213 -17.400  0.00  0.00     0.214 C 
BRANCH  14  15
HETATM   15  C           1     -29.180  -4.865 -17.595  0.00  0.00     0.147 C 
HETATM   16  C           1     -28.406  -3.791 -16.843  0.00  0.00     0.042 C 
BRANCH  15  17
HETATM   17  O           1     -29.211  -4.551 -18.961  0.00  0.00    -0.393 OA
HETATM   18  H           1     -28.638  -5.159 -19.395  0.00  0.00     0.210 HD
ENDBRANCH  15  17
ENDBRANCH  14  15
BRANCH  14  19
HETATM   19  C           1     -29.499  -7.320 -17.610  0.00  0.00     0.199 C 
HETATM   20  O           1     -29.391  -8.390 -16.972  0.00  0.00    -0.646 OA
HETATM   21  O           1     -30.438  -7.169 -18.421  0.00  0.00    -0.646 OA
ENDBRANCH  14  19
ENDBRANCH   3  14
TORSDOF 8
ENDMDL
MODEL 7
REMARK VINA RESULT:      -5.2     17.440     18.784
REMARK  8 active torsions:
REMARK  status: ('A' for Active; 'I' for Inactive)
REMARK    1  A    between atoms: C_1  and  O_8 
REMARK    2  A    between atoms: C_1  and  C_9 
REMARK    3  A    between atoms: N_4  and  C_21 
REMARK    4  A    between atoms: C_7  and  C_12 
REMARK    5  A    between atoms: C_9  and  C_14 
REMARK    6  A    between atoms: C_9  and  N_19 
REMARK    7  A    between atoms: C_12  and  C_21 
REMARK       I    between atoms: N_19  and  C_20 
REMARK    8  A    between atoms: C_20  and  C_21 
ROOT
HETATM    1  O           1     -22.385 -10.373  -3.537  0.00  0.00    -0.271 OA
HETATM    2  H           1     -20.525  -8.139  -2.357  0.00  0.00     0.163 HD
HETATM    3  N           1     -21.171  -8.577  -3.002  0.00  0.00    -0.343 N 
HETATM    4  C           1     -21.614  -9.850  -2.768  0.00  0.00     0.249 C 
ENDROOT
BRANCH   4   5
HETATM    5  C           1     -21.142 -10.602  -1.547  0.00  0.00     0.275 C 
BRANCH   5   6
HETATM    6  N           1     -19.654 -10.782  -1.617  0.00  0.00    -0.066 N 
HETATM    7  H           1     -19.298 -10.396  -2.521  0.00  0.00     0.275 HD
HETATM    8  H           1     -19.204 -10.276  -0.822  0.00  0.00     0.275 HD
HETATM    9  H           1     -19.424 -11.799  -1.560  0.00  0.00     0.275 HD
ENDBRANCH   5   6
BRANCH   5  10
HETATM   10  C           1     -21.499  -9.813  -0.294  0.00  0.00     0.046 C 
BRANCH  10  11
HETATM   11  C           1     -22.969  -9.416  -0.346  0.00  0.00    -0.020 C 
HETATM   12  C           1     -23.218  -8.266   0.621  0.00  0.00     0.009 C 
HETATM   13  C           1     -23.831 -10.607   0.049  0.00  0.00     0.009 C 
ENDBRANCH  10  11
ENDBRANCH   5  10
ENDBRANCH   4   5
BRANCH   3  14
HETATM   14  C           1     -21.625  -7.856  -4.175  0.00  0.00     0.214 C 
BRANCH  14  15
HETATM   15  C           1     -21.924  -6.410  -3.797  0.00  0.00     0.147 C 
HETATM   16  C           1     -21.945  -6.277  -2.280  0.00  0.00     0.042 C 
BRANCH  15  17
HETATM   17  O           1     -20.930  -5.575  -4.327  0.00  0.00    -0.393 OA
HETATM   18  H           1     -20.110  -6.027  -4.224  0.00  0.00     0.210 HD
ENDBRANCH  15  17
ENDBRANCH  14  15
BRANCH  14  19
HETATM   19  C           1     -20.550  -7.887  -5.232  0.00  0.00     0.199 C 
HETATM   20  O           1     -19.395  -8.268  -4.939  0.00  0.00    -0.646 OA
HETATM   21  O           1     -20.812  -7.532  -6.402  0.00  0.00    -0.646 OA
ENDBRANCH  14  19
ENDBRANCH   3  14
TORSDOF 8
ENDMDL
MODEL 8
REMARK VINA RESULT:      -5.2     17.428     19.252
REMARK  8 active torsions:
REMARK  status: ('A' for Active; 'I' for Inactive)
REMARK    1  A    between atoms: C_1  and  O_8 
REMARK    2  A    between atoms: C_1  and  C_9 
REMARK    3  A    between atoms: N_4  and  C_21 
REMARK    4  A    between atoms: C_7  and  C_12 
REMARK    5  A    between atoms: C_9  and  C_14 
REMARK    6  A    between atoms: C_9  and  N_19 
REMARK    7  A    between atoms: C_12  and  C_21 
REMARK       I    between atoms: N_19  and  C_20 
REMARK    8  A    between atoms: C_20  and  C_21 
ROOT
HETATM    1  O           1     -19.145  -8.919  -2.879  0.00  0.00    -0.271 OA
HETATM    2  H           1     -22.147  -8.039  -3.112  0.00  0.00     0.163 HD
HETATM    3  N           1     -21.294  -8.351  -2.665  0.00  0.00    -0.343 N 
HETATM    4  C           1     -20.164  -8.548  -3.411  0.00  0.00     0.249 C 
ENDROOT
BRANCH   4   5
HETATM    5  C           1     -20.189  -8.301  -4.900  0.00  0.00     0.275 C 
BRANCH   5   6
HETATM    6  N           1     -20.759  -9.502  -5.596  0.00  0.00    -0.066 N 
HETATM    7  H           1     -20.165  -9.740  -6.422  0.00  0.00     0.275 HD
HETATM    8  H           1     -20.775 -10.311  -4.935  0.00  0.00     0.275 HD
HETATM    9  H           1     -21.730  -9.291  -5.915  0.00  0.00     0.275 HD
ENDBRANCH   5   6
BRANCH   5  10
HETATM   10  C           1     -21.054  -7.084  -5.198  0.00  0.00     0.046 C 
BRANCH  10  11
HETATM   11  C           1     -20.302  -6.143  -6.132  0.00  0.00    -0.020 C 
HETATM   12  C           1     -20.079  -4.807  -5.435  0.00  0.00     0.009 C 
HETATM   13  C           1     -21.120  -5.925  -7.399  0.00  0.00     0.009 C 
ENDBRANCH  10  11
ENDBRANCH   5  10
ENDBRANCH   4   5
BRANCH   3  14
HETATM   14  C           1     -21.268  -8.589  -1.235  0.00  0.00     0.214 C 
BRANCH  14  15
HETATM   15  C           1     -21.955  -7.434  -0.516  0.00  0.00     0.147 C 
HETATM   16  C           1     -22.325  -6.356  -1.527  0.00  0.00     0.042 C 
BRANCH  15  17
HETATM   17  O           1     -23.117  -7.902   0.114  0.00  0.00    -0.393 OA
HETATM   18  H           1     -23.190  -7.440   0.932  0.00  0.00     0.210 HD
ENDBRANCH  15  17
ENDBRANCH  14  15
BRANCH  14  19
HETATM   19  C           1     -21.993  -9.875  -0.927  0.00  0.00     0.199 C 
HETATM   20  O           1     -22.803 -10.350  -1.753  0.00  0.00    -0.646 OA
HETATM   21  O           1     -21.785 -10.467   0.155  0.00  0.00    -0.646 OA
ENDBRANCH  14  19
ENDBRANCH   3  14
TORSDOF 8
ENDMDL
MODEL 9
REMARK VINA RESULT:      -5.2     24.643     25.818
REMARK  8 active torsions:
REMARK  status: ('A' for Active; 'I' for Inactive)
REMARK    1  A    between atoms: C_1  and  O_8 
REMARK    2  A    between atoms: C_1  and  C_9 
REMARK    3  A    between atoms: N_4  and  C_21 
REMARK    4  A    between atoms: C_7  and  C_12 
REMARK    5  A    between atoms: C_9  and  C_14 
REMARK    6  A    between atoms: C_9  and  N_19 
REMARK    7  A    between atoms: C_12  and  C_21 
REMARK       I    between atoms: N_19  and  C_20 
REMARK    8  A    between atoms: C_20  and  C_21 
ROOT
HETATM    1  O           1     -12.001   5.948 -19.196  0.00  0.00    -0.271 OA
HETATM    2  H           1     -12.328   7.965 -21.576  0.00  0.00     0.163 HD
HETATM    3  N           1     -12.101   7.646 -20.642  0.00  0.00    -0.343 N 
HETATM    4  C           1     -12.273   6.330 -20.309  0.00  0.00     0.249 C 
ENDROOT
BRANCH   4   5
HETATM    5  C           1     -12.802   5.355 -21.332  0.00  0.00     0.275 C 
BRANCH   5   6
HETATM    6  N           1     -13.511   6.107 -22.419  0.00  0.00    -0.066 N 
HETATM    7  H           1     -13.851   5.435 -23.144  0.00  0.00     0.275 HD
HETATM    8  H           1     -14.325   6.621 -22.013  0.00  0.00     0.275 HD
HETATM    9  H           1     -12.851   6.788 -22.858  0.00  0.00     0.275 HD
ENDBRANCH   5   6
BRANCH   5  10
HETATM   10  C           1     -11.644   4.568 -21.931  0.00  0.00     0.046 C 
BRANCH  10  11
HETATM   11  C           1     -11.761   3.104 -21.528  0.00  0.00    -0.020 C 
HETATM   12  C           1     -13.225   2.761 -21.284  0.00  0.00     0.009 C 
HETATM   13  C           1     -10.965   2.863 -20.252  0.00  0.00     0.009 C 
ENDBRANCH  10  11
ENDBRANCH   5  10
ENDBRANCH   4   5
BRANCH   3  14
HETATM   14  C           1     -11.593   8.582 -19.659  0.00  0.00     0.214 C 
BRANCH  14  15
HETATM   15  C           1     -10.530   9.465 -20.301  0.00  0.00     0.147 C 
HETATM   16  C           1      -9.386   8.596 -20.807  0.00  0.00     0.042 C 
BRANCH  15  17
HETATM   17  O           1     -11.094  10.168 -21.375  0.00  0.00    -0.393 OA
HETATM   18  H           1     -11.549   9.538 -21.906  0.00  0.00     0.210 HD
ENDBRANCH  15  17
ENDBRANCH  14  15
BRANCH  14  19
HETATM   19  C           1     -12.724   9.443 -19.154  0.00  0.00     0.199 C 
HETATM   20  O           1     -12.975   9.490 -17.930  0.00  0.00    -0.646 OA
HETATM   21  O           1     -13.410  10.110 -19.959  0.00  0.00    -0.646 OA
ENDBRANCH  14  19
ENDBRANCH   3  14
TORSDOF 8
ENDMDL
