MODEL 1
REMARK VINA RESULT:      -6.3      0.000      0.000
REMARK  8 active torsions:
REMARK  status: ('A' for Active; 'I' for Inactive)
REMARK    1  A    between atoms: N_4  and  C_23 
REMARK       I    between atoms: N_4  and  C_5 
REMARK    2  A    between atoms: C_5  and  C_6 
REMARK    3  A    between atoms: C_6  and  C_7 
REMARK    4  A    between atoms: C_6  and  N_9 
REMARK    5  A    between atoms: C_7  and  O_8 
REMARK    6  A    between atoms: C_11  and  C_20 
REMARK    7  A    between atoms: C_17  and  C_23 
REMARK    8  A    between atoms: C_20  and  C_23 
ROOT
HETATM    1  H           1     -28.193  -4.748 -15.348  0.00  0.00     0.163 HD
HETATM    2  N           1     -28.660  -5.180 -16.136  0.00  0.00    -0.344 N 
HETATM    3  C           1     -29.856  -4.683 -16.579  0.00  0.00     0.251 C 
HETATM    4  O           1     -30.891  -5.103 -16.123  0.00  0.00    -0.271 OA
ENDROOT
BRANCH   2   5
HETATM    5  C           1     -28.062  -6.325 -16.794  0.00  0.00     0.189 C 
BRANCH   5   6
HETATM    6  C           1     -28.430  -7.583 -16.047  0.00  0.00     0.197 C 
HETATM    7  O           1     -27.970  -7.788 -14.903  0.00  0.00    -0.646 OA
HETATM    8  O           1     -29.194  -8.421 -16.572  0.00  0.00    -0.646 OA
ENDBRANCH   5   6
BRANCH   5   9
HETATM    9  C           1     -26.547  -6.167 -16.809  0.00  0.00     0.074 C 
BRANCH   9  10
HETATM   10  C           1     -26.021  -6.523 -18.164  0.00  0.00    -0.056 A 
HETATM   11  C           1     -26.850  -6.427 -19.281  0.00  0.00     0.007 A 
HETATM   12  C           1     -26.361  -6.760 -20.544  0.00  0.00     0.001 A 
HETATM   13  C           1     -25.042  -7.189 -20.690  0.00  0.00     0.000 A 
HETATM   14  C           1     -24.213  -7.287 -19.572  0.00  0.00     0.001 A 
HETATM   15  C           1     -24.703  -6.954 -18.310  0.00  0.00     0.007 A 
ENDBRANCH   9  10
ENDBRANCH   5   9
ENDBRANCH   2   5
BRANCH   3  16
HETATM   16  C           1     -29.879  -3.608 -17.639  0.00  0.00     0.297 C 
BRANCH  16  17
HETATM   17  C           1     -28.854  -2.534 -17.296  0.00  0.00     0.206 C 
BRANCH  17  18
HETATM   18  O           1     -29.463  -1.272 -17.351  0.00  0.00    -0.398 OA
HETATM   19  H           1     -28.939  -0.740 -17.924  0.00  0.00     0.209 HD
ENDBRANCH  17  18
ENDBRANCH  16  17
BRANCH  16  20
HETATM   20  N           1     -31.246  -2.993 -17.697  0.00  0.00    -0.064 N 
HETATM   21  H           1     -31.790  -3.427 -18.477  0.00  0.00     0.275 HD
HETATM   22  H           1     -31.742  -3.158 -16.793  0.00  0.00     0.275 HD
HETATM   23  H           1     -31.158  -1.965 -17.864  0.00  0.00     0.275 HD
ENDBRANCH  16  20
ENDBRANCH   3  16
TORSDOF 8
ENDMDL
MODEL 2
REMARK VINA RESULT:      -6.2      3.460      5.890
REMARK  8 active torsions:
REMARK  status: ('A' for Active; 'I' for Inactive)
REMARK    1  A    between atoms: N_4  and  C_23 
REMARK       I    between atoms: N_4  and  C_5 
REMARK    2  A    between atoms: C_5  and  C_6 
REMARK    3  A    between atoms: C_6  and  C_7 
REMARK    4  A    between atoms: C_6  and  N_9 
REMARK    5  A    between atoms: C_7  and  O_8 
REMARK    6  A    between atoms: C_11  and  C_20 
REMARK    7  A    between atoms: C_17  and  C_23 
REMARK    8  A    between atoms: C_20  and  C_23 
ROOT
HETATM    1  H           1     -25.798  -5.324 -18.385  0.00  0.00     0.163 HD
HETATM    2  N           1     -25.613  -6.284 -18.645  0.00  0.00    -0.344 N 
HETATM    3  C           1     -24.532  -6.939 -18.118  0.00  0.00     0.251 C 
HETATM    4  O           1     -23.467  -6.899 -18.684  0.00  0.00    -0.271 OA
ENDROOT
BRANCH   2   5
HETATM    5  C           1     -26.492  -6.966 -19.575  0.00  0.00     0.189 C 
BRANCH   5   6
HETATM    6  C           1     -25.724  -7.320 -20.825  0.00  0.00     0.197 C 
HETATM    7  O           1     -25.779  -8.481 -21.285  0.00  0.00    -0.646 OA
HETATM    8  O           1     -25.033  -6.451 -21.400  0.00  0.00    -0.646 OA
ENDBRANCH   5   6
BRANCH   5   9
HETATM    9  C           1     -27.656  -6.052 -19.935  0.00  0.00     0.074 C 
BRANCH   9  10
HETATM   10  C           1     -28.608  -5.979 -18.782  0.00  0.00    -0.056 A 
HETATM   11  C           1     -28.849  -4.757 -18.154  0.00  0.00     0.007 A 
HETATM   12  C           1     -29.736  -4.687 -17.079  0.00  0.00     0.001 A 
HETATM   13  C           1     -30.380  -5.841 -16.632  0.00  0.00     0.000 A 
HETATM   14  C           1     -30.138  -7.063 -17.260  0.00  0.00     0.001 A 
HETATM   15  C           1     -29.252  -7.131 -18.334  0.00  0.00     0.007 A 
ENDBRANCH   9  10
ENDBRANCH   5   9
ENDBRANCH   2   5
BRANCH   3  16
HETATM   16  C           1     -24.674  -7.713 -16.830  0.00  0.00     0.297 C 
BRANCH  16  17
HETATM   17  C           1     -25.331  -6.830 -15.777  0.00  0.00     0.206 C 
BRANCH  17  18
HETATM   18  O           1     -24.659  -5.601 -15.710  0.00  0.00    -0.398 OA
HETATM   19  H           1     -24.927  -5.186 -14.908  0.00  0.00     0.209 HD
ENDBRANCH  17  18
ENDBRANCH  16  17
BRANCH  16  20
HETATM   20  N           1     -23.318  -8.137 -16.350  0.00  0.00    -0.064 N 
HETATM   21  H           1     -22.817  -7.311 -15.950  0.00  0.00     0.275 HD
HETATM   22  H           1     -23.422  -8.870 -15.613  0.00  0.00     0.275 HD
HETATM   23  H           1     -22.770  -8.523 -17.151  0.00  0.00     0.275 HD
ENDBRANCH  16  20
ENDBRANCH   3  16
TORSDOF 8
ENDMDL
MODEL 3
REMARK VINA RESULT:      -6.0     12.760     14.470
REMARK  8 active torsions:
REMARK  status: ('A' for Active; 'I' for Inactive)
REMARK    1  A    between atoms: N_4  and  C_23 
REMARK       I    between atoms: N_4  and  C_5 
REMARK    2  A    between atoms: C_5  and  C_6 
REMARK    3  A    between atoms: C_6  and  C_7 
REMARK    4  A    between atoms: C_6  and  N_9 
REMARK    5  A    between atoms: C_7  and  O_8 
REMARK    6  A    between atoms: C_11  and  C_20 
REMARK    7  A    between atoms: C_17  and  C_23 
REMARK    8  A    between atoms: C_20  and  C_23 
ROOT
HETATM    1  H           1     -23.335  -6.131  -4.119  0.00  0.00     0.163 HD
HETATM    2  N           1     -22.352  -6.345  -4.237  0.00  0.00    -0.344 N 
HETATM    3  C           1     -21.554  -6.521  -3.139  0.00  0.00     0.251 C 
HETATM    4  O           1     -20.978  -5.578  -2.653  0.00  0.00    -0.271 OA
ENDROOT
BRANCH   2   5
HETATM    5  C           1     -21.792  -6.465  -5.569  0.00  0.00     0.189 C 
BRANCH   5   6
HETATM    6  C           1     -20.966  -7.724  -5.656  0.00  0.00     0.197 C 
HETATM    7  O           1     -19.718  -7.657  -5.616  0.00  0.00    -0.646 OA
HETATM    8  O           1     -21.529  -8.834  -5.768  0.00  0.00    -0.646 OA
ENDBRANCH   5   6
BRANCH   5   9
HETATM    9  C           1     -20.910  -5.257  -5.857  0.00  0.00     0.074 C 
BRANCH   9  10
HETATM   10  C           1     -21.128  -4.806  -7.268  0.00  0.00    -0.056 A 
HETATM   11  C           1     -22.380  -4.338  -7.665  0.00  0.00     0.007 A 
HETATM   12  C           1     -22.584  -3.918  -8.980  0.00  0.00     0.001 A 
HETATM   13  C           1     -21.534  -3.966  -9.897  0.00  0.00     0.000 A 
HETATM   14  C           1     -20.282  -4.435  -9.500  0.00  0.00     0.001 A 
HETATM   15  C           1     -20.079  -4.855  -8.186  0.00  0.00     0.007 A 
ENDBRANCH   9  10
ENDBRANCH   5   9
ENDBRANCH   2   5
BRANCH   3  16
HETATM   16  C           1     -21.392  -7.896  -2.538  0.00  0.00     0.297 C 
BRANCH  16  17
HETATM   17  C           1     -21.983  -7.909  -1.134  0.00  0.00     0.206 C 
BRANCH  17  18
HETATM   18  O           1     -22.725  -6.738  -0.927  0.00  0.00    -0.398 OA
HETATM   19  H           1     -22.961  -6.409  -1.777  0.00  0.00     0.209 HD
ENDBRANCH  17  18
ENDBRANCH  16  17
BRANCH  16  20
HETATM   20  N           1     -19.934  -8.243  -2.468  0.00  0.00    -0.064 N 
HETATM   21  H           1     -19.529  -8.240  -3.431  0.00  0.00     0.275 HD
HETATM   22  H           1     -19.435  -7.540  -1.878  0.00  0.00     0.275 HD
HETATM   23  H           1     -19.823  -9.193  -2.047  0.00  0.00     0.275 HD
ENDBRANCH  16  20
ENDBRANCH   3  16
TORSDOF 8
ENDMDL
MODEL 4
REMARK VINA RESULT:      -6.0      1.697      2.347
REMARK  8 active torsions:
REMARK  status: ('A' for Active; 'I' for Inactive)
REMARK    1  A    between atoms: N_4  and  C_23 
REMARK       I    between atoms: N_4  and  C_5 
REMARK    2  A    between atoms: C_5  and  C_6 
REMARK    3  A    between atoms: C_6  and  C_7 
REMARK    4  A    between atoms: C_6  and  N_9 
REMARK    5  A    between atoms: C_7  and  O_8 
REMARK    6  A    between atoms: C_11  and  C_20 
REMARK    7  A    between atoms: C_17  and  C_23 
REMARK    8  A    between atoms: C_20  and  C_23 
ROOT
HETATM    1  H           1     -29.253  -4.645 -19.613  0.00  0.00     0.163 HD
HETATM    2  N           1     -29.069  -5.110 -18.733  0.00  0.00    -0.344 N 
HETATM    3  C           1     -29.517  -4.561 -17.562  0.00  0.00     0.251 C 
HETATM    4  O           1     -28.821  -3.786 -16.952  0.00  0.00    -0.271 OA
ENDROOT
BRANCH   2   5
HETATM    5  C           1     -28.328  -6.356 -18.713  0.00  0.00     0.189 C 
BRANCH   5   6
HETATM    6  C           1     -28.985  -7.316 -17.752  0.00  0.00     0.197 C 
HETATM    7  O           1     -29.922  -8.047 -18.142  0.00  0.00    -0.646 OA
HETATM    8  O           1     -28.594  -7.380 -16.567  0.00  0.00    -0.646 OA
ENDBRANCH   5   6
BRANCH   5   9
HETATM    9  C           1     -26.897  -6.088 -18.265  0.00  0.00     0.074 C 
BRANCH   9  10
HETATM   10  C           1     -25.946  -6.759 -19.207  0.00  0.00    -0.056 A 
HETATM   11  C           1     -24.608  -6.923 -18.846  0.00  0.00     0.007 A 
HETATM   12  C           1     -23.721  -7.547 -19.723  0.00  0.00     0.001 A 
HETATM   13  C           1     -24.171  -8.007 -20.961  0.00  0.00     0.000 A 
HETATM   14  C           1     -25.508  -7.841 -21.321  0.00  0.00     0.001 A 
HETATM   15  C           1     -26.395  -7.217 -20.444  0.00  0.00     0.007 A 
ENDBRANCH   9  10
ENDBRANCH   5   9
ENDBRANCH   2   5
BRANCH   3  16
HETATM   16  C           1     -30.883  -4.925 -17.034  0.00  0.00     0.297 C 
BRANCH  16  17
HETATM   17  C           1     -31.835  -3.752 -17.233  0.00  0.00     0.206 C 
BRANCH  17  18
HETATM   18  O           1     -31.354  -2.928 -18.260  0.00  0.00    -0.398 OA
HETATM   19  H           1     -31.638  -3.309 -19.073  0.00  0.00     0.209 HD
ENDBRANCH  17  18
ENDBRANCH  16  17
BRANCH  16  20
HETATM   20  N           1     -30.785  -5.245 -15.572  0.00  0.00    -0.064 N 
HETATM   21  H           1     -31.067  -4.408 -15.013  0.00  0.00     0.275 HD
HETATM   22  H           1     -31.420  -6.044 -15.345  0.00  0.00     0.275 HD
HETATM   23  H           1     -29.800  -5.505 -15.338  0.00  0.00     0.275 HD
ENDBRANCH  16  20
ENDBRANCH   3  16
TORSDOF 8
ENDMDL
MODEL 5
REMARK VINA RESULT:      -6.0     14.965     17.005
REMARK  8 active torsions:
REMARK  status: ('A' for Active; 'I' for Inactive)
REMARK    1  A    between atoms: N_4  and  C_23 
REMARK       I    between atoms: N_4  and  C_5 
REMARK    2  A    between atoms: C_5  and  C_6 
REMARK    3  A    between atoms: C_6  and  C_7 
REMARK    4  A    between atoms: C_6  and  N_9 
REMARK    5  A    between atoms: C_7  and  O_8 
REMARK    6  A    between atoms: C_11  and  C_20 
REMARK    7  A    between atoms: C_17  and  C_23 
REMARK    8  A    between atoms: C_20  and  C_23 
ROOT
HETATM    1  H           1     -19.341  -7.704  -3.561  0.00  0.00     0.163 HD
HETATM    2  N           1     -20.238  -8.046  -3.881  0.00  0.00    -0.344 N 
HETATM    3  C           1     -20.339  -8.666  -5.097  0.00  0.00     0.251 C 
HETATM    4  O           1     -20.573  -8.019  -6.088  0.00  0.00    -0.271 OA
ENDROOT
BRANCH   2   5
HETATM    5  C           1     -21.416  -7.879  -3.052  0.00  0.00     0.189 C 
BRANCH   5   6
HETATM    6  C           1     -21.747  -6.411  -2.939  0.00  0.00     0.197 C 
HETATM    7  O           1     -22.456  -6.001  -1.995  0.00  0.00    -0.646 OA
HETATM    8  O           1     -21.311  -5.605  -3.790  0.00  0.00    -0.646 OA
ENDBRANCH   5   6
BRANCH   5   9
HETATM    9  C           1     -21.144  -8.447  -1.665  0.00  0.00     0.074 C 
BRANCH   9  10
HETATM   10  C           1     -22.158  -9.503  -1.351  0.00  0.00    -0.056 A 
HETATM   11  C           1     -22.327 -10.585  -2.214  0.00  0.00     0.007 A 
HETATM   12  C           1     -23.272 -11.569  -1.922  0.00  0.00     0.001 A 
HETATM   13  C           1     -24.048 -11.469  -0.767  0.00  0.00     0.000 A 
HETATM   14  C           1     -23.879 -10.386   0.095  0.00  0.00     0.001 A 
HETATM   15  C           1     -22.934  -9.403  -0.197  0.00  0.00     0.007 A 
ENDBRANCH   9  10
ENDBRANCH   5   9
ENDBRANCH   2   5
BRANCH   3  16
HETATM   16  C           1     -20.158 -10.161  -5.198  0.00  0.00     0.297 C 
BRANCH  16  17
HETATM   17  C           1     -18.741 -10.472  -5.662  0.00  0.00     0.206 C 
BRANCH  17  18
HETATM   18  O           1     -18.132  -9.297  -6.125  0.00  0.00    -0.398 OA
HETATM   19  H           1     -18.794  -8.628  -6.129  0.00  0.00     0.209 HD
ENDBRANCH  17  18
ENDBRANCH  16  17
BRANCH  16  20
HETATM   20  N           1     -21.140 -10.719  -6.185  0.00  0.00    -0.064 N 
HETATM   21  H           1     -22.071 -10.833  -5.725  0.00  0.00     0.275 HD
HETATM   22  H           1     -21.231 -10.065  -6.995  0.00  0.00     0.275 HD
HETATM   23  H           1     -20.803 -11.648  -6.524  0.00  0.00     0.275 HD
ENDBRANCH  16  20
ENDBRANCH   3  16
TORSDOF 8
ENDMDL
MODEL 6
REMARK VINA RESULT:      -6.0      3.665      5.818
REMARK  8 active torsions:
REMARK  status: ('A' for Active; 'I' for Inactive)
REMARK    1  A    between atoms: N_4  and  C_23 
REMARK       I    between atoms: N_4  and  C_5 
REMARK    2  A    between atoms: C_5  and  C_6 
REMARK    3  A    between atoms: C_6  and  C_7 
REMARK    4  A    between atoms: C_6  and  N_9 
REMARK    5  A    between atoms: C_7  and  O_8 
REMARK    6  A    between atoms: C_11  and  C_20 
REMARK    7  A    between atoms: C_17  and  C_23 
REMARK    8  A    between atoms: C_20  and  C_23 
ROOT
HETATM    1  H           1     -34.356  -5.293 -15.920  0.00  0.00     0.163 HD
HETATM    2  N           1     -33.712  -4.597 -15.566  0.00  0.00    -0.344 N 
HETATM    3  C           1     -34.043  -3.855 -14.465  0.00  0.00     0.251 C 
HETATM    4  O           1     -34.627  -2.807 -14.596  0.00  0.00    -0.271 OA
ENDROOT
BRANCH   2   5
HETATM    5  C           1     -32.438  -4.387 -16.226  0.00  0.00     0.189 C 
BRANCH   5   6
HETATM    6  C           1     -32.596  -3.342 -17.303  0.00  0.00     0.197 C 
HETATM    7  O           1     -31.608  -2.991 -17.982  0.00  0.00    -0.646 OA
HETATM    8  O           1     -33.716  -2.827 -17.515  0.00  0.00    -0.646 OA
ENDBRANCH   5   6
BRANCH   5   9
HETATM    9  C           1     -31.970  -5.695 -16.852  0.00  0.00     0.074 C 
BRANCH   9  10
HETATM   10  C           1     -30.474  -5.725 -16.885  0.00  0.00    -0.056 A 
HETATM   11  C           1     -29.746  -5.505 -15.715  0.00  0.00     0.007 A 
HETATM   12  C           1     -28.352  -5.531 -15.745  0.00  0.00     0.001 A 
HETATM   13  C           1     -27.685  -5.779 -16.946  0.00  0.00     0.000 A 
HETATM   14  C           1     -28.413  -5.998 -18.115  0.00  0.00     0.001 A 
HETATM   15  C           1     -29.807  -5.971 -18.084  0.00  0.00     0.007 A 
ENDBRANCH   9  10
ENDBRANCH   5   9
ENDBRANCH   2   5
BRANCH   3  16
HETATM   16  C           1     -33.676  -4.347 -13.086  0.00  0.00     0.297 C 
BRANCH  16  17
HETATM   17  C           1     -34.763  -5.284 -12.575  0.00  0.00     0.206 C 
BRANCH  17  18
HETATM   18  O           1     -35.344  -5.962 -13.656  0.00  0.00    -0.398 OA
HETATM   19  H           1     -36.145  -5.513 -13.863  0.00  0.00     0.209 HD
ENDBRANCH  17  18
ENDBRANCH  16  17
BRANCH  16  20
HETATM   20  N           1     -33.548  -3.178 -12.155  0.00  0.00    -0.064 N 
HETATM   21  H           1     -32.912  -3.430 -11.366  0.00  0.00     0.275 HD
HETATM   22  H           1     -33.153  -2.361 -12.673  0.00  0.00     0.275 HD
HETATM   23  H           1     -34.490  -2.929 -11.778  0.00  0.00     0.275 HD
ENDBRANCH  16  20
ENDBRANCH   3  16
TORSDOF 8
ENDMDL
MODEL 7
REMARK VINA RESULT:      -5.9     13.873     15.702
REMARK  8 active torsions:
REMARK  status: ('A' for Active; 'I' for Inactive)
REMARK    1  A    between atoms: N_4  and  C_23 
REMARK       I    between atoms: N_4  and  C_5 
REMARK    2  A    between atoms: C_5  and  C_6 
REMARK    3  A    between atoms: C_6  and  C_7 
REMARK    4  A    between atoms: C_6  and  N_9 
REMARK    5  A    between atoms: C_7  and  O_8 
REMARK    6  A    between atoms: C_11  and  C_20 
REMARK    7  A    between atoms: C_17  and  C_23 
REMARK    8  A    between atoms: C_20  and  C_23 
ROOT
HETATM    1  H           1     -21.671  -8.426  -6.383  0.00  0.00     0.163 HD
HETATM    2  N           1     -20.986  -7.836  -5.929  0.00  0.00    -0.344 N 
HETATM    3  C           1     -20.648  -6.630  -6.481  0.00  0.00     0.251 C 
HETATM    4  O           1     -19.738  -6.561  -7.271  0.00  0.00    -0.271 OA
ENDROOT
BRANCH   2   5
HETATM    5  C           1     -20.361  -8.270  -4.694  0.00  0.00     0.189 C 
BRANCH   5   6
HETATM    6  C           1     -19.120  -9.067  -5.011  0.00  0.00     0.197 C 
HETATM    7  O           1     -18.202  -9.156  -4.168  0.00  0.00    -0.646 OA
HETATM    8  O           1     -19.010  -9.637  -6.118  0.00  0.00    -0.646 OA
ENDBRANCH   5   6
BRANCH   5   9
HETATM    9  C           1     -21.337  -9.138  -3.910  0.00  0.00     0.074 C 
BRANCH   9  10
HETATM   10  C           1     -21.716  -8.441  -2.641  0.00  0.00    -0.056 A 
HETATM   11  C           1     -21.816  -7.050  -2.613  0.00  0.00     0.007 A 
HETATM   12  C           1     -22.169  -6.400  -1.430  0.00  0.00     0.001 A 
HETATM   13  C           1     -22.422  -7.142  -0.276  0.00  0.00     0.000 A 
HETATM   14  C           1     -22.322  -8.533  -0.304  0.00  0.00     0.001 A 
HETATM   15  C           1     -21.969  -9.182  -1.487  0.00  0.00     0.007 A 
ENDBRANCH   9  10
ENDBRANCH   5   9
ENDBRANCH   2   5
BRANCH   3  16
HETATM   16  C           1     -21.413  -5.386  -6.100  0.00  0.00     0.297 C 
BRANCH  16  17
HETATM   17  C           1     -22.078  -4.799  -7.338  0.00  0.00     0.206 C 
BRANCH  17  18
HETATM   18  O           1     -23.397  -4.434  -7.032  0.00  0.00    -0.398 OA
HETATM   19  H           1     -23.491  -4.504  -6.098  0.00  0.00     0.209 HD
ENDBRANCH  17  18
ENDBRANCH  16  17
BRANCH  16  20
HETATM   20  N           1     -20.468  -4.377  -5.516  0.00  0.00    -0.064 N 
HETATM   21  H           1     -21.003  -3.700  -4.926  0.00  0.00     0.275 HD
HETATM   22  H           1     -19.757  -4.865  -4.926  0.00  0.00     0.275 HD
HETATM   23  H           1     -19.988  -3.863  -6.288  0.00  0.00     0.275 HD
ENDBRANCH  16  20
ENDBRANCH   3  16
TORSDOF 8
ENDMDL
MODEL 8
REMARK VINA RESULT:      -5.8     16.741     18.611
REMARK  8 active torsions:
REMARK  status: ('A' for Active; 'I' for Inactive)
REMARK    1  A    between atoms: N_4  and  C_23 
REMARK       I    between atoms: N_4  and  C_5 
REMARK    2  A    between atoms: C_5  and  C_6 
REMARK    3  A    between atoms: C_6  and  C_7 
REMARK    4  A    between atoms: C_6  and  N_9 
REMARK    5  A    between atoms: C_7  and  O_8 
REMARK    6  A    between atoms: C_11  and  C_20 
REMARK    7  A    between atoms: C_17  and  C_23 
REMARK    8  A    between atoms: C_20  and  C_23 
ROOT
HETATM    1  H           1     -19.370  -7.612  -1.688  0.00  0.00     0.163 HD
HETATM    2  N           1     -20.077  -8.168  -2.153  0.00  0.00    -0.344 N 
HETATM    3  C           1     -19.730  -8.978  -3.200  0.00  0.00     0.251 C 
HETATM    4  O           1     -19.756  -8.551  -4.329  0.00  0.00    -0.271 OA
ENDROOT
BRANCH   2   5
HETATM    5  C           1     -21.456  -8.105  -1.709  0.00  0.00     0.189 C 
BRANCH   5   6
HETATM    6  C           1     -22.010  -6.729  -1.983  0.00  0.00     0.197 C 
HETATM    7  O           1     -22.440  -6.030  -1.041  0.00  0.00    -0.646 OA
HETATM    8  O           1     -22.040  -6.289  -3.153  0.00  0.00    -0.646 OA
ENDBRANCH   5   6
BRANCH   5   9
HETATM    9  C           1     -21.521  -8.392  -0.215  0.00  0.00     0.074 C 
BRANCH   9  10
HETATM   10  C           1     -22.070  -9.766   0.007  0.00  0.00    -0.056 A 
HETATM   11  C           1     -21.244 -10.775   0.503  0.00  0.00     0.007 A 
HETATM   12  C           1     -21.755 -12.057   0.709  0.00  0.00     0.001 A 
HETATM   13  C           1     -23.093 -12.329   0.419  0.00  0.00     0.000 A 
HETATM   14  C           1     -23.918 -11.320  -0.078  0.00  0.00     0.001 A 
HETATM   15  C           1     -23.406 -10.039  -0.284  0.00  0.00     0.007 A 
ENDBRANCH   9  10
ENDBRANCH   5   9
ENDBRANCH   2   5
BRANCH   3  16
HETATM   16  C           1     -19.315 -10.406  -2.943  0.00  0.00     0.297 C 
BRANCH  16  17
HETATM   17  C           1     -17.888 -10.433  -2.412  0.00  0.00     0.206 C 
BRANCH  17  18
HETATM   18  O           1     -17.231  -9.248  -2.773  0.00  0.00    -0.398 OA
HETATM   19  H           1     -16.307  -9.419  -2.716  0.00  0.00     0.209 HD
ENDBRANCH  17  18
ENDBRANCH  16  17
BRANCH  16  20
HETATM   20  N           1     -19.386 -11.186  -4.223  0.00  0.00    -0.064 N 
HETATM   21  H           1     -20.386 -11.349  -4.476  0.00  0.00     0.275 HD
HETATM   22  H           1     -18.917 -10.647  -4.986  0.00  0.00     0.275 HD
HETATM   23  H           1     -18.904 -12.104  -4.097  0.00  0.00     0.275 HD
ENDBRANCH  16  20
ENDBRANCH   3  16
TORSDOF 8
ENDMDL
MODEL 9
REMARK VINA RESULT:      -5.8     15.261     17.498
REMARK  8 active torsions:
REMARK  status: ('A' for Active; 'I' for Inactive)
REMARK    1  A    between atoms: N_4  and  C_23 
REMARK       I    between atoms: N_4  and  C_5 
REMARK    2  A    between atoms: C_5  and  C_6 
REMARK    3  A    between atoms: C_6  and  C_7 
REMARK    4  A    between atoms: C_6  and  N_9 
REMARK    5  A    between atoms: C_7  and  O_8 
REMARK    6  A    between atoms: C_11  and  C_20 
REMARK    7  A    between atoms: C_17  and  C_23 
REMARK    8  A    between atoms: C_20  and  C_23 
ROOT
HETATM    1  H           1     -18.913  -7.791  -4.388  0.00  0.00     0.163 HD
HETATM    2  N           1     -19.671  -8.461  -4.362  0.00  0.00    -0.344 N 
HETATM    3  C           1     -19.442  -9.767  -4.700  0.00  0.00     0.251 C 
HETATM    4  O           1     -19.568 -10.126  -5.845  0.00  0.00    -0.271 OA
ENDROOT
BRANCH   2   5
HETATM    5  C           1     -21.000  -8.036  -3.966  0.00  0.00     0.189 C 
BRANCH   5   6
HETATM    6  C           1     -21.563  -7.107  -5.013  0.00  0.00     0.197 C 
HETATM    7  O           1     -22.346  -6.192  -4.680  0.00  0.00    -0.646 OA
HETATM    8  O           1     -21.247  -7.253  -6.213  0.00  0.00    -0.646 OA
ENDBRANCH   5   6
BRANCH   5   9
HETATM    9  C           1     -20.923  -7.310  -2.630  0.00  0.00     0.074 C 
BRANCH   9  10
HETATM   10  C           1     -21.764  -8.029  -1.621  0.00  0.00    -0.056 A 
HETATM   11  C           1     -21.971  -9.404  -1.740  0.00  0.00     0.007 A 
HETATM   12  C           1     -22.755 -10.075  -0.801  0.00  0.00     0.001 A 
HETATM   13  C           1     -23.331  -9.371   0.256  0.00  0.00     0.000 A 
HETATM   14  C           1     -23.125  -7.997   0.374  0.00  0.00     0.001 A 
HETATM   15  C           1     -22.341  -7.326  -0.565  0.00  0.00     0.007 A 
ENDBRANCH   9  10
ENDBRANCH   5   9
ENDBRANCH   2   5
BRANCH   3  16
HETATM   16  C           1     -19.032 -10.759  -3.639  0.00  0.00     0.297 C 
BRANCH  16  17
HETATM   17  C           1     -18.293 -10.033  -2.522  0.00  0.00     0.206 C 
BRANCH  17  18
HETATM   18  O           1     -17.200  -9.339  -3.058  0.00  0.00    -0.398 OA
HETATM   19  H           1     -16.544  -9.297  -2.384  0.00  0.00     0.209 HD
ENDBRANCH  17  18
ENDBRANCH  16  17
BRANCH  16  20
HETATM   20  N           1     -18.129 -11.793  -4.244  0.00  0.00    -0.064 N 
HETATM   21  H           1     -17.409 -12.080  -3.542  0.00  0.00     0.275 HD
HETATM   22  H           1     -18.692 -12.628  -4.525  0.00  0.00     0.275 HD
HETATM   23  H           1     -17.655 -11.393  -5.085  0.00  0.00     0.275 HD
ENDBRANCH  16  20
ENDBRANCH   3  16
TORSDOF 8
ENDMDL
