MODEL 1
REMARK VINA RESULT:      -7.1      0.000      0.000
REMARK  12 active torsions:
REMARK  status: ('A' for Active; 'I' for Inactive)
REMARK    1  A    between atoms: C_1  and  C_31 
REMARK    2  A    between atoms: C_1  and  C_28 
REMARK       I    between atoms: N_2  and  C_29 
REMARK    3  A    between atoms: N_2  and  C_23 
REMARK       I    between atoms: N_3  and  C_29 
REMARK    4  A    between atoms: C_5  and  C_32 
REMARK    5  A    between atoms: C_5  and  C_6 
REMARK    6  A    between atoms: C_5  and  N_18 
REMARK    7  A    between atoms: C_6  and  C_7 
REMARK    8  A    between atoms: C_7  and  C_11 
REMARK    9  A    between atoms: C_11  and  N_19 
REMARK   10  A    between atoms: C_23  and  C_31 
REMARK   11  A    between atoms: N_25  and  C_28 
REMARK       I    between atoms: N_25  and  C_32 
REMARK   12  A    between atoms: C_27  and  C_28 
ROOT
HETATM    1  H           1     -27.395  -6.955 -18.604  0.00  0.00     0.163 HD
HETATM    2  O           1     -24.293  -6.485 -18.549  0.00  0.00    -0.271 OA
HETATM    3  N           1     -26.501  -6.640 -18.249  0.00  0.00    -0.345 N 
HETATM    4  C           1     -25.360  -6.860 -18.974  0.00  0.00     0.249 C 
ENDROOT
BRANCH   3   5
HETATM    5  C           1     -26.428  -5.958 -16.972  0.00  0.00     0.185 C 
BRANCH   5   6
HETATM    6  C           1     -27.652  -5.069 -16.802  0.00  0.00     0.038 C 
BRANCH   6   7
HETATM    7  C           1     -28.593  -5.267 -17.982  0.00  0.00     0.023 C 
BRANCH   7   8
HETATM    8  C           1     -29.751  -4.285 -17.879  0.00  0.00     0.138 C 
BRANCH   8   9
HETATM    9  N           1     -30.885  -4.932 -17.202  0.00  0.00    -0.227 N 
HETATM   10  C           1     -31.979  -4.310 -17.066  0.00  0.00     0.665 C 
HETATM   11  N           1     -32.097  -3.132 -17.513  0.00  0.00    -0.235 N 
HETATM   12  N           1     -32.981  -4.882 -16.468  0.00  0.00    -0.235 N 
HETATM   13  H           1     -31.288  -2.670 -17.997  0.00  0.00     0.174 HD
HETATM   14  H           1     -33.005  -2.616 -17.401  0.00  0.00     0.174 HD
HETATM   15  H           1     -32.884  -5.855 -16.098  0.00  0.00     0.174 HD
HETATM   16  H           1     -33.885  -4.370 -16.355  0.00  0.00     0.174 HD
HETATM   17  H           1     -30.786  -5.909 -16.831  0.00  0.00     0.177 HD
ENDBRANCH   8   9
ENDBRANCH   7   8
ENDBRANCH   6   7
ENDBRANCH   5   6
BRANCH   5  18
HETATM   18  C           1     -26.386  -6.976 -15.859  0.00  0.00     0.196 C 
HETATM   19  O           1     -25.287  -7.402 -15.443  0.00  0.00    -0.646 OA
HETATM   20  O           1     -27.450  -7.393 -15.352  0.00  0.00    -0.646 OA
ENDBRANCH   5  18
ENDBRANCH   3   5
BRANCH   4  21
HETATM   21  C           1     -25.436  -7.571 -20.303  0.00  0.00     0.274 C 
BRANCH  21  22
HETATM   22  C           1     -24.843  -6.682 -21.389  0.00  0.00     0.044 C 
BRANCH  22  23
HETATM   23  C           1     -24.084  -7.543 -22.391  0.00  0.00     0.030 C 
BRANCH  23  24
HETATM   24  C           1     -23.078  -8.415 -21.652  0.00  0.00     0.230 C 
BRANCH  24  25
HETATM   25  N           1     -22.488  -9.416 -22.601  0.00  0.00    -0.079 N 
HETATM   26  H           1     -22.067  -8.917 -23.417  0.00  0.00     0.274 HD
HETATM   27  H           1     -21.749  -9.968 -22.110  0.00  0.00     0.274 HD
HETATM   28  H           1     -23.239 -10.060 -22.938  0.00  0.00     0.274 HD
ENDBRANCH  24  25
ENDBRANCH  23  24
ENDBRANCH  22  23
ENDBRANCH  21  22
BRANCH  21  29
HETATM   29  N           1     -26.870  -7.868 -20.629  0.00  0.00    -0.067 N 
HETATM   30  H           1     -27.399  -8.040 -19.745  0.00  0.00     0.275 HD
HETATM   31  H           1     -26.918  -8.716 -21.237  0.00  0.00     0.275 HD
HETATM   32  H           1     -27.288  -7.054 -21.133  0.00  0.00     0.275 HD
ENDBRANCH  21  29
ENDBRANCH   4  21
TORSDOF 12
ENDMDL
MODEL 2
REMARK VINA RESULT:      -7.0      1.914      3.039
REMARK  12 active torsions:
REMARK  status: ('A' for Active; 'I' for Inactive)
REMARK    1  A    between atoms: C_1  and  C_31 
REMARK    2  A    between atoms: C_1  and  C_28 
REMARK       I    between atoms: N_2  and  C_29 
REMARK    3  A    between atoms: N_2  and  C_23 
REMARK       I    between atoms: N_3  and  C_29 
REMARK    4  A    between atoms: C_5  and  C_32 
REMARK    5  A    between atoms: C_5  and  C_6 
REMARK    6  A    between atoms: C_5  and  N_18 
REMARK    7  A    between atoms: C_6  and  C_7 
REMARK    8  A    between atoms: C_7  and  C_11 
REMARK    9  A    between atoms: C_11  and  N_19 
REMARK   10  A    between atoms: C_23  and  C_31 
REMARK   11  A    between atoms: N_25  and  C_28 
REMARK       I    between atoms: N_25  and  C_32 
REMARK   12  A    between atoms: C_27  and  C_28 
ROOT
HETATM    1  H           1     -27.641  -6.247 -18.106  0.00  0.00     0.163 HD
HETATM    2  O           1     -26.562  -7.358 -15.377  0.00  0.00    -0.271 OA
HETATM    3  N           1     -27.678  -6.622 -17.166  0.00  0.00    -0.345 N 
HETATM    4  C           1     -26.518  -6.910 -16.498  0.00  0.00     0.249 C 
ENDROOT
BRANCH   3   5
HETATM    5  C           1     -28.959  -6.856 -16.529  0.00  0.00     0.185 C 
BRANCH   5   6
HETATM    6  C           1     -29.526  -5.534 -16.030  0.00  0.00     0.038 C 
BRANCH   6   7
HETATM    7  C           1     -29.365  -4.472 -17.110  0.00  0.00     0.023 C 
BRANCH   7   8
HETATM    8  C           1     -30.706  -3.795 -17.360  0.00  0.00     0.138 C 
BRANCH   8   9
HETATM    9  N           1     -31.747  -4.461 -16.564  0.00  0.00    -0.227 N 
HETATM   10  C           1     -32.960  -4.126 -16.703  0.00  0.00     0.665 C 
HETATM   11  N           1     -33.276  -3.219 -17.527  0.00  0.00    -0.235 N 
HETATM   12  N           1     -33.881  -4.715 -15.999  0.00  0.00    -0.235 N 
HETATM   13  H           1     -32.532  -2.744 -18.095  0.00  0.00     0.174 HD
HETATM   14  H           1     -34.283  -2.941 -17.642  0.00  0.00     0.174 HD
HETATM   15  H           1     -33.621  -5.464 -15.318  0.00  0.00     0.174 HD
HETATM   16  H           1     -34.883  -4.439 -16.113  0.00  0.00     0.174 HD
HETATM   17  H           1     -31.485  -5.214 -15.880  0.00  0.00     0.177 HD
ENDBRANCH   8   9
ENDBRANCH   7   8
ENDBRANCH   6   7
ENDBRANCH   5   6
BRANCH   5  18
HETATM   18  C           1     -29.912  -7.469 -17.525  0.00  0.00     0.196 C 
HETATM   19  O           1     -31.140  -7.263 -17.423  0.00  0.00    -0.646 OA
HETATM   20  O           1     -29.473  -8.182 -18.453  0.00  0.00    -0.646 OA
ENDBRANCH   5  18
ENDBRANCH   3   5
BRANCH   4  21
HETATM   21  C           1     -25.184  -6.667 -17.162  0.00  0.00     0.274 C 
BRANCH  21  22
HETATM   22  C           1     -25.366  -6.642 -18.674  0.00  0.00     0.044 C 
BRANCH  22  23
HETATM   23  C           1     -24.205  -7.372 -19.337  0.00  0.00     0.030 C 
BRANCH  23  24
HETATM   24  C           1     -24.589  -7.747 -20.762  0.00  0.00     0.230 C 
BRANCH  24  25
HETATM   25  N           1     -26.053  -8.068 -20.819  0.00  0.00    -0.079 N 
HETATM   26  H           1     -26.272  -8.825 -20.134  0.00  0.00     0.274 HD
HETATM   27  H           1     -26.606  -7.213 -20.582  0.00  0.00     0.274 HD
HETATM   28  H           1     -26.302  -8.389 -21.782  0.00  0.00     0.274 HD
ENDBRANCH  24  25
ENDBRANCH  23  24
ENDBRANCH  22  23
ENDBRANCH  21  22
BRANCH  21  29
HETATM   29  N           1     -24.234  -7.767 -16.791  0.00  0.00    -0.067 N 
HETATM   30  H           1     -24.769  -8.562 -16.374  0.00  0.00     0.275 HD
HETATM   31  H           1     -23.542  -7.408 -16.096  0.00  0.00     0.275 HD
HETATM   32  H           1     -23.732  -8.096 -17.646  0.00  0.00     0.275 HD
ENDBRANCH  21  29
ENDBRANCH   4  21
TORSDOF 12
ENDMDL
MODEL 3
REMARK VINA RESULT:      -6.8      1.846      2.179
REMARK  12 active torsions:
REMARK  status: ('A' for Active; 'I' for Inactive)
REMARK    1  A    between atoms: C_1  and  C_31 
REMARK    2  A    between atoms: C_1  and  C_28 
REMARK       I    between atoms: N_2  and  C_29 
REMARK    3  A    between atoms: N_2  and  C_23 
REMARK       I    between atoms: N_3  and  C_29 
REMARK    4  A    between atoms: C_5  and  C_32 
REMARK    5  A    between atoms: C_5  and  C_6 
REMARK    6  A    between atoms: C_5  and  N_18 
REMARK    7  A    between atoms: C_6  and  C_7 
REMARK    8  A    between atoms: C_7  and  C_11 
REMARK    9  A    between atoms: C_11  and  N_19 
REMARK   10  A    between atoms: C_23  and  C_31 
REMARK   11  A    between atoms: N_25  and  C_28 
REMARK       I    between atoms: N_25  and  C_32 
REMARK   12  A    between atoms: C_27  and  C_28 
ROOT
HETATM    1  H           1     -26.006  -6.492 -17.266  0.00  0.00     0.163 HD
HETATM    2  O           1     -27.212  -6.339 -20.159  0.00  0.00    -0.271 OA
HETATM    3  N           1     -26.707  -6.352 -17.983  0.00  0.00    -0.345 N 
HETATM    4  C           1     -26.376  -6.508 -19.303  0.00  0.00     0.249 C 
ENDROOT
BRANCH   3   5
HETATM    5  C           1     -28.059  -5.984 -17.613  0.00  0.00     0.185 C 
BRANCH   5   6
HETATM    6  C           1     -28.715  -7.141 -16.873  0.00  0.00     0.038 C 
BRANCH   6   7
HETATM    7  C           1     -30.045  -7.478 -17.532  0.00  0.00     0.023 C 
BRANCH   7   8
HETATM    8  C           1     -30.752  -6.193 -17.937  0.00  0.00     0.138 C 
BRANCH   8   9
HETATM    9  N           1     -31.758  -5.845 -16.923  0.00  0.00    -0.227 N 
HETATM   10  C           1     -32.032  -4.631 -16.693  0.00  0.00     0.665 C 
HETATM   11  N           1     -31.441  -3.716 -17.338  0.00  0.00    -0.235 N 
HETATM   12  N           1     -32.922  -4.324 -15.796  0.00  0.00    -0.235 N 
HETATM   13  H           1     -30.723  -3.964 -18.062  0.00  0.00     0.174 HD
HETATM   14  H           1     -31.668  -2.708 -17.148  0.00  0.00     0.174 HD
HETATM   15  H           1     -33.410  -5.079 -15.264  0.00  0.00     0.174 HD
HETATM   16  H           1     -33.148  -3.321 -15.607  0.00  0.00     0.174 HD
HETATM   17  H           1     -32.249  -6.605 -16.388  0.00  0.00     0.177 HD
ENDBRANCH   8   9
ENDBRANCH   7   8
ENDBRANCH   6   7
ENDBRANCH   5   6
BRANCH   5  18
HETATM   18  C           1     -28.023  -4.768 -16.719  0.00  0.00     0.196 C 
HETATM   19  O           1     -28.349  -3.650 -17.172  0.00  0.00    -0.646 OA
HETATM   20  O           1     -27.669  -4.881 -15.526  0.00  0.00    -0.646 OA
ENDBRANCH   5  18
ENDBRANCH   3   5
BRANCH   4  21
HETATM   21  C           1     -24.968  -6.890 -19.688  0.00  0.00     0.274 C 
BRANCH  21  22
HETATM   22  C           1     -25.010  -7.940 -20.790  0.00  0.00     0.044 C 
BRANCH  22  23
HETATM   23  C           1     -24.312  -7.401 -22.032  0.00  0.00     0.030 C 
BRANCH  23  24
HETATM   24  C           1     -23.187  -8.345 -22.433  0.00  0.00     0.230 C 
BRANCH  24  25
HETATM   25  N           1     -22.729  -9.118 -21.231  0.00  0.00    -0.079 N 
HETATM   26  H           1     -22.421 -10.072 -21.526  0.00  0.00     0.274 HD
HETATM   27  H           1     -21.930  -8.618 -20.780  0.00  0.00     0.274 HD
HETATM   28  H           1     -23.518  -9.203 -20.551  0.00  0.00     0.274 HD
ENDBRANCH  24  25
ENDBRANCH  23  24
ENDBRANCH  22  23
ENDBRANCH  21  22
BRANCH  21  29
HETATM   29  N           1     -24.258  -7.451 -18.491  0.00  0.00    -0.067 N 
HETATM   30  H           1     -24.945  -7.604 -17.720  0.00  0.00     0.275 HD
HETATM   31  H           1     -23.523  -6.778 -18.177  0.00  0.00     0.275 HD
HETATM   32  H           1     -23.811  -8.361 -18.746  0.00  0.00     0.275 HD
ENDBRANCH  21  29
ENDBRANCH   4  21
TORSDOF 12
ENDMDL
MODEL 4
REMARK VINA RESULT:      -6.2     12.132     14.976
REMARK  12 active torsions:
REMARK  status: ('A' for Active; 'I' for Inactive)
REMARK    1  A    between atoms: C_1  and  C_31 
REMARK    2  A    between atoms: C_1  and  C_28 
REMARK       I    between atoms: N_2  and  C_29 
REMARK    3  A    between atoms: N_2  and  C_23 
REMARK       I    between atoms: N_3  and  C_29 
REMARK    4  A    between atoms: C_5  and  C_32 
REMARK    5  A    between atoms: C_5  and  C_6 
REMARK    6  A    between atoms: C_5  and  N_18 
REMARK    7  A    between atoms: C_6  and  C_7 
REMARK    8  A    between atoms: C_7  and  C_11 
REMARK    9  A    between atoms: C_11  and  N_19 
REMARK   10  A    between atoms: C_23  and  C_31 
REMARK   11  A    between atoms: N_25  and  C_28 
REMARK       I    between atoms: N_25  and  C_32 
REMARK   12  A    between atoms: C_27  and  C_28 
ROOT
HETATM    1  H           1     -20.561  -4.589  -4.955  0.00  0.00     0.163 HD
HETATM    2  O           1     -22.235  -7.244  -4.967  0.00  0.00    -0.271 OA
HETATM    3  N           1     -21.105  -5.353  -5.338  0.00  0.00    -0.345 N 
HETATM    4  C           1     -21.586  -6.332  -4.510  0.00  0.00     0.249 C 
ENDROOT
BRANCH   3   5
HETATM    5  C           1     -21.372  -5.411  -6.761  0.00  0.00     0.185 C 
BRANCH   5   6
HETATM    6  C           1     -21.884  -4.059  -7.237  0.00  0.00     0.038 C 
BRANCH   6   7
HETATM    7  C           1     -23.226  -4.239  -7.933  0.00  0.00     0.023 C 
BRANCH   7   8
HETATM    8  C           1     -22.998  -4.540  -9.408  0.00  0.00     0.138 C 
BRANCH   8   9
HETATM    9  N           1     -21.933  -3.668  -9.926  0.00  0.00    -0.227 N 
HETATM   10  C           1     -21.582  -3.752 -11.139  0.00  0.00     0.665 C 
HETATM   11  N           1     -22.147  -4.585 -11.906  0.00  0.00    -0.235 N 
HETATM   12  N           1     -20.640  -2.981 -11.598  0.00  0.00    -0.235 N 
HETATM   13  H           1     -22.907  -5.208 -11.535  0.00  0.00     0.174 HD
HETATM   14  H           1     -21.855  -4.655 -12.913  0.00  0.00     0.174 HD
HETATM   15  H           1     -20.173  -2.293 -10.965  0.00  0.00     0.174 HD
HETATM   16  H           1     -20.350  -3.050 -12.600  0.00  0.00     0.174 HD
HETATM   17  H           1     -21.464  -2.976  -9.290  0.00  0.00     0.177 HD
ENDBRANCH   8   9
ENDBRANCH   7   8
ENDBRANCH   6   7
ENDBRANCH   5   6
BRANCH   5  18
HETATM   18  C           1     -20.100  -5.755  -7.498  0.00  0.00     0.196 C 
HETATM   19  O           1     -19.438  -6.761  -7.164  0.00  0.00    -0.646 OA
HETATM   20  O           1     -19.710  -5.035  -8.442  0.00  0.00    -0.646 OA
ENDBRANCH   5  18
ENDBRANCH   3   5
BRANCH   4  21
HETATM   21  C           1     -21.308  -6.272  -3.028  0.00  0.00     0.274 C 
BRANCH  21  22
HETATM   22  C           1     -20.869  -7.645  -2.537  0.00  0.00     0.044 C 
BRANCH  22  23
HETATM   23  C           1     -21.308  -7.831  -1.091  0.00  0.00     0.030 C 
BRANCH  23  24
HETATM   24  C           1     -22.052  -9.153  -0.953  0.00  0.00     0.230 C 
BRANCH  24  25
HETATM   25  N           1     -23.152  -9.006   0.058  0.00  0.00    -0.079 N 
HETATM   26  H           1     -23.865  -8.331  -0.299  0.00  0.00     0.274 HD
HETATM   27  H           1     -23.601  -9.936   0.219  0.00  0.00     0.274 HD
HETATM   28  H           1     -22.754  -8.649   0.956  0.00  0.00     0.274 HD
ENDBRANCH  24  25
ENDBRANCH  23  24
ENDBRANCH  22  23
ENDBRANCH  21  22
BRANCH  21  29
HETATM   29  N           1     -22.555  -5.858  -2.303  0.00  0.00    -0.067 N 
HETATM   30  H           1     -22.681  -6.459  -1.458  0.00  0.00     0.275 HD
HETATM   31  H           1     -23.378  -5.968  -2.937  0.00  0.00     0.275 HD
HETATM   32  H           1     -22.472  -4.858  -2.010  0.00  0.00     0.275 HD
ENDBRANCH  21  29
ENDBRANCH   4  21
TORSDOF 12
ENDMDL
MODEL 5
REMARK VINA RESULT:      -6.0     12.479     15.069
REMARK  12 active torsions:
REMARK  status: ('A' for Active; 'I' for Inactive)
REMARK    1  A    between atoms: C_1  and  C_31 
REMARK    2  A    between atoms: C_1  and  C_28 
REMARK       I    between atoms: N_2  and  C_29 
REMARK    3  A    between atoms: N_2  and  C_23 
REMARK       I    between atoms: N_3  and  C_29 
REMARK    4  A    between atoms: C_5  and  C_32 
REMARK    5  A    between atoms: C_5  and  C_6 
REMARK    6  A    between atoms: C_5  and  N_18 
REMARK    7  A    between atoms: C_6  and  C_7 
REMARK    8  A    between atoms: C_7  and  C_11 
REMARK    9  A    between atoms: C_11  and  N_19 
REMARK   10  A    between atoms: C_23  and  C_31 
REMARK   11  A    between atoms: N_25  and  C_28 
REMARK       I    between atoms: N_25  and  C_32 
REMARK   12  A    between atoms: C_27  and  C_28 
ROOT
HETATM    1  H           1     -20.943  -4.878  -4.296  0.00  0.00     0.163 HD
HETATM    2  O           1     -21.621  -7.940  -4.405  0.00  0.00    -0.271 OA
HETATM    3  N           1     -21.152  -5.778  -4.711  0.00  0.00    -0.345 N 
HETATM    4  C           1     -21.372  -6.866  -3.910  0.00  0.00     0.249 C 
ENDROOT
BRANCH   3   5
HETATM    5  C           1     -21.215  -5.915  -6.153  0.00  0.00     0.185 C 
BRANCH   5   6
HETATM    6  C           1     -22.031  -4.769  -6.736  0.00  0.00     0.038 C 
BRANCH   6   7
HETATM    7  C           1     -22.203  -4.977  -8.234  0.00  0.00     0.023 C 
BRANCH   7   8
HETATM    8  C           1     -22.561  -3.653  -8.894  0.00  0.00     0.138 C 
BRANCH   8   9
HETATM    9  N           1     -24.004  -3.409  -8.752  0.00  0.00    -0.227 N 
HETATM   10  C           1     -24.782  -3.633  -9.725  0.00  0.00     0.665 C 
HETATM   11  N           1     -24.318  -4.067 -10.819  0.00  0.00    -0.235 N 
HETATM   12  N           1     -26.058  -3.417  -9.600  0.00  0.00    -0.235 N 
HETATM   13  H           1     -23.287  -4.241 -10.920  0.00  0.00     0.174 HD
HETATM   14  H           1     -24.963  -4.253 -11.627  0.00  0.00     0.174 HD
HETATM   15  H           1     -26.441  -3.059  -8.696  0.00  0.00     0.174 HD
HETATM   16  H           1     -26.701  -3.602 -10.403  0.00  0.00     0.174 HD
HETATM   17  H           1     -24.389  -3.048  -7.844  0.00  0.00     0.177 HD
ENDBRANCH   8   9
ENDBRANCH   7   8
ENDBRANCH   6   7
ENDBRANCH   5   6
BRANCH   5  18
HETATM   18  C           1     -19.818  -5.879  -6.723  0.00  0.00     0.196 C 
HETATM   19  O           1     -19.233  -4.786  -6.874  0.00  0.00    -0.646 OA
HETATM   20  O           1     -19.247  -6.944  -7.044  0.00  0.00    -0.646 OA
ENDBRANCH   5  18
ENDBRANCH   3   5
BRANCH   4  21
HETATM   21  C           1     -21.306  -6.724  -2.409  0.00  0.00     0.274 C 
BRANCH  21  22
HETATM   22  C           1     -21.468  -8.093  -1.761  0.00  0.00     0.044 C 
BRANCH  22  23
HETATM   23  C           1     -22.246  -7.950  -0.460  0.00  0.00     0.030 C 
BRANCH  23  24
HETATM   24  C           1     -22.945  -9.265  -0.139  0.00  0.00     0.230 C 
BRANCH  24  25
HETATM   25  N           1     -22.547 -10.303  -1.146  0.00  0.00    -0.079 N 
HETATM   26  H           1     -22.921 -10.041  -2.085  0.00  0.00     0.274 HD
HETATM   27  H           1     -21.504 -10.362  -1.191  0.00  0.00     0.274 HD
HETATM   28  H           1     -22.937 -11.230  -0.863  0.00  0.00     0.274 HD
ENDBRANCH  24  25
ENDBRANCH  23  24
ENDBRANCH  22  23
ENDBRANCH  21  22
BRANCH  21  29
HETATM   29  N           1     -22.409  -5.819  -1.944  0.00  0.00    -0.067 N 
HETATM   30  H           1     -23.302  -6.358  -1.891  0.00  0.00     0.275 HD
HETATM   31  H           1     -22.516  -5.028  -2.619  0.00  0.00     0.275 HD
HETATM   32  H           1     -22.173  -5.440  -0.999  0.00  0.00     0.275 HD
ENDBRANCH  21  29
ENDBRANCH   4  21
TORSDOF 12
ENDMDL
MODEL 6
REMARK VINA RESULT:      -6.0     13.082     15.136
REMARK  12 active torsions:
REMARK  status: ('A' for Active; 'I' for Inactive)
REMARK    1  A    between atoms: C_1  and  C_31 
REMARK    2  A    between atoms: C_1  and  C_28 
REMARK       I    between atoms: N_2  and  C_29 
REMARK    3  A    between atoms: N_2  and  C_23 
REMARK       I    between atoms: N_3  and  C_29 
REMARK    4  A    between atoms: C_5  and  C_32 
REMARK    5  A    between atoms: C_5  and  C_6 
REMARK    6  A    between atoms: C_5  and  N_18 
REMARK    7  A    between atoms: C_6  and  C_7 
REMARK    8  A    between atoms: C_7  and  C_11 
REMARK    9  A    between atoms: C_11  and  N_19 
REMARK   10  A    between atoms: C_23  and  C_31 
REMARK   11  A    between atoms: N_25  and  C_28 
REMARK       I    between atoms: N_25  and  C_32 
REMARK   12  A    between atoms: C_27  and  C_28 
ROOT
HETATM    1  H           1     -22.271  -6.973  -6.470  0.00  0.00     0.163 HD
HETATM    2  O           1     -20.268  -4.594  -6.049  0.00  0.00    -0.271 OA
HETATM    3  N           1     -21.569  -6.409  -6.006  0.00  0.00    -0.345 N 
HETATM    4  C           1     -21.107  -5.266  -6.602  0.00  0.00     0.249 C 
ENDROOT
BRANCH   3   5
HETATM    5  C           1     -21.052  -6.814  -4.714  0.00  0.00     0.185 C 
BRANCH   5   6
HETATM    6  C           1     -22.139  -6.656  -3.660  0.00  0.00     0.038 C 
BRANCH   6   7
HETATM    7  C           1     -21.532  -6.095  -2.382  0.00  0.00     0.023 C 
BRANCH   7   8
HETATM    8  C           1     -22.295  -6.631  -1.179  0.00  0.00     0.138 C 
BRANCH   8   9
HETATM    9  N           1     -22.100  -8.085  -1.082  0.00  0.00    -0.227 N 
HETATM   10  C           1     -22.710  -8.748  -0.193  0.00  0.00     0.665 C 
HETATM   11  N           1     -23.489  -8.158   0.612  0.00  0.00    -0.235 N 
HETATM   12  N           1     -22.538 -10.033  -0.107  0.00  0.00    -0.235 N 
HETATM   13  H           1     -23.628  -7.120   0.543  0.00  0.00     0.174 HD
HETATM   14  H           1     -23.996  -8.708   1.350  0.00  0.00     0.174 HD
HETATM   15  H           1     -21.895 -10.520  -0.772  0.00  0.00     0.174 HD
HETATM   16  H           1     -23.042 -10.581   0.626  0.00  0.00     0.174 HD
HETATM   17  H           1     -21.453  -8.573  -1.750  0.00  0.00     0.177 HD
ENDBRANCH   8   9
ENDBRANCH   7   8
ENDBRANCH   6   7
ENDBRANCH   5   6
BRANCH   5  18
HETATM   18  C           1     -20.616  -8.257  -4.776  0.00  0.00     0.196 C 
HETATM   19  O           1     -21.097  -9.089  -3.977  0.00  0.00    -0.646 OA
HETATM   20  O           1     -19.776  -8.621  -5.627  0.00  0.00    -0.646 OA
ENDBRANCH   5  18
ENDBRANCH   3   5
BRANCH   4  21
HETATM   21  C           1     -21.645  -4.846  -7.947  0.00  0.00     0.274 C 
BRANCH  21  22
HETATM   22  C           1     -20.602  -4.004  -8.672  0.00  0.00     0.044 C 
BRANCH  22  23
HETATM   23  C           1     -20.426  -4.526 -10.092  0.00  0.00     0.030 C 
BRANCH  23  24
HETATM   24  C           1     -21.213  -3.648 -11.056  0.00  0.00     0.230 C 
BRANCH  24  25
HETATM   25  N           1     -21.917  -4.512 -12.061  0.00  0.00    -0.079 N 
HETATM   26  H           1     -22.876  -4.136 -12.234  0.00  0.00     0.274 HD
HETATM   27  H           1     -21.377  -4.515 -12.956  0.00  0.00     0.274 HD
HETATM   28  H           1     -21.988  -5.487 -11.692  0.00  0.00     0.274 HD
ENDBRANCH  24  25
ENDBRANCH  23  24
ENDBRANCH  22  23
ENDBRANCH  21  22
BRANCH  21  29
HETATM   29  N           1     -22.893  -4.036  -7.755  0.00  0.00    -0.067 N 
HETATM   30  H           1     -23.286  -4.223  -6.805  0.00  0.00     0.275 HD
HETATM   31  H           1     -23.594  -4.301  -8.482  0.00  0.00     0.275 HD
HETATM   32  H           1     -22.666  -3.019  -7.843  0.00  0.00     0.275 HD
ENDBRANCH  21  29
ENDBRANCH   4  21
TORSDOF 12
ENDMDL
MODEL 7
REMARK VINA RESULT:      -5.9     13.652     16.004
REMARK  12 active torsions:
REMARK  status: ('A' for Active; 'I' for Inactive)
REMARK    1  A    between atoms: C_1  and  C_31 
REMARK    2  A    between atoms: C_1  and  C_28 
REMARK       I    between atoms: N_2  and  C_29 
REMARK    3  A    between atoms: N_2  and  C_23 
REMARK       I    between atoms: N_3  and  C_29 
REMARK    4  A    between atoms: C_5  and  C_32 
REMARK    5  A    between atoms: C_5  and  C_6 
REMARK    6  A    between atoms: C_5  and  N_18 
REMARK    7  A    between atoms: C_6  and  C_7 
REMARK    8  A    between atoms: C_7  and  C_11 
REMARK    9  A    between atoms: C_11  and  N_19 
REMARK   10  A    between atoms: C_23  and  C_31 
REMARK   11  A    between atoms: N_25  and  C_28 
REMARK       I    between atoms: N_25  and  C_32 
REMARK   12  A    between atoms: C_27  and  C_28 
ROOT
HETATM    1  H           1     -19.750  -6.816  -4.729  0.00  0.00     0.163 HD
HETATM    2  O           1     -22.564  -5.748  -5.615  0.00  0.00    -0.271 OA
HETATM    3  N           1     -20.758  -6.729  -4.739  0.00  0.00    -0.345 N 
HETATM    4  C           1     -21.360  -5.853  -5.603  0.00  0.00     0.249 C 
ENDROOT
BRANCH   3   5
HETATM    5  C           1     -21.565  -7.528  -3.839  0.00  0.00     0.185 C 
BRANCH   5   6
HETATM    6  C           1     -20.955  -8.917  -3.710  0.00  0.00     0.038 C 
BRANCH   6   7
HETATM    7  C           1     -22.016  -9.968  -4.009  0.00  0.00     0.023 C 
BRANCH   7   8
HETATM    8  C           1     -22.140 -10.917  -2.826  0.00  0.00     0.138 C 
BRANCH   8   9
HETATM    9  N           1     -21.547 -10.294  -1.633  0.00  0.00    -0.227 N 
HETATM   10  C           1     -22.247 -10.127  -0.592  0.00  0.00     0.665 C 
HETATM   11  N           1     -23.457 -10.496  -0.578  0.00  0.00    -0.235 N 
HETATM   12  N           1     -21.723  -9.576   0.462  0.00  0.00    -0.235 N 
HETATM   13  H           1     -23.881 -10.941  -1.430  0.00  0.00     0.174 HD
HETATM   14  H           1     -24.039 -10.357   0.286  0.00  0.00     0.174 HD
HETATM   15  H           1     -20.723  -9.271   0.450  0.00  0.00     0.174 HD
HETATM   16  H           1     -22.300  -9.438   1.322  0.00  0.00     0.174 HD
HETATM   17  H           1     -20.542  -9.988  -1.646  0.00  0.00     0.177 HD
ENDBRANCH   8   9
ENDBRANCH   7   8
ENDBRANCH   6   7
ENDBRANCH   5   6
BRANCH   5  18
HETATM   18  C           1     -21.608  -6.869  -2.482  0.00  0.00     0.196 C 
HETATM   19  O           1     -22.390  -5.917  -2.274  0.00  0.00    -0.646 OA
HETATM   20  O           1     -20.862  -7.276  -1.565  0.00  0.00    -0.646 OA
ENDBRANCH   5  18
ENDBRANCH   3   5
BRANCH   4  21
HETATM   21  C           1     -20.520  -5.020  -6.540  0.00  0.00     0.274 C 
BRANCH  21  22
HETATM   22  C           1     -21.377  -3.914  -7.143  0.00  0.00     0.044 C 
BRANCH  22  23
HETATM   23  C           1     -21.454  -4.097  -8.653  0.00  0.00     0.030 C 
BRANCH  23  24
HETATM   24  C           1     -22.910  -4.256  -9.071  0.00  0.00     0.230 C 
BRANCH  24  25
HETATM   25  N           1     -23.796  -4.101  -7.870  0.00  0.00    -0.079 N 
HETATM   26  H           1     -24.602  -4.762  -7.943  0.00  0.00     0.274 HD
HETATM   27  H           1     -23.249  -4.311  -7.005  0.00  0.00     0.274 HD
HETATM   28  H           1     -24.155  -3.120  -7.827  0.00  0.00     0.274 HD
ENDBRANCH  24  25
ENDBRANCH  23  24
ENDBRANCH  22  23
ENDBRANCH  21  22
BRANCH  21  29
HETATM   29  N           1     -19.985  -5.891  -7.638  0.00  0.00    -0.067 N 
HETATM   30  H           1     -20.658  -5.897  -8.437  0.00  0.00     0.275 HD
HETATM   31  H           1     -19.859  -6.864  -7.279  0.00  0.00     0.275 HD
HETATM   32  H           1     -19.064  -5.517  -7.962  0.00  0.00     0.275 HD
ENDBRANCH  21  29
ENDBRANCH   4  21
TORSDOF 12
ENDMDL
MODEL 8
REMARK VINA RESULT:      -5.8     13.131     15.487
REMARK  12 active torsions:
REMARK  status: ('A' for Active; 'I' for Inactive)
REMARK    1  A    between atoms: C_1  and  C_31 
REMARK    2  A    between atoms: C_1  and  C_28 
REMARK       I    between atoms: N_2  and  C_29 
REMARK    3  A    between atoms: N_2  and  C_23 
REMARK       I    between atoms: N_3  and  C_29 
REMARK    4  A    between atoms: C_5  and  C_32 
REMARK    5  A    between atoms: C_5  and  C_6 
REMARK    6  A    between atoms: C_5  and  N_18 
REMARK    7  A    between atoms: C_6  and  C_7 
REMARK    8  A    between atoms: C_7  and  C_11 
REMARK    9  A    between atoms: C_11  and  N_19 
REMARK   10  A    between atoms: C_23  and  C_31 
REMARK   11  A    between atoms: N_25  and  C_28 
REMARK       I    between atoms: N_25  and  C_32 
REMARK   12  A    between atoms: C_27  and  C_28 
ROOT
HETATM    1  H           1     -22.247  -6.341  -6.330  0.00  0.00     0.163 HD
HETATM    2  O           1     -19.871  -4.477  -5.478  0.00  0.00    -0.271 OA
HETATM    3  N           1     -21.487  -5.993  -5.759  0.00  0.00    -0.345 N 
HETATM    4  C           1     -20.779  -4.892  -6.159  0.00  0.00     0.249 C 
ENDROOT
BRANCH   3   5
HETATM    5  C           1     -21.147  -6.662  -4.518  0.00  0.00     0.185 C 
BRANCH   5   6
HETATM    6  C           1     -22.328  -6.588  -3.562  0.00  0.00     0.038 C 
BRANCH   6   7
HETATM    7  C           1     -21.865  -6.028  -2.223  0.00  0.00     0.023 C 
BRANCH   7   8
HETATM    8  C           1     -22.268  -6.980  -1.107  0.00  0.00     0.138 C 
BRANCH   8   9
HETATM    9  N           1     -21.368  -8.143  -1.104  0.00  0.00    -0.227 N 
HETATM   10  C           1     -21.772  -9.255  -0.657  0.00  0.00     0.665 C 
HETATM   11  N           1     -22.951  -9.367  -0.211  0.00  0.00    -0.235 N 
HETATM   12  N           1     -20.976 -10.283  -0.654  0.00  0.00    -0.235 N 
HETATM   13  H           1     -23.594  -8.537  -0.213  0.00  0.00     0.174 HD
HETATM   14  H           1     -23.287 -10.291   0.161  0.00  0.00     0.174 HD
HETATM   15  H           1     -20.002 -10.191  -1.023  0.00  0.00     0.174 HD
HETATM   16  H           1     -21.310 -11.202  -0.285  0.00  0.00     0.174 HD
HETATM   17  H           1     -20.389  -8.049  -1.474  0.00  0.00     0.177 HD
ENDBRANCH   8   9
ENDBRANCH   7   8
ENDBRANCH   6   7
ENDBRANCH   5   6
BRANCH   5  18
HETATM   18  C           1     -20.817  -8.108  -4.800  0.00  0.00     0.196 C 
HETATM   19  O           1     -21.394  -9.015  -4.164  0.00  0.00    -0.646 OA
HETATM   20  O           1     -19.968  -8.397  -5.671  0.00  0.00    -0.646 OA
ENDBRANCH   5  18
ENDBRANCH   3   5
BRANCH   4  21
HETATM   21  C           1     -21.132  -4.196  -7.450  0.00  0.00     0.274 C 
BRANCH  21  22
HETATM   22  C           1     -22.635  -4.287  -7.683  0.00  0.00     0.044 C 
BRANCH  22  23
HETATM   23  C           1     -22.907  -4.500  -9.166  0.00  0.00     0.030 C 
BRANCH  23  24
HETATM   24  C           1     -23.911  -3.462  -9.652  0.00  0.00     0.230 C 
BRANCH  24  25
HETATM   25  N           1     -25.295  -4.038  -9.595  0.00  0.00    -0.079 N 
HETATM   26  H           1     -25.966  -3.380 -10.052  0.00  0.00     0.274 HD
HETATM   27  H           1     -25.311  -4.956 -10.096  0.00  0.00     0.274 HD
HETATM   28  H           1     -25.572  -4.180  -8.597  0.00  0.00     0.274 HD
ENDBRANCH  24  25
ENDBRANCH  23  24
ENDBRANCH  22  23
ENDBRANCH  21  22
BRANCH  21  29
HETATM   29  N           1     -20.410  -4.856  -8.588  0.00  0.00    -0.067 N 
HETATM   30  H           1     -20.613  -4.342  -9.474  0.00  0.00     0.275 HD
HETATM   31  H           1     -20.733  -5.846  -8.675  0.00  0.00     0.275 HD
HETATM   32  H           1     -19.382  -4.840  -8.403  0.00  0.00     0.275 HD
ENDBRANCH  21  29
ENDBRANCH   4  21
TORSDOF 12
ENDMDL
MODEL 9
REMARK VINA RESULT:      -5.8     13.379     16.221
REMARK  12 active torsions:
REMARK  status: ('A' for Active; 'I' for Inactive)
REMARK    1  A    between atoms: C_1  and  C_31 
REMARK    2  A    between atoms: C_1  and  C_28 
REMARK       I    between atoms: N_2  and  C_29 
REMARK    3  A    between atoms: N_2  and  C_23 
REMARK       I    between atoms: N_3  and  C_29 
REMARK    4  A    between atoms: C_5  and  C_32 
REMARK    5  A    between atoms: C_5  and  C_6 
REMARK    6  A    between atoms: C_5  and  N_18 
REMARK    7  A    between atoms: C_6  and  C_7 
REMARK    8  A    between atoms: C_7  and  C_11 
REMARK    9  A    between atoms: C_11  and  N_19 
REMARK   10  A    between atoms: C_23  and  C_31 
REMARK   11  A    between atoms: N_25  and  C_28 
REMARK       I    between atoms: N_25  and  C_32 
REMARK   12  A    between atoms: C_27  and  C_28 
ROOT
HETATM    1  H           1     -19.782  -6.465  -4.861  0.00  0.00     0.163 HD
HETATM    2  O           1     -22.610  -5.489  -5.808  0.00  0.00    -0.271 OA
HETATM    3  N           1     -20.792  -6.432  -4.916  0.00  0.00    -0.345 N 
HETATM    4  C           1     -21.404  -5.528  -5.743  0.00  0.00     0.249 C 
ENDROOT
BRANCH   3   5
HETATM    5  C           1     -21.591  -7.341  -4.118  0.00  0.00     0.185 C 
BRANCH   5   6
HETATM    6  C           1     -20.972  -8.731  -4.159  0.00  0.00     0.038 C 
BRANCH   6   7
HETATM    7  C           1     -19.598  -8.657  -4.813  0.00  0.00     0.023 C 
BRANCH   7   8
HETATM    8  C           1     -18.558  -9.263  -3.881  0.00  0.00     0.138 C 
BRANCH   8   9
HETATM    9  N           1     -17.487  -9.879  -4.676  0.00  0.00    -0.227 N 
HETATM   10  C           1     -16.311  -9.945  -4.212  0.00  0.00     0.665 C 
HETATM   11  N           1     -16.059  -9.480  -3.062  0.00  0.00    -0.235 N 
HETATM   12  N           1     -15.364 -10.491  -4.915  0.00  0.00    -0.235 N 
HETATM   13  H           1     -16.824  -9.040  -2.494  0.00  0.00     0.174 HD
HETATM   14  H           1     -15.083  -9.535  -2.676  0.00  0.00     0.174 HD
HETATM   15  H           1     -15.572 -10.875  -5.864  0.00  0.00     0.174 HD
HETATM   16  H           1     -14.393 -10.545  -4.531  0.00  0.00     0.174 HD
HETATM   17  H           1     -17.697 -10.265  -5.631  0.00  0.00     0.177 HD
ENDBRANCH   8   9
ENDBRANCH   7   8
ENDBRANCH   6   7
ENDBRANCH   5   6
BRANCH   5  18
HETATM   18  C           1     -21.635  -6.851  -2.691  0.00  0.00     0.196 C 
HETATM   19  O           1     -22.397  -5.912  -2.376  0.00  0.00    -0.646 OA
HETATM   20  O           1     -20.910  -7.386  -1.824  0.00  0.00    -0.646 OA
ENDBRANCH   5  18
ENDBRANCH   3   5
BRANCH   4  21
HETATM   21  C           1     -20.572  -4.582  -6.573  0.00  0.00     0.274 C 
BRANCH  21  22
HETATM   22  C           1     -21.489  -3.626  -7.326  0.00  0.00     0.044 C 
BRANCH  22  23
HETATM   23  C           1     -21.567  -4.045  -8.789  0.00  0.00     0.030 C 
BRANCH  23  24
HETATM   24  C           1     -23.002  -3.906  -9.280  0.00  0.00     0.230 C 
BRANCH  24  25
HETATM   25  N           1     -23.944  -4.028  -8.119  0.00  0.00    -0.079 N 
HETATM   26  H           1     -24.929  -4.030  -8.467  0.00  0.00     0.274 HD
HETATM   27  H           1     -23.753  -4.921  -7.609  0.00  0.00     0.274 HD
HETATM   28  H           1     -23.805  -3.220  -7.472  0.00  0.00     0.274 HD
ENDBRANCH  24  25
ENDBRANCH  23  24
ENDBRANCH  22  23
ENDBRANCH  21  22
BRANCH  21  29
HETATM   29  N           1     -19.754  -5.367  -7.556  0.00  0.00    -0.067 N 
HETATM   30  H           1     -20.280  -5.454  -8.455  0.00  0.00     0.275 HD
HETATM   31  H           1     -19.564  -6.318  -7.168  0.00  0.00     0.275 HD
HETATM   32  H           1     -18.849  -4.874  -7.728  0.00  0.00     0.275 HD
ENDBRANCH  21  29
ENDBRANCH   4  21
TORSDOF 12
ENDMDL
