MODEL 1
REMARK VINA RESULT:      -5.9      0.000      0.000
REMARK  8 active torsions:
REMARK  status: ('A' for Active; 'I' for Inactive)
REMARK    1  A    between atoms: C_2  and  C_17 
REMARK    2  A    between atoms: C_2  and  C_16 
REMARK    3  A    between atoms: C_2  and  N_9 
REMARK    4  A    between atoms: C_5  and  C_6 
REMARK    5  A    between atoms: C_5  and  C_14 
REMARK    6  A    between atoms: C_5  and  N_19 
REMARK    7  A    between atoms: C_6  and  O_7 
REMARK    8  A    between atoms: O_11  and  C_16 
REMARK       I    between atoms: C_17  and  N_19 
ROOT
HETATM    1  O           1     -36.681  -1.187 -12.690  0.00  0.00    -0.271 OA
HETATM    2  C           1     -35.494  -1.052 -12.867  0.00  0.00     0.251 C 
HETATM    3  N           1     -35.035  -0.471 -14.018  0.00  0.00    -0.343 N 
HETATM    4  H           1     -34.040  -0.357 -14.166  0.00  0.00     0.163 HD
ENDROOT
BRANCH   2   5
HETATM    5  C           1     -34.517  -1.524 -11.818  0.00  0.00     0.302 C 
BRANCH   5   6
HETATM    6  C           1     -34.079  -2.947 -12.135  0.00  0.00     0.153 C 
HETATM    7  C           1     -34.775  -3.915 -11.187  0.00  0.00     0.042 C 
BRANCH   6   8
HETATM    8  O           1     -34.425  -3.261 -13.457  0.00  0.00    -0.393 OA
HETATM    9  H           1     -33.864  -3.967 -13.726  0.00  0.00     0.210 HD
ENDBRANCH   6   8
ENDBRANCH   5   6
BRANCH   5  10
HETATM   10  N           1     -35.177  -1.492 -10.471  0.00  0.00    -0.064 N 
HETATM   11  H           1     -35.010  -0.563 -10.024  0.00  0.00     0.275 HD
HETATM   12  H           1     -36.204  -1.647 -10.582  0.00  0.00     0.275 HD
HETATM   13  H           1     -34.773  -2.246  -9.869  0.00  0.00     0.275 HD
ENDBRANCH   5  10
ENDBRANCH   2   5
BRANCH   3  14
HETATM   14  C           1     -35.975  -0.018 -15.025  0.00  0.00     0.209 C 
BRANCH  14  15
HETATM   15  C           1     -35.590   1.384 -15.483  0.00  0.00     0.200 C 
BRANCH  15  16
HETATM   16  O           1     -36.690   1.991 -16.107  0.00  0.00    -0.398 OA
HETATM   17  H           1     -37.414   1.395 -16.023  0.00  0.00     0.209 HD
ENDBRANCH  15  16
ENDBRANCH  14  15
BRANCH  14  18
HETATM   18  C           1     -35.942  -0.959 -16.204  0.00  0.00     0.198 C 
HETATM   19  O           1     -35.148  -1.925 -16.211  0.00  0.00    -0.646 OA
HETATM   20  O           1     -36.708  -0.773 -17.174  0.00  0.00    -0.646 OA
ENDBRANCH  14  18
ENDBRANCH   3  14
TORSDOF 8
ENDMDL
MODEL 2
REMARK VINA RESULT:      -5.5     13.339     14.981
REMARK  8 active torsions:
REMARK  status: ('A' for Active; 'I' for Inactive)
REMARK    1  A    between atoms: C_2  and  C_17 
REMARK    2  A    between atoms: C_2  and  C_16 
REMARK    3  A    between atoms: C_2  and  N_9 
REMARK    4  A    between atoms: C_5  and  C_6 
REMARK    5  A    between atoms: C_5  and  C_14 
REMARK    6  A    between atoms: C_5  and  N_19 
REMARK    7  A    between atoms: C_6  and  O_7 
REMARK    8  A    between atoms: O_11  and  C_16 
REMARK       I    between atoms: C_17  and  N_19 
ROOT
HETATM    1  O           1     -21.566  -3.498  -7.481  0.00  0.00    -0.271 OA
HETATM    2  C           1     -21.670  -4.631  -7.886  0.00  0.00     0.251 C 
HETATM    3  N           1     -22.178  -4.870  -9.134  0.00  0.00    -0.343 N 
HETATM    4  H           1     -22.264  -5.819  -9.473  0.00  0.00     0.163 HD
ENDROOT
BRANCH   2   5
HETATM    5  C           1     -21.240  -5.785  -7.013  0.00  0.00     0.302 C 
BRANCH   5   6
HETATM    6  C           1     -21.260  -5.353  -5.553  0.00  0.00     0.153 C 
HETATM    7  C           1     -21.307  -6.587  -4.660  0.00  0.00     0.042 C 
BRANCH   6   8
HETATM    8  O           1     -20.103  -4.615  -5.267  0.00  0.00    -0.393 OA
HETATM    9  H           1     -19.856  -4.174  -6.061  0.00  0.00     0.210 HD
ENDBRANCH   6   8
ENDBRANCH   5   6
BRANCH   5  10
HETATM   10  N           1     -19.850  -6.205  -7.390  0.00  0.00    -0.064 N 
HETATM   11  H           1     -19.192  -5.970  -6.613  0.00  0.00     0.275 HD
HETATM   12  H           1     -19.831  -7.236  -7.563  0.00  0.00     0.275 HD
HETATM   13  H           1     -19.558  -5.701  -8.258  0.00  0.00     0.275 HD
ENDBRANCH   5  10
ENDBRANCH   2   5
BRANCH   3  14
HETATM   14  C           1     -22.591  -3.760  -9.972  0.00  0.00     0.209 C 
BRANCH  14  15
HETATM   15  C           1     -21.829  -3.810 -11.291  0.00  0.00     0.200 C 
BRANCH  15  16
HETATM   16  O           1     -22.592  -4.497 -12.246  0.00  0.00    -0.398 OA
HETATM   17  H           1     -22.242  -5.369 -12.300  0.00  0.00     0.209 HD
ENDBRANCH  15  16
ENDBRANCH  14  15
BRANCH  14  18
HETATM   18  C           1     -24.072  -3.859 -10.242  0.00  0.00     0.198 C 
HETATM   19  O           1     -24.700  -4.890  -9.919  0.00  0.00    -0.646 OA
HETATM   20  O           1     -24.671  -2.908 -10.790  0.00  0.00    -0.646 OA
ENDBRANCH  14  18
ENDBRANCH   3  14
TORSDOF 8
ENDMDL
MODEL 3
REMARK VINA RESULT:      -5.3      2.324      5.246
REMARK  8 active torsions:
REMARK  status: ('A' for Active; 'I' for Inactive)
REMARK    1  A    between atoms: C_2  and  C_17 
REMARK    2  A    between atoms: C_2  and  C_16 
REMARK    3  A    between atoms: C_2  and  N_9 
REMARK    4  A    between atoms: C_5  and  C_6 
REMARK    5  A    between atoms: C_5  and  C_14 
REMARK    6  A    between atoms: C_5  and  N_19 
REMARK    7  A    between atoms: C_6  and  O_7 
REMARK    8  A    between atoms: O_11  and  C_16 
REMARK       I    between atoms: C_17  and  N_19 
ROOT
HETATM    1  O           1     -33.905  -1.314 -11.045  0.00  0.00    -0.271 OA
HETATM    2  C           1     -34.929  -1.774 -11.490  0.00  0.00     0.251 C 
HETATM    3  N           1     -35.083  -3.130 -11.596  0.00  0.00    -0.343 N 
HETATM    4  H           1     -35.942  -3.514 -11.968  0.00  0.00     0.163 HD
ENDROOT
BRANCH   2   5
HETATM    5  C           1     -36.040  -0.852 -11.928  0.00  0.00     0.302 C 
BRANCH   5   6
HETATM    6  C           1     -35.872  -0.518 -13.404  0.00  0.00     0.153 C 
HETATM    7  C           1     -35.105   0.791 -13.544  0.00  0.00     0.042 C 
BRANCH   6   8
HETATM    8  O           1     -35.159  -1.545 -14.039  0.00  0.00    -0.393 OA
HETATM    9  H           1     -35.791  -2.185 -14.316  0.00  0.00     0.210 HD
ENDBRANCH   6   8
ENDBRANCH   5   6
BRANCH   5  10
HETATM   10  N           1     -35.988   0.412 -11.122  0.00  0.00    -0.064 N 
HETATM   11  H           1     -36.951   0.660 -10.801  0.00  0.00     0.275 HD
HETATM   12  H           1     -35.369   0.271 -10.292  0.00  0.00     0.275 HD
HETATM   13  H           1     -35.608   1.186 -11.712  0.00  0.00     0.275 HD
ENDBRANCH   5  10
ENDBRANCH   2   5
BRANCH   3  14
HETATM   14  C           1     -34.015  -4.015 -11.175  0.00  0.00     0.209 C 
BRANCH  14  15
HETATM   15  C           1     -34.606  -5.346 -10.727  0.00  0.00     0.200 C 
BRANCH  15  16
HETATM   16  O           1     -34.407  -6.307 -11.727  0.00  0.00    -0.398 OA
HETATM   17  H           1     -35.073  -6.167 -12.377  0.00  0.00     0.209 HD
ENDBRANCH  15  16
ENDBRANCH  14  15
BRANCH  14  18
HETATM   18  C           1     -33.069  -4.247 -12.328  0.00  0.00     0.198 C 
HETATM   19  O           1     -33.427  -3.975 -13.494  0.00  0.00    -0.646 OA
HETATM   20  O           1     -31.928  -4.712 -12.116  0.00  0.00    -0.646 OA
ENDBRANCH  14  18
ENDBRANCH   3  14
TORSDOF 8
ENDMDL
MODEL 4
REMARK VINA RESULT:      -5.3     10.410     11.501
REMARK  8 active torsions:
REMARK  status: ('A' for Active; 'I' for Inactive)
REMARK    1  A    between atoms: C_2  and  C_17 
REMARK    2  A    between atoms: C_2  and  C_16 
REMARK    3  A    between atoms: C_2  and  N_9 
REMARK    4  A    between atoms: C_5  and  C_6 
REMARK    5  A    between atoms: C_5  and  C_14 
REMARK    6  A    between atoms: C_5  and  N_19 
REMARK    7  A    between atoms: C_6  and  O_7 
REMARK    8  A    between atoms: O_11  and  C_16 
REMARK       I    between atoms: C_17  and  N_19 
ROOT
HETATM    1  O           1     -28.398  -5.172 -19.245  0.00  0.00    -0.271 OA
HETATM    2  C           1     -28.278  -6.226 -18.668  0.00  0.00     0.251 C 
HETATM    3  N           1     -27.387  -7.159 -19.123  0.00  0.00    -0.343 N 
HETATM    4  H           1     -27.286  -8.042 -18.638  0.00  0.00     0.163 HD
ENDROOT
BRANCH   2   5
HETATM    5  C           1     -29.111  -6.512 -17.442  0.00  0.00     0.302 C 
BRANCH   5   6
HETATM    6  C           1     -28.333  -6.117 -16.194  0.00  0.00     0.153 C 
HETATM    7  C           1     -27.879  -7.372 -15.461  0.00  0.00     0.042 C 
BRANCH   6   8
HETATM    8  O           1     -27.211  -5.360 -16.562  0.00  0.00    -0.393 OA
HETATM    9  H           1     -27.514  -4.691 -17.151  0.00  0.00     0.210 HD
ENDBRANCH   6   8
ENDBRANCH   5   6
BRANCH   5  10
HETATM   10  N           1     -29.432  -7.976 -17.387  0.00  0.00    -0.064 N 
HETATM   11  H           1     -30.114  -8.212 -18.143  0.00  0.00     0.275 HD
HETATM   12  H           1     -28.556  -8.531 -17.522  0.00  0.00     0.275 HD
HETATM   13  H           1     -29.849  -8.206 -16.457  0.00  0.00     0.275 HD
ENDBRANCH   5  10
ENDBRANCH   2   5
BRANCH   3  14
HETATM   14  C           1     -26.587  -6.883 -20.300  0.00  0.00     0.209 C 
BRANCH  14  15
HETATM   15  C           1     -25.164  -6.540 -19.877  0.00  0.00     0.200 C 
BRANCH  15  16
HETATM   16  O           1     -25.033  -6.710 -18.492  0.00  0.00    -0.398 OA
HETATM   17  H           1     -24.127  -6.565 -18.283  0.00  0.00     0.209 HD
ENDBRANCH  15  16
ENDBRANCH  14  15
BRANCH  14  18
HETATM   18  C           1     -26.567  -8.101 -21.192  0.00  0.00     0.198 C 
HETATM   19  O           1     -27.614  -8.757 -21.378  0.00  0.00    -0.646 OA
HETATM   20  O           1     -25.502  -8.453 -21.744  0.00  0.00    -0.646 OA
ENDBRANCH  14  18
ENDBRANCH   3  14
TORSDOF 8
ENDMDL
MODEL 5
REMARK VINA RESULT:      -5.2     10.818     12.146
REMARK  8 active torsions:
REMARK  status: ('A' for Active; 'I' for Inactive)
REMARK    1  A    between atoms: C_2  and  C_17 
REMARK    2  A    between atoms: C_2  and  C_16 
REMARK    3  A    between atoms: C_2  and  N_9 
REMARK    4  A    between atoms: C_5  and  C_6 
REMARK    5  A    between atoms: C_5  and  C_14 
REMARK    6  A    between atoms: C_5  and  N_19 
REMARK    7  A    between atoms: C_6  and  O_7 
REMARK    8  A    between atoms: O_11  and  C_16 
REMARK       I    between atoms: C_17  and  N_19 
ROOT
HETATM    1  O           1     -27.237  -6.302 -20.288  0.00  0.00    -0.271 OA
HETATM    2  C           1     -26.395  -6.506 -19.446  0.00  0.00     0.251 C 
HETATM    3  N           1     -26.731  -6.482 -18.120  0.00  0.00    -0.343 N 
HETATM    4  H           1     -26.025  -6.653 -17.415  0.00  0.00     0.163 HD
ENDROOT
BRANCH   2   5
HETATM    5  C           1     -24.971  -6.786 -19.859  0.00  0.00     0.302 C 
BRANCH   5   6
HETATM    6  C           1     -24.964  -7.577 -21.160  0.00  0.00     0.153 C 
HETATM    7  C           1     -23.605  -8.239 -21.345  0.00  0.00     0.042 C 
BRANCH   6   8
HETATM    8  O           1     -25.960  -8.562 -21.114  0.00  0.00    -0.393 OA
HETATM    9  H           1     -25.554  -9.347 -20.788  0.00  0.00     0.210 HD
ENDBRANCH   6   8
ENDBRANCH   5   6
BRANCH   5  10
HETATM   10  N           1     -24.288  -7.584 -18.787  0.00  0.00    -0.064 N 
HETATM   11  H           1     -24.451  -7.131 -17.859  0.00  0.00     0.275 HD
HETATM   12  H           1     -24.674  -8.555 -18.774  0.00  0.00     0.275 HD
HETATM   13  H           1     -23.261  -7.620 -18.981  0.00  0.00     0.275 HD
ENDBRANCH   5  10
ENDBRANCH   2   5
BRANCH   3  14
HETATM   14  C           1     -28.100  -6.212 -17.724  0.00  0.00     0.209 C 
BRANCH  14  15
HETATM   15  C           1     -28.446  -7.045 -16.496  0.00  0.00     0.200 C 
BRANCH  15  16
HETATM   16  O           1     -27.271  -7.370 -15.804  0.00  0.00    -0.398 OA
HETATM   17  H           1     -27.497  -8.040 -15.183  0.00  0.00     0.209 HD
ENDBRANCH  15  16
ENDBRANCH  14  15
BRANCH  14  18
HETATM   18  C           1     -28.249  -4.747 -17.397  0.00  0.00     0.198 C 
HETATM   19  O           1     -27.584  -4.243 -16.466  0.00  0.00    -0.646 OA
HETATM   20  O           1     -29.039  -4.037 -18.057  0.00  0.00    -0.646 OA
ENDBRANCH  14  18
ENDBRANCH   3  14
TORSDOF 8
ENDMDL
MODEL 6
REMARK VINA RESULT:      -5.2      9.371     10.901
REMARK  8 active torsions:
REMARK  status: ('A' for Active; 'I' for Inactive)
REMARK    1  A    between atoms: C_2  and  C_17 
REMARK    2  A    between atoms: C_2  and  C_16 
REMARK    3  A    between atoms: C_2  and  N_9 
REMARK    4  A    between atoms: C_5  and  C_6 
REMARK    5  A    between atoms: C_5  and  C_14 
REMARK    6  A    between atoms: C_5  and  N_19 
REMARK    7  A    between atoms: C_6  and  O_7 
REMARK    8  A    between atoms: O_11  and  C_16 
REMARK       I    between atoms: C_17  and  N_19 
ROOT
HETATM    1  O           1     -27.532  -4.766 -16.100  0.00  0.00    -0.271 OA
HETATM    2  C           1     -27.936  -5.732 -16.701  0.00  0.00     0.251 C 
HETATM    3  N           1     -27.050  -6.592 -17.292  0.00  0.00    -0.343 N 
HETATM    4  H           1     -27.389  -7.402 -17.796  0.00  0.00     0.163 HD
ENDROOT
BRANCH   2   5
HETATM    5  C           1     -29.420  -5.992 -16.800  0.00  0.00     0.302 C 
BRANCH   5   6
HETATM    6  C           1     -29.998  -5.201 -17.966  0.00  0.00     0.153 C 
HETATM    7  C           1     -30.729  -3.976 -17.435  0.00  0.00     0.042 C 
BRANCH   6   8
HETATM    8  O           1     -28.960  -4.793 -18.816  0.00  0.00    -0.393 OA
HETATM    9  H           1     -28.466  -4.141 -18.350  0.00  0.00     0.210 HD
ENDBRANCH   6   8
ENDBRANCH   5   6
BRANCH   5  10
HETATM   10  N           1     -30.088  -5.563 -15.527  0.00  0.00    -0.064 N 
HETATM   11  H           1     -30.366  -4.559 -15.601  0.00  0.00     0.275 HD
HETATM   12  H           1     -30.937  -6.150 -15.364  0.00  0.00     0.275 HD
HETATM   13  H           1     -29.424  -5.683 -14.729  0.00  0.00     0.275 HD
ENDBRANCH   5  10
ENDBRANCH   2   5
BRANCH   3  14
HETATM   14  C           1     -25.625  -6.342 -17.197  0.00  0.00     0.209 C 
BRANCH  14  15
HETATM   15  C           1     -25.040  -7.172 -16.061  0.00  0.00     0.200 C 
BRANCH  15  16
HETATM   16  O           1     -24.966  -6.390 -14.899  0.00  0.00    -0.398 OA
HETATM   17  H           1     -24.549  -5.581 -15.141  0.00  0.00     0.209 HD
ENDBRANCH  15  16
ENDBRANCH  14  15
BRANCH  14  18
HETATM   18  C           1     -24.959  -6.725 -18.495  0.00  0.00     0.198 C 
HETATM   19  O           1     -25.640  -6.846 -19.536  0.00  0.00    -0.646 OA
HETATM   20  O           1     -23.724  -6.922 -18.529  0.00  0.00    -0.646 OA
ENDBRANCH  14  18
ENDBRANCH   3  14
TORSDOF 8
ENDMDL
MODEL 7
REMARK VINA RESULT:      -4.9     10.482     11.558
REMARK  8 active torsions:
REMARK  status: ('A' for Active; 'I' for Inactive)
REMARK    1  A    between atoms: C_2  and  C_17 
REMARK    2  A    between atoms: C_2  and  C_16 
REMARK    3  A    between atoms: C_2  and  N_9 
REMARK    4  A    between atoms: C_5  and  C_6 
REMARK    5  A    between atoms: C_5  and  C_14 
REMARK    6  A    between atoms: C_5  and  N_19 
REMARK    7  A    between atoms: C_6  and  O_7 
REMARK    8  A    between atoms: O_11  and  C_16 
REMARK       I    between atoms: C_17  and  N_19 
ROOT
HETATM    1  O           1     -26.098  -6.231 -17.445  0.00  0.00    -0.271 OA
HETATM    2  C           1     -26.340  -6.432 -18.611  0.00  0.00     0.251 C 
HETATM    3  N           1     -27.635  -6.436 -19.052  0.00  0.00    -0.343 N 
HETATM    4  H           1     -27.837  -6.604 -20.029  0.00  0.00     0.163 HD
ENDROOT
BRANCH   2   5
HETATM    5  C           1     -25.211  -6.677 -19.582  0.00  0.00     0.302 C 
BRANCH   5   6
HETATM    6  C           1     -25.770  -7.253 -20.877  0.00  0.00     0.153 C 
HETATM    7  C           1     -24.626  -7.771 -21.737  0.00  0.00     0.042 C 
BRANCH   6   8
HETATM    8  O           1     -26.645  -8.308 -20.580  0.00  0.00    -0.393 OA
HETATM    9  H           1     -26.836  -8.254 -19.660  0.00  0.00     0.210 HD
ENDBRANCH   6   8
ENDBRANCH   5   6
BRANCH   5  10
HETATM   10  N           1     -24.238  -7.649 -18.983  0.00  0.00    -0.064 N 
HETATM   11  H           1     -23.469  -7.837 -19.665  0.00  0.00     0.275 HD
HETATM   12  H           1     -23.837  -7.246 -18.107  0.00  0.00     0.275 HD
HETATM   13  H           1     -24.733  -8.543 -18.761  0.00  0.00     0.275 HD
ENDBRANCH   5  10
ENDBRANCH   2   5
BRANCH   3  14
HETATM   14  C           1     -28.719  -6.201 -18.117  0.00  0.00     0.209 C 
BRANCH  14  15
HETATM   15  C           1     -29.357  -4.849 -18.411  0.00  0.00     0.200 C 
BRANCH  15  16
HETATM   16  O           1     -30.039  -4.396 -17.274  0.00  0.00    -0.398 OA
HETATM   17  H           1     -29.903  -3.465 -17.226  0.00  0.00     0.209 HD
ENDBRANCH  15  16
ENDBRANCH  14  15
BRANCH  14  18
HETATM   18  C           1     -29.755  -7.288 -18.263  0.00  0.00     0.198 C 
HETATM   19  O           1     -30.862  -7.178 -17.693  0.00  0.00    -0.646 OA
HETATM   20  O           1     -29.506  -8.299 -18.955  0.00  0.00    -0.646 OA
ENDBRANCH  14  18
ENDBRANCH   3  14
TORSDOF 8
ENDMDL
MODEL 8
REMARK VINA RESULT:      -4.8     13.872     16.140
REMARK  8 active torsions:
REMARK  status: ('A' for Active; 'I' for Inactive)
REMARK    1  A    between atoms: C_2  and  C_17 
REMARK    2  A    between atoms: C_2  and  C_16 
REMARK    3  A    between atoms: C_2  and  N_9 
REMARK    4  A    between atoms: C_5  and  C_6 
REMARK    5  A    between atoms: C_5  and  C_14 
REMARK    6  A    between atoms: C_5  and  N_19 
REMARK    7  A    between atoms: C_6  and  O_7 
REMARK    8  A    between atoms: O_11  and  C_16 
REMARK       I    between atoms: C_17  and  N_19 
ROOT
HETATM    1  O           1     -19.926  -4.856 -10.083  0.00  0.00    -0.271 OA
HETATM    2  C           1     -21.017  -4.500  -9.707  0.00  0.00     0.251 C 
HETATM    3  N           1     -21.434  -4.795  -8.437  0.00  0.00    -0.343 N 
HETATM    4  H           1     -22.348  -4.496  -8.121  0.00  0.00     0.163 HD
ENDROOT
BRANCH   2   5
HETATM    5  C           1     -21.921  -3.729 -10.637  0.00  0.00     0.302 C 
BRANCH   5   6
HETATM    6  C           1     -23.202  -4.518 -10.872  0.00  0.00     0.153 C 
HETATM    7  C           1     -24.390  -3.722 -10.349  0.00  0.00     0.042 C 
BRANCH   6   8
HETATM    8  O           1     -23.364  -4.750 -12.245  0.00  0.00    -0.393 OA
HETATM    9  H           1     -23.781  -3.986 -12.604  0.00  0.00     0.210 HD
ENDBRANCH   6   8
ENDBRANCH   5   6
BRANCH   5  10
HETATM   10  N           1     -21.221  -3.513 -11.947  0.00  0.00    -0.064 N 
HETATM   11  H           1     -21.925  -3.499 -12.719  0.00  0.00     0.275 HD
HETATM   12  H           1     -20.711  -2.601 -11.923  0.00  0.00     0.275 HD
HETATM   13  H           1     -20.540  -4.289 -12.110  0.00  0.00     0.275 HD
ENDBRANCH   5  10
ENDBRANCH   2   5
BRANCH   3  14
HETATM   14  C           1     -20.565  -5.536  -7.543  0.00  0.00     0.209 C 
BRANCH  14  15
HETATM   15  C           1     -19.582  -4.578  -6.882  0.00  0.00     0.200 C 
BRANCH  15  16
HETATM   16  O           1     -19.766  -4.603  -5.492  0.00  0.00    -0.398 OA
HETATM   17  H           1     -18.969  -4.286  -5.106  0.00  0.00     0.209 HD
ENDBRANCH  15  16
ENDBRANCH  14  15
BRANCH  14  18
HETATM   18  C           1     -21.396  -6.215  -6.482  0.00  0.00     0.198 C 
HETATM   19  O           1     -22.316  -5.589  -5.912  0.00  0.00    -0.646 OA
HETATM   20  O           1     -21.164  -7.405  -6.173  0.00  0.00    -0.646 OA
ENDBRANCH  14  18
ENDBRANCH   3  14
TORSDOF 8
ENDMDL
MODEL 9
REMARK VINA RESULT:      -4.7     14.082     16.433
REMARK  8 active torsions:
REMARK  status: ('A' for Active; 'I' for Inactive)
REMARK    1  A    between atoms: C_2  and  C_17 
REMARK    2  A    between atoms: C_2  and  C_16 
REMARK    3  A    between atoms: C_2  and  N_9 
REMARK    4  A    between atoms: C_5  and  C_6 
REMARK    5  A    between atoms: C_5  and  C_14 
REMARK    6  A    between atoms: C_5  and  N_19 
REMARK    7  A    between atoms: C_6  and  O_7 
REMARK    8  A    between atoms: O_11  and  C_16 
REMARK       I    between atoms: C_17  and  N_19 
ROOT
HETATM    1  O           1     -21.310  -3.173  -6.946  0.00  0.00    -0.271 OA
HETATM    2  C           1     -21.676  -4.030  -7.713  0.00  0.00     0.251 C 
HETATM    3  N           1     -21.717  -5.338  -7.312  0.00  0.00    -0.343 N 
HETATM    4  H           1     -22.025  -6.056  -7.956  0.00  0.00     0.163 HD
ENDROOT
BRANCH   2   5
HETATM    5  C           1     -22.090  -3.658  -9.116  0.00  0.00     0.302 C 
BRANCH   5   6
HETATM    6  C           1     -23.604  -3.756  -9.243  0.00  0.00     0.153 C 
HETATM    7  C           1     -23.960  -4.857 -10.234  0.00  0.00     0.042 C 
BRANCH   6   8
HETATM    8  O           1     -24.160  -4.057  -7.992  0.00  0.00    -0.393 OA
HETATM    9  H           1     -24.056  -4.983  -7.862  0.00  0.00     0.210 HD
ENDBRANCH   6   8
ENDBRANCH   5   6
BRANCH   5  10
HETATM   10  N           1     -21.445  -4.597 -10.093  0.00  0.00    -0.064 N 
HETATM   11  H           1     -21.969  -4.573 -10.996  0.00  0.00     0.275 HD
HETATM   12  H           1     -20.455  -4.307 -10.255  0.00  0.00     0.275 HD
HETATM   13  H           1     -21.464  -5.568  -9.705  0.00  0.00     0.275 HD
ENDBRANCH   5  10
ENDBRANCH   2   5
BRANCH   3  14
HETATM   14  C           1     -21.319  -5.694  -5.964  0.00  0.00     0.209 C 
BRANCH  14  15
HETATM   15  C           1     -22.509  -6.296  -5.227  0.00  0.00     0.200 C 
BRANCH  15  16
HETATM   16  O           1     -22.316  -6.171  -3.844  0.00  0.00    -0.398 OA
HETATM   17  H           1     -23.108  -5.805  -3.490  0.00  0.00     0.209 HD
ENDBRANCH  15  16
ENDBRANCH  14  15
BRANCH  14  18
HETATM   18  C           1     -20.199  -6.704  -6.020  0.00  0.00     0.198 C 
HETATM   19  O           1     -19.469  -6.773  -7.033  0.00  0.00    -0.646 OA
HETATM   20  O           1     -20.001  -7.472  -5.053  0.00  0.00    -0.646 OA
ENDBRANCH  14  18
ENDBRANCH   3  14
TORSDOF 8
ENDMDL
