MODEL 1
REMARK VINA RESULT:      -6.0      0.000      0.000
REMARK  9 active torsions:
REMARK  status: ('A' for Active; 'I' for Inactive)
REMARK    1  A    between atoms: Se_2  and  C_14 
REMARK       I    between atoms: C_3  and  N_4 
REMARK    2  A    between atoms: C_3  and  C_5 
REMARK    3  A    between atoms: C_5  and  C_6 
REMARK    4  A    between atoms: C_6  and  C_7 
REMARK    5  A    between atoms: C_6  and  N_10 
REMARK       I    between atoms: N_10  and  C_11 
REMARK    6  A    between atoms: C_11  and  C_12 
REMARK    7  A    between atoms: C_12  and  C_13 
REMARK    8  A    between atoms: C_12  and  N_19 
REMARK    9  A    between atoms: C_13  and  C_14 
ROOT
HETATM    1  N           1     -27.588  -6.516 -17.090  0.00  0.00    -0.344 N 
HETATM    2  C           1     -26.443  -6.898 -16.445  0.00  0.00     0.249 C 
HETATM    3  H           1     -27.537  -6.118 -18.019  0.00  0.00     0.163 HD
HETATM    4  O           1     -26.504  -7.372 -15.336  0.00  0.00    -0.271 OA
ENDROOT
BRANCH   1   5
HETATM    5  C           1     -28.874  -6.678 -16.441  0.00  0.00     0.194 C 
BRANCH   5   6
HETATM    6  C           1     -29.395  -5.317 -16.000  0.00  0.00     0.138 C 
BRANCH   6   7
HETATM    7  C           1     -28.859  -4.249 -16.922  0.00  0.00     0.217 C 
HETATM    8  O           1     -27.818  -3.695 -16.662  0.00  0.00    -0.274 OA
HETATM    9  N           1     -29.553  -3.908 -18.052  0.00  0.00    -0.370 N 
HETATM   10  H           1     -30.426  -4.372 -18.269  0.00  0.00     0.159 HD
HETATM   11  H           1     -29.193  -3.192 -18.669  0.00  0.00     0.159 HD
ENDBRANCH   6   7
ENDBRANCH   5   6
BRANCH   5  12
HETATM   12  C           1     -29.850  -7.302 -17.409  0.00  0.00     0.197 C 
HETATM   13  O           1     -30.977  -6.788 -17.577  0.00  0.00    -0.646 OA
HETATM   14  O           1     -29.530  -8.331 -18.042  0.00  0.00    -0.646 OA
ENDBRANCH   5  12
ENDBRANCH   1   5
BRANCH   2  15
HETATM   15  C           1     -25.104  -6.729 -17.121  0.00  0.00     0.274 C 
BRANCH  15  16
HETATM   16  C           1     -25.292  -6.747 -18.632  0.00  0.00     0.042 C 
BRANCH  16  17
HETATM   17  C           1     -24.055  -7.343 -19.292  0.00  0.00     0.003 C 
BRANCH  17  18
HETATM   18 Se           1     -24.493  -7.907 -21.106  0.00  0.00     0.000 Se
HETATM   19  C           1     -22.695  -8.533 -21.521  0.00  0.00     0.000 C 
ENDBRANCH  17  18
ENDBRANCH  16  17
ENDBRANCH  15  16
BRANCH  15  20
HETATM   20  N           1     -24.195  -7.853 -16.718  0.00  0.00    -0.067 N 
HETATM   21  H           1     -24.760  -8.624 -16.297  0.00  0.00     0.275 HD
HETATM   22  H           1     -23.691  -8.210 -17.560  0.00  0.00     0.275 HD
HETATM   23  H           1     -23.503  -7.506 -16.017  0.00  0.00     0.275 HD
ENDBRANCH  15  20
ENDBRANCH   2  15
TORSDOF 9
ENDMDL
MODEL 2
REMARK VINA RESULT:      -5.9      1.891      3.197
REMARK  9 active torsions:
REMARK  status: ('A' for Active; 'I' for Inactive)
REMARK    1  A    between atoms: Se_2  and  C_14 
REMARK       I    between atoms: C_3  and  N_4 
REMARK    2  A    between atoms: C_3  and  C_5 
REMARK    3  A    between atoms: C_5  and  C_6 
REMARK    4  A    between atoms: C_6  and  C_7 
REMARK    5  A    between atoms: C_6  and  N_10 
REMARK       I    between atoms: N_10  and  C_11 
REMARK    6  A    between atoms: C_11  and  C_12 
REMARK    7  A    between atoms: C_12  and  C_13 
REMARK    8  A    between atoms: C_12  and  N_19 
REMARK    9  A    between atoms: C_13  and  C_14 
ROOT
HETATM    1  N           1     -26.886  -6.369 -18.179  0.00  0.00    -0.344 N 
HETATM    2  C           1     -26.409  -6.490 -19.456  0.00  0.00     0.249 C 
HETATM    3  H           1     -26.267  -6.515 -17.392  0.00  0.00     0.163 HD
HETATM    4  O           1     -27.148  -6.316 -20.396  0.00  0.00    -0.271 OA
ENDROOT
BRANCH   1   5
HETATM    5  C           1     -28.278  -6.033 -17.954  0.00  0.00     0.194 C 
BRANCH   5   6
HETATM    6  C           1     -28.970  -7.188 -17.242  0.00  0.00     0.138 C 
BRANCH   6   7
HETATM    7  C           1     -30.343  -7.394 -17.833  0.00  0.00     0.217 C 
HETATM    8  O           1     -30.485  -8.117 -18.790  0.00  0.00    -0.274 OA
HETATM    9  N           1     -31.427  -6.763 -17.286  0.00  0.00    -0.370 N 
HETATM   10  H           1     -31.308  -6.157 -16.484  0.00  0.00     0.159 HD
HETATM   11  H           1     -32.347  -6.902 -17.683  0.00  0.00     0.159 HD
ENDBRANCH   6   7
ENDBRANCH   5   6
BRANCH   5  12
HETATM   12  C           1     -28.363  -4.791 -17.100  0.00  0.00     0.197 C 
HETATM   13  O           1     -29.459  -4.207 -16.954  0.00  0.00    -0.646 OA
HETATM   14  O           1     -27.338  -4.348 -16.538  0.00  0.00    -0.646 OA
ENDBRANCH   5  12
ENDBRANCH   1   5
BRANCH   2  15
HETATM   15  C           1     -24.960  -6.840 -19.690  0.00  0.00     0.274 C 
BRANCH  15  16
HETATM   16  C           1     -24.851  -7.787 -20.878  0.00  0.00     0.042 C 
BRANCH  16  17
HETATM   17  C           1     -23.414  -8.274 -21.011  0.00  0.00     0.003 C 
BRANCH  17  18
HETATM   18 Se           1     -22.961  -8.457 -22.897  0.00  0.00     0.000 Se
HETATM   19  C           1     -21.306  -9.433 -22.574  0.00  0.00     0.000 C 
ENDBRANCH  17  18
ENDBRANCH  16  17
ENDBRANCH  15  16
BRANCH  15  20
HETATM   20  N           1     -24.403  -7.507 -18.467  0.00  0.00    -0.067 N 
HETATM   21  H           1     -24.759  -8.487 -18.412  0.00  0.00     0.275 HD
HETATM   22  H           1     -23.360  -7.518 -18.522  0.00  0.00     0.275 HD
HETATM   23  H           1     -24.703  -6.979 -17.616  0.00  0.00     0.275 HD
ENDBRANCH  15  20
ENDBRANCH   2  15
TORSDOF 9
ENDMDL
MODEL 3
REMARK VINA RESULT:      -5.8     10.266     11.907
REMARK  9 active torsions:
REMARK  status: ('A' for Active; 'I' for Inactive)
REMARK    1  A    between atoms: Se_2  and  C_14 
REMARK       I    between atoms: C_3  and  N_4 
REMARK    2  A    between atoms: C_3  and  C_5 
REMARK    3  A    between atoms: C_5  and  C_6 
REMARK    4  A    between atoms: C_6  and  C_7 
REMARK    5  A    between atoms: C_6  and  N_10 
REMARK       I    between atoms: N_10  and  C_11 
REMARK    6  A    between atoms: C_11  and  C_12 
REMARK    7  A    between atoms: C_12  and  C_13 
REMARK    8  A    between atoms: C_12  and  N_19 
REMARK    9  A    between atoms: C_13  and  C_14 
ROOT
HETATM    1  N           1     -22.434  -5.077  -9.083  0.00  0.00    -0.344 N 
HETATM    2  C           1     -21.727  -4.808  -7.943  0.00  0.00     0.249 C 
HETATM    3  H           1     -22.671  -6.033  -9.318  0.00  0.00     0.163 HD
HETATM    4  O           1     -21.443  -3.668  -7.664  0.00  0.00    -0.271 OA
ENDROOT
BRANCH   1   5
HETATM    5  C           1     -22.844  -3.994  -9.955  0.00  0.00     0.194 C 
BRANCH   5   6
HETATM    6  C           1     -22.177  -4.157 -11.315  0.00  0.00     0.138 C 
BRANCH   6   7
HETATM    7  C           1     -20.699  -3.881 -11.188  0.00  0.00     0.217 C 
HETATM    8  O           1     -19.949  -4.761 -10.841  0.00  0.00    -0.274 OA
HETATM    9  N           1     -20.209  -2.633 -11.466  0.00  0.00    -0.370 N 
HETATM   10  H           1     -20.838  -1.896 -11.757  0.00  0.00     0.159 HD
HETATM   11  H           1     -19.218  -2.449 -11.381  0.00  0.00     0.159 HD
ENDBRANCH   6   7
ENDBRANCH   5   6
BRANCH   5  12
HETATM   12  C           1     -24.344  -4.023 -10.123  0.00  0.00     0.197 C 
HETATM   13  O           1     -24.920  -3.110 -10.753  0.00  0.00    -0.646 OA
HETATM   14  O           1     -25.009  -4.961  -9.631  0.00  0.00    -0.646 OA
ENDBRANCH   5  12
ENDBRANCH   1   5
BRANCH   2  15
HETATM   15  C           1     -21.300  -5.936  -7.036  0.00  0.00     0.274 C 
BRANCH  15  16
HETATM   16  C           1     -21.502  -5.525  -5.584  0.00  0.00     0.042 C 
BRANCH  16  17
HETATM   17  C           1     -22.305  -6.597  -4.858  0.00  0.00     0.003 C 
BRANCH  17  18
HETATM   18 Se           1     -21.258  -7.297  -3.371  0.00  0.00     0.000 Se
HETATM   19  C           1     -22.144  -6.208  -2.020  0.00  0.00     0.000 C 
ENDBRANCH  17  18
ENDBRANCH  16  17
ENDBRANCH  15  16
BRANCH  15  20
HETATM   20  N           1     -19.851  -6.245  -7.270  0.00  0.00    -0.067 N 
HETATM   21  H           1     -19.762  -6.917  -8.066  0.00  0.00     0.275 HD
HETATM   22  H           1     -19.341  -5.363  -7.501  0.00  0.00     0.275 HD
HETATM   23  H           1     -19.442  -6.670  -6.408  0.00  0.00     0.275 HD
ENDBRANCH  15  20
ENDBRANCH   2  15
TORSDOF 9
ENDMDL
MODEL 4
REMARK VINA RESULT:      -5.2     13.336     14.969
REMARK  9 active torsions:
REMARK  status: ('A' for Active; 'I' for Inactive)
REMARK    1  A    between atoms: Se_2  and  C_14 
REMARK       I    between atoms: C_3  and  N_4 
REMARK    2  A    between atoms: C_3  and  C_5 
REMARK    3  A    between atoms: C_5  and  C_6 
REMARK    4  A    between atoms: C_6  and  C_7 
REMARK    5  A    between atoms: C_6  and  N_10 
REMARK       I    between atoms: N_10  and  C_11 
REMARK    6  A    between atoms: C_11  and  C_12 
REMARK    7  A    between atoms: C_12  and  C_13 
REMARK    8  A    between atoms: C_12  and  N_19 
REMARK    9  A    between atoms: C_13  and  C_14 
ROOT
HETATM    1  N           1     -20.967  -5.352  -5.082  0.00  0.00    -0.344 N 
HETATM    2  C           1     -21.488  -6.429  -4.417  0.00  0.00     0.249 C 
HETATM    3  H           1     -20.491  -4.621  -4.568  0.00  0.00     0.163 HD
HETATM    4  O           1     -22.057  -7.300  -5.030  0.00  0.00    -0.271 OA
ENDROOT
BRANCH   1   5
HETATM    5  C           1     -21.099  -5.257  -6.523  0.00  0.00     0.194 C 
BRANCH   5   6
HETATM    6  C           1     -21.537  -3.848  -6.900  0.00  0.00     0.138 C 
BRANCH   6   7
HETATM    7  C           1     -22.449  -3.908  -8.101  0.00  0.00     0.217 C 
HETATM    8  O           1     -21.992  -3.784  -9.213  0.00  0.00    -0.274 OA
HETATM    9  N           1     -23.793  -4.103  -7.932  0.00  0.00    -0.370 N 
HETATM   10  H           1     -24.176  -4.207  -7.000  0.00  0.00     0.159 HD
HETATM   11  H           1     -24.404  -4.144  -8.737  0.00  0.00     0.159 HD
ENDBRANCH   6   7
ENDBRANCH   5   6
BRANCH   5  12
HETATM   12  C           1     -19.770  -5.561  -7.170  0.00  0.00     0.197 C 
HETATM   13  O           1     -19.060  -4.629  -7.607  0.00  0.00    -0.646 OA
HETATM   14  O           1     -19.379  -6.744  -7.267  0.00  0.00    -0.646 OA
ENDBRANCH   5  12
ENDBRANCH   1   5
BRANCH   2  15
HETATM   15  C           1     -21.351  -6.527  -2.917  0.00  0.00     0.274 C 
BRANCH  15  16
HETATM   16  C           1     -21.355  -7.992  -2.502  0.00  0.00     0.042 C 
BRANCH  16  17
HETATM   17  C           1     -20.564  -8.157  -1.210  0.00  0.00     0.003 C 
BRANCH  17  18
HETATM   18 Se           1     -21.794  -8.470   0.269  0.00  0.00     0.000 Se
HETATM   19  C           1     -21.499 -10.396   0.322  0.00  0.00     0.000 C 
ENDBRANCH  17  18
ENDBRANCH  16  17
ENDBRANCH  15  16
BRANCH  15  20
HETATM   20  N           1     -22.500  -5.819  -2.263  0.00  0.00    -0.067 N 
HETATM   21  H           1     -22.192  -5.430  -1.344  0.00  0.00     0.275 HD
HETATM   22  H           1     -22.825  -5.041  -2.879  0.00  0.00     0.275 HD
HETATM   23  H           1     -23.283  -6.494  -2.111  0.00  0.00     0.275 HD
ENDBRANCH  15  20
ENDBRANCH   2  15
TORSDOF 9
ENDMDL
MODEL 5
REMARK VINA RESULT:      -5.0     11.999     13.815
REMARK  9 active torsions:
REMARK  status: ('A' for Active; 'I' for Inactive)
REMARK    1  A    between atoms: Se_2  and  C_14 
REMARK       I    between atoms: C_3  and  N_4 
REMARK    2  A    between atoms: C_3  and  C_5 
REMARK    3  A    between atoms: C_5  and  C_6 
REMARK    4  A    between atoms: C_6  and  C_7 
REMARK    5  A    between atoms: C_6  and  N_10 
REMARK       I    between atoms: N_10  and  C_11 
REMARK    6  A    between atoms: C_11  and  C_12 
REMARK    7  A    between atoms: C_12  and  C_13 
REMARK    8  A    between atoms: C_12  and  N_19 
REMARK    9  A    between atoms: C_13  and  C_14 
ROOT
HETATM    1  N           1     -20.874  -6.313  -6.101  0.00  0.00    -0.344 N 
HETATM    2  C           1     -20.546  -4.985  -6.149  0.00  0.00     0.249 C 
HETATM    3  H           1     -21.285  -6.762  -6.909  0.00  0.00     0.163 HD
HETATM    4  O           1     -20.056  -4.449  -5.184  0.00  0.00    -0.271 OA
ENDROOT
BRANCH   1   5
HETATM    5  C           1     -20.635  -7.076  -4.892  0.00  0.00     0.194 C 
BRANCH   5   6
HETATM    6  C           1     -21.915  -7.139  -4.070  0.00  0.00     0.138 C 
BRANCH   6   7
HETATM    7  C           1     -21.611  -6.783  -2.635  0.00  0.00     0.217 C 
HETATM    8  O           1     -20.754  -7.384  -2.033  0.00  0.00    -0.274 OA
HETATM    9  N           1     -22.307  -5.780  -2.016  0.00  0.00    -0.370 N 
HETATM   10  H           1     -23.026  -5.276  -2.520  0.00  0.00     0.159 HD
HETATM   11  H           1     -22.103  -5.542  -1.054  0.00  0.00     0.159 HD
ENDBRANCH   6   7
ENDBRANCH   5   6
BRANCH   5  12
HETATM   12  C           1     -20.202  -8.474  -5.258  0.00  0.00     0.197 C 
HETATM   13  O           1     -19.061  -8.878  -4.942  0.00  0.00    -0.646 OA
HETATM   14  O           1     -20.983  -9.229  -5.876  0.00  0.00    -0.646 OA
ENDBRANCH   5  12
ENDBRANCH   1   5
BRANCH   2  15
HETATM   15  C           1     -20.795  -4.192  -7.408  0.00  0.00     0.274 C 
BRANCH  15  16
HETATM   16  C           1     -21.770  -4.948  -8.301  0.00  0.00     0.042 C 
BRANCH  16  17
HETATM   17  C           1     -22.024  -4.146  -9.571  0.00  0.00     0.003 C 
BRANCH  17  18
HETATM   18 Se           1     -23.648  -4.792 -10.434  0.00  0.00     0.000 Se
HETATM   19  C           1     -24.767  -3.332  -9.791  0.00  0.00     0.000 C 
ENDBRANCH  17  18
ENDBRANCH  16  17
ENDBRANCH  15  16
BRANCH  15  20
HETATM   20  N           1     -19.500  -3.993  -8.139  0.00  0.00    -0.067 N 
HETATM   21  H           1     -19.693  -3.613  -9.093  0.00  0.00     0.275 HD
HETATM   22  H           1     -18.902  -3.319  -7.610  0.00  0.00     0.275 HD
HETATM   23  H           1     -19.004  -4.909  -8.223  0.00  0.00     0.275 HD
ENDBRANCH  15  20
ENDBRANCH   2  15
TORSDOF 9
ENDMDL
MODEL 6
REMARK VINA RESULT:      -4.9     14.861     16.450
REMARK  9 active torsions:
REMARK  status: ('A' for Active; 'I' for Inactive)
REMARK    1  A    between atoms: Se_2  and  C_14 
REMARK       I    between atoms: C_3  and  N_4 
REMARK    2  A    between atoms: C_3  and  C_5 
REMARK    3  A    between atoms: C_5  and  C_6 
REMARK    4  A    between atoms: C_6  and  C_7 
REMARK    5  A    between atoms: C_6  and  N_10 
REMARK       I    between atoms: N_10  and  C_11 
REMARK    6  A    between atoms: C_11  and  C_12 
REMARK    7  A    between atoms: C_12  and  C_13 
REMARK    8  A    between atoms: C_12  and  N_19 
REMARK    9  A    between atoms: C_13  and  C_14 
ROOT
HETATM    1  N           1     -21.307  -8.637  -2.376  0.00  0.00    -0.344 N 
HETATM    2  C           1     -20.294  -8.511  -3.288  0.00  0.00     0.249 C 
HETATM    3  H           1     -22.219  -8.248  -2.576  0.00  0.00     0.163 HD
HETATM    4  O           1     -19.205  -8.975  -3.049  0.00  0.00    -0.271 OA
ENDROOT
BRANCH   1   5
HETATM    5  C           1     -21.073  -9.328  -1.123  0.00  0.00     0.194 C 
BRANCH   5   6
HETATM    6  C           1     -21.246  -8.352   0.034  0.00  0.00     0.138 C 
BRANCH   6   7
HETATM    7  C           1     -22.562  -7.629  -0.109  0.00  0.00     0.217 C 
HETATM    8  O           1     -22.662  -6.702  -0.877  0.00  0.00    -0.274 OA
HETATM    9  N           1     -23.645  -8.023   0.631  0.00  0.00    -0.370 N 
HETATM   10  H           1     -23.562  -8.800   1.274  0.00  0.00     0.159 HD
HETATM   11  H           1     -24.527  -7.538   0.534  0.00  0.00     0.159 HD
ENDBRANCH   6   7
ENDBRANCH   5   6
BRANCH   5  12
HETATM   12  C           1     -22.061 -10.459  -0.980  0.00  0.00     0.197 C 
HETATM   13  O           1     -22.863 -10.708  -1.907  0.00  0.00    -0.646 OA
HETATM   14  O           1     -22.078 -11.146   0.064  0.00  0.00    -0.646 OA
ENDBRANCH   5  12
ENDBRANCH   1   5
BRANCH   2  15
HETATM   15  C           1     -20.538  -7.792  -4.592  0.00  0.00     0.274 C 
BRANCH  15  16
HETATM   16  C           1     -21.599  -6.718  -4.389  0.00  0.00     0.042 C 
BRANCH  16  17
HETATM   17  C           1     -21.811  -5.960  -5.694  0.00  0.00     0.003 C 
BRANCH  17  18
HETATM   18 Se           1     -20.308  -4.757  -5.999  0.00  0.00     0.000 Se
HETATM   19  C           1     -21.262  -3.622  -7.263  0.00  0.00     0.000 C 
ENDBRANCH  17  18
ENDBRANCH  16  17
ENDBRANCH  15  16
BRANCH  15  20
HETATM   20  N           1     -21.013  -8.774  -5.622  0.00  0.00    -0.067 N 
HETATM   21  H           1     -20.376  -9.602  -5.634  0.00  0.00     0.275 HD
HETATM   22  H           1     -21.983  -9.084  -5.386  0.00  0.00     0.275 HD
HETATM   23  H           1     -21.012  -8.320  -6.563  0.00  0.00     0.275 HD
ENDBRANCH  15  20
ENDBRANCH   2  15
TORSDOF 9
ENDMDL
MODEL 7
REMARK VINA RESULT:      -4.8     14.580     16.159
REMARK  9 active torsions:
REMARK  status: ('A' for Active; 'I' for Inactive)
REMARK    1  A    between atoms: Se_2  and  C_14 
REMARK       I    between atoms: C_3  and  N_4 
REMARK    2  A    between atoms: C_3  and  C_5 
REMARK    3  A    between atoms: C_5  and  C_6 
REMARK    4  A    between atoms: C_6  and  C_7 
REMARK    5  A    between atoms: C_6  and  N_10 
REMARK       I    between atoms: N_10  and  C_11 
REMARK    6  A    between atoms: C_11  and  C_12 
REMARK    7  A    between atoms: C_12  and  C_13 
REMARK    8  A    between atoms: C_12  and  N_19 
REMARK    9  A    between atoms: C_13  and  C_14 
ROOT
HETATM    1  N           1     -21.651  -8.413  -2.652  0.00  0.00    -0.344 N 
HETATM    2  C           1     -20.910  -8.085  -3.755  0.00  0.00     0.249 C 
HETATM    3  H           1     -22.629  -8.156  -2.605  0.00  0.00     0.163 HD
HETATM    4  O           1     -19.742  -8.391  -3.810  0.00  0.00    -0.271 OA
ENDROOT
BRANCH   1   5
HETATM    5  C           1     -21.035  -9.127  -1.551  0.00  0.00     0.194 C 
BRANCH   5   6
HETATM    6  C           1     -21.148  -8.294  -0.280  0.00  0.00     0.138 C 
BRANCH   6   7
HETATM    7  C           1     -22.470  -7.567  -0.270  0.00  0.00     0.217 C 
HETATM    8  O           1     -22.615  -6.568  -0.934  0.00  0.00    -0.274 OA
HETATM    9  N           1     -23.506  -8.038   0.491  0.00  0.00    -0.370 N 
HETATM   10  H           1     -23.385  -8.875   1.048  0.00  0.00     0.159 HD
HETATM   11  H           1     -24.392  -7.550   0.498  0.00  0.00     0.159 HD
ENDBRANCH   6   7
ENDBRANCH   5   6
BRANCH   5  12
HETATM   12  C           1     -21.740 -10.447  -1.352  0.00  0.00     0.197 C 
HETATM   13  O           1     -21.095 -11.447  -0.968  0.00  0.00    -0.646 OA
HETATM   14  O           1     -22.967 -10.539  -1.571  0.00  0.00    -0.646 OA
ENDBRANCH   5  12
ENDBRANCH   1   5
BRANCH   2  15
HETATM   15  C           1     -21.550  -7.342  -4.901  0.00  0.00     0.274 C 
BRANCH  15  16
HETATM   16  C           1     -20.471  -6.659  -5.731  0.00  0.00     0.042 C 
BRANCH  16  17
HETATM   17  C           1     -20.525  -5.154  -5.497  0.00  0.00     0.003 C 
BRANCH  17  18
HETATM   18 Se           1     -21.222  -4.273  -7.089  0.00  0.00     0.000 Se
HETATM   19  C           1     -19.512  -4.246  -8.023  0.00  0.00     0.000 C 
ENDBRANCH  17  18
ENDBRANCH  16  17
ENDBRANCH  15  16
BRANCH  15  20
HETATM   20  N           1     -22.493  -6.308  -4.361  0.00  0.00    -0.067 N 
HETATM   21  H           1     -21.977  -5.413  -4.205  0.00  0.00     0.275 HD
HETATM   22  H           1     -23.266  -6.149  -5.047  0.00  0.00     0.275 HD
HETATM   23  H           1     -22.894  -6.641  -3.455  0.00  0.00     0.275 HD
ENDBRANCH  15  20
ENDBRANCH   2  15
TORSDOF 9
ENDMDL
MODEL 8
REMARK VINA RESULT:      -4.5      5.000      7.934
REMARK  9 active torsions:
REMARK  status: ('A' for Active; 'I' for Inactive)
REMARK    1  A    between atoms: Se_2  and  C_14 
REMARK       I    between atoms: C_3  and  N_4 
REMARK    2  A    between atoms: C_3  and  C_5 
REMARK    3  A    between atoms: C_5  and  C_6 
REMARK    4  A    between atoms: C_6  and  C_7 
REMARK    5  A    between atoms: C_6  and  N_10 
REMARK       I    between atoms: N_10  and  C_11 
REMARK    6  A    between atoms: C_11  and  C_12 
REMARK    7  A    between atoms: C_12  and  C_13 
REMARK    8  A    between atoms: C_12  and  N_19 
REMARK    9  A    between atoms: C_13  and  C_14 
ROOT
HETATM    1  N           1     -31.640  -5.106 -16.392  0.00  0.00    -0.344 N 
HETATM    2  C           1     -32.656  -4.196 -16.508  0.00  0.00     0.249 C 
HETATM    3  H           1     -31.668  -5.805 -15.660  0.00  0.00     0.163 HD
HETATM    4  O           1     -32.622  -3.361 -17.380  0.00  0.00    -0.271 OA
ENDROOT
BRANCH   1   5
HETATM    5  C           1     -30.524  -5.068 -17.316  0.00  0.00     0.194 C 
BRANCH   5   6
HETATM    6  C           1     -29.268  -4.625 -16.576  0.00  0.00     0.138 C 
BRANCH   6   7
HETATM    7  C           1     -28.958  -5.608 -15.475  0.00  0.00     0.217 C 
HETATM    8  O           1     -29.619  -5.610 -14.463  0.00  0.00    -0.274 OA
HETATM    9  N           1     -27.929  -6.499 -15.620  0.00  0.00    -0.370 N 
HETATM   10  H           1     -27.375  -6.498 -16.468  0.00  0.00     0.159 HD
HETATM   11  H           1     -27.722  -7.158 -14.881  0.00  0.00     0.159 HD
ENDBRANCH   6   7
ENDBRANCH   5   6
BRANCH   5  12
HETATM   12  C           1     -30.307  -6.444 -17.898  0.00  0.00     0.197 C 
HETATM   13  O           1     -31.177  -7.329 -17.750  0.00  0.00    -0.646 OA
HETATM   14  O           1     -29.257  -6.697 -18.527  0.00  0.00    -0.646 OA
ENDBRANCH   5  12
ENDBRANCH   1   5
BRANCH   2  15
HETATM   15  C           1     -33.818  -4.236 -15.546  0.00  0.00     0.274 C 
BRANCH  15  16
HETATM   16  C           1     -33.293  -4.283 -14.117  0.00  0.00     0.042 C 
BRANCH  16  17
HETATM   17  C           1     -34.452  -4.106 -13.143  0.00  0.00     0.003 C 
BRANCH  17  18
HETATM   18 Se           1     -33.824  -4.410 -11.324  0.00  0.00     0.000 Se
HETATM   19  C           1     -33.443  -2.533 -10.967  0.00  0.00     0.000 C 
ENDBRANCH  17  18
ENDBRANCH  16  17
ENDBRANCH  15  16
BRANCH  15  20
HETATM   20  N           1     -34.647  -5.457 -15.814  0.00  0.00    -0.067 N 
HETATM   21  H           1     -35.218  -5.308 -16.676  0.00  0.00     0.275 HD
HETATM   22  H           1     -34.019  -6.281 -15.950  0.00  0.00     0.275 HD
HETATM   23  H           1     -35.281  -5.632 -15.003  0.00  0.00     0.275 HD
ENDBRANCH  15  20
ENDBRANCH   2  15
TORSDOF 9
ENDMDL
MODEL 9
REMARK VINA RESULT:      -4.5     14.124     16.004
REMARK  9 active torsions:
REMARK  status: ('A' for Active; 'I' for Inactive)
REMARK    1  A    between atoms: Se_2  and  C_14 
REMARK       I    between atoms: C_3  and  N_4 
REMARK    2  A    between atoms: C_3  and  C_5 
REMARK    3  A    between atoms: C_5  and  C_6 
REMARK    4  A    between atoms: C_6  and  C_7 
REMARK    5  A    between atoms: C_6  and  N_10 
REMARK       I    between atoms: N_10  and  C_11 
REMARK    6  A    between atoms: C_11  and  C_12 
REMARK    7  A    between atoms: C_12  and  C_13 
REMARK    8  A    between atoms: C_12  and  N_19 
REMARK    9  A    between atoms: C_13  and  C_14 
ROOT
HETATM    1  N           1     -21.398  -7.380  -3.167  0.00  0.00    -0.344 N 
HETATM    2  C           1     -21.541  -7.867  -4.438  0.00  0.00     0.249 C 
HETATM    3  H           1     -21.322  -6.383  -3.012  0.00  0.00     0.163 HD
HETATM    4  O           1     -21.630  -9.058  -4.622  0.00  0.00    -0.271 OA
ENDROOT
BRANCH   1   5
HETATM    5  C           1     -21.355  -8.293  -2.041  0.00  0.00     0.194 C 
BRANCH   5   6
HETATM    6  C           1     -19.911  -8.695  -1.769  0.00  0.00     0.138 C 
BRANCH   6   7
HETATM    7  C           1     -19.788 -10.198  -1.820  0.00  0.00     0.217 C 
HETATM    8  O           1     -19.758 -10.836  -0.795  0.00  0.00    -0.274 OA
HETATM    9  N           1     -19.709 -10.838  -3.027  0.00  0.00    -0.370 N 
HETATM   10  H           1     -19.734 -10.303  -3.886  0.00  0.00     0.159 HD
HETATM   11  H           1     -19.626 -11.846  -3.061  0.00  0.00     0.159 HD
ENDBRANCH   6   7
ENDBRANCH   5   6
BRANCH   5  12
HETATM   12  C           1     -21.927  -7.614  -0.821  0.00  0.00     0.197 C 
HETATM   13  O           1     -22.696  -6.636  -0.953  0.00  0.00    -0.646 OA
HETATM   14  O           1     -21.632  -8.028   0.321  0.00  0.00    -0.646 OA
ENDBRANCH   5  12
ENDBRANCH   1   5
BRANCH   2  15
HETATM   15  C           1     -21.586  -6.917  -5.609  0.00  0.00     0.274 C 
BRANCH  15  16
HETATM   16  C           1     -20.236  -6.225  -5.754  0.00  0.00     0.042 C 
BRANCH  16  17
HETATM   17  C           1     -20.451  -4.737  -5.998  0.00  0.00     0.003 C 
BRANCH  17  18
HETATM   18 Se           1     -20.139  -4.334  -7.879  0.00  0.00     0.000 Se
HETATM   19  C           1     -21.981  -3.811  -8.242  0.00  0.00     0.000 C 
ENDBRANCH  17  18
ENDBRANCH  16  17
ENDBRANCH  15  16
BRANCH  15  20
HETATM   20  N           1     -22.652  -5.888  -5.376  0.00  0.00    -0.067 N 
HETATM   21  H           1     -22.967  -5.931  -4.381  0.00  0.00     0.275 HD
HETATM   22  H           1     -22.268  -4.937  -5.579  0.00  0.00     0.275 HD
HETATM   23  H           1     -23.463  -6.078  -6.007  0.00  0.00     0.275 HD
ENDBRANCH  15  20
ENDBRANCH   2  15
TORSDOF 9
ENDMDL
