MODEL 1
REMARK VINA RESULT:      -6.6      0.000      0.000
REMARK  10 active torsions:
REMARK  status: ('A' for Active; 'I' for Inactive)
REMARK    1  A    between atoms: N_1  and  C_5 
REMARK       I    between atoms: N_1  and  C_16 
REMARK    2  A    between atoms: C_4  and  C_5 
REMARK    3  A    between atoms: C_5  and  C_6 
REMARK    4  A    between atoms: C_6  and  C_7 
REMARK    5  A    between atoms: C_7  and  C_24 
REMARK    6  A    between atoms: C_13  and  C_16 
REMARK    7  A    between atoms: C_13  and  C_14 
REMARK    8  A    between atoms: C_13  and  N_17 
REMARK    9  A    between atoms: C_14  and  C_15 
REMARK   10  A    between atoms: C_15  and  C_18 
REMARK       I    between atoms: C_24  and  N_25 
ROOT
HETATM    1  N           1     -27.362  -6.323 -17.020  0.00  0.00    -0.345 N 
HETATM    2  O           1     -26.242  -7.306 -15.357  0.00  0.00    -0.271 OA
HETATM    3  C           1     -26.214  -6.819 -16.462  0.00  0.00     0.249 C 
HETATM    4  H           1     -27.338  -5.914 -17.946  0.00  0.00     0.163 HD
ENDROOT
BRANCH   1   5
HETATM    5  C           1     -28.609  -6.382 -16.284  0.00  0.00     0.186 C 
BRANCH   5   6
HETATM    6  C           1     -29.655  -7.076 -17.123  0.00  0.00     0.196 C 
HETATM    7  O           1     -29.486  -8.263 -17.477  0.00  0.00    -0.646 OA
HETATM    8  O           1     -30.688  -6.463 -17.466  0.00  0.00    -0.646 OA
ENDBRANCH   5   6
BRANCH   5   9
HETATM    9  C           1     -29.074  -4.968 -15.961  0.00  0.00     0.045 C 
BRANCH   9  10
HETATM   10  C           1     -28.419  -3.985 -16.924  0.00  0.00     0.105 C 
BRANCH  10  11
HETATM   11  C           1     -29.441  -2.978 -17.388  0.00  0.00     0.215 C 
HETATM   12  O           1     -29.237  -1.797 -17.238  0.00  0.00    -0.274 OA
HETATM   13  N           1     -30.601  -3.401 -17.981  0.00  0.00    -0.370 N 
HETATM   14  H           1     -31.286  -2.726 -18.292  0.00  0.00     0.159 HD
HETATM   15  H           1     -30.772  -4.391 -18.107  0.00  0.00     0.159 HD
ENDBRANCH  10  11
ENDBRANCH   9  10
ENDBRANCH   5   9
ENDBRANCH   1   5
BRANCH   3  16
HETATM   16  C           1     -24.915  -6.758 -17.228  0.00  0.00     0.275 C 
BRANCH  16  17
HETATM   17  C           1     -25.203  -6.831 -18.723  0.00  0.00     0.053 C 
BRANCH  17  18
HETATM   18  C           1     -24.008  -7.443 -19.441  0.00  0.00     0.115 C 
BRANCH  18  19
HETATM   19  C           1     -24.440  -7.946 -20.797  0.00  0.00     0.172 C 
HETATM   20  O           1     -23.589  -8.139 -21.692  0.00  0.00    -0.648 OA
HETATM   21  O           1     -25.648  -8.170 -21.025  0.00  0.00    -0.648 OA
ENDBRANCH  18  19
ENDBRANCH  17  18
ENDBRANCH  16  17
BRANCH  16  22
HETATM   22  N           1     -24.046  -7.914 -16.830  0.00  0.00    -0.066 N 
HETATM   23  H           1     -23.868  -7.877 -15.801  0.00  0.00     0.275 HD
HETATM   24  H           1     -24.529  -8.809 -17.068  0.00  0.00     0.275 HD
HETATM   25  H           1     -23.138  -7.860 -17.344  0.00  0.00     0.275 HD
ENDBRANCH  16  22
ENDBRANCH   3  16
TORSDOF 10
ENDMDL
MODEL 2
REMARK VINA RESULT:      -6.5      2.060      6.205
REMARK  10 active torsions:
REMARK  status: ('A' for Active; 'I' for Inactive)
REMARK    1  A    between atoms: N_1  and  C_5 
REMARK       I    between atoms: N_1  and  C_16 
REMARK    2  A    between atoms: C_4  and  C_5 
REMARK    3  A    between atoms: C_5  and  C_6 
REMARK    4  A    between atoms: C_6  and  C_7 
REMARK    5  A    between atoms: C_7  and  C_24 
REMARK    6  A    between atoms: C_13  and  C_16 
REMARK    7  A    between atoms: C_13  and  C_14 
REMARK    8  A    between atoms: C_13  and  N_17 
REMARK    9  A    between atoms: C_14  and  C_15 
REMARK   10  A    between atoms: C_15  and  C_18 
REMARK       I    between atoms: C_24  and  N_25 
ROOT
HETATM    1  N           1     -27.422  -7.153 -19.214  0.00  0.00    -0.345 N 
HETATM    2  O           1     -28.415  -5.154 -19.205  0.00  0.00    -0.271 OA
HETATM    3  C           1     -28.290  -6.237 -18.685  0.00  0.00     0.249 C 
HETATM    4  H           1     -27.318  -8.061 -18.777  0.00  0.00     0.163 HD
ENDROOT
BRANCH   1   5
HETATM    5  C           1     -26.653  -6.824 -20.397  0.00  0.00     0.186 C 
BRANCH   5   6
HETATM    6  C           1     -26.486  -8.060 -21.247  0.00  0.00     0.196 C 
HETATM    7  O           1     -25.403  -8.274 -21.834  0.00  0.00    -0.646 OA
HETATM    8  O           1     -27.432  -8.868 -21.366  0.00  0.00    -0.646 OA
ENDBRANCH   5   6
BRANCH   5   9
HETATM    9  C           1     -25.283  -6.305 -19.982  0.00  0.00     0.045 C 
BRANCH   9  10
HETATM   10  C           1     -24.523  -7.404 -19.250  0.00  0.00     0.105 C 
BRANCH  10  11
HETATM   11  C           1     -24.481  -7.091 -17.775  0.00  0.00     0.215 C 
HETATM   12  O           1     -25.257  -6.295 -17.305  0.00  0.00    -0.274 OA
HETATM   13  N           1     -23.564  -7.711 -16.970  0.00  0.00    -0.370 N 
HETATM   14  H           1     -23.536  -7.501 -15.980  0.00  0.00     0.159 HD
HETATM   15  H           1     -22.914  -8.378 -17.364  0.00  0.00     0.159 HD
ENDBRANCH  10  11
ENDBRANCH   9  10
ENDBRANCH   5   9
ENDBRANCH   1   5
BRANCH   3  16
HETATM   16  C           1     -29.092  -6.579 -17.452  0.00  0.00     0.275 C 
BRANCH  16  17
HETATM   17  C           1     -29.500  -5.297 -16.739  0.00  0.00     0.053 C 
BRANCH  17  18
HETATM   18  C           1     -30.973  -5.016 -17.000  0.00  0.00     0.115 C 
BRANCH  18  19
HETATM   19  C           1     -31.143  -3.583 -17.440  0.00  0.00     0.172 C 
HETATM   20  O           1     -30.147  -2.831 -17.518  0.00  0.00    -0.648 OA
HETATM   21  O           1     -32.279  -3.147 -17.728  0.00  0.00    -0.648 OA
ENDBRANCH  18  19
ENDBRANCH  17  18
ENDBRANCH  16  17
BRANCH  16  22
HETATM   22  N           1     -28.256  -7.419 -16.531  0.00  0.00    -0.066 N 
HETATM   23  H           1     -28.734  -7.500 -15.606  0.00  0.00     0.275 HD
HETATM   24  H           1     -28.132  -8.370 -16.945  0.00  0.00     0.275 HD
HETATM   25  H           1     -27.322  -6.970 -16.403  0.00  0.00     0.275 HD
ENDBRANCH  16  22
ENDBRANCH   3  16
TORSDOF 10
ENDMDL
MODEL 3
REMARK VINA RESULT:      -6.3      1.890      2.590
REMARK  10 active torsions:
REMARK  status: ('A' for Active; 'I' for Inactive)
REMARK    1  A    between atoms: N_1  and  C_5 
REMARK       I    between atoms: N_1  and  C_16 
REMARK    2  A    between atoms: C_4  and  C_5 
REMARK    3  A    between atoms: C_5  and  C_6 
REMARK    4  A    between atoms: C_6  and  C_7 
REMARK    5  A    between atoms: C_7  and  C_24 
REMARK    6  A    between atoms: C_13  and  C_16 
REMARK    7  A    between atoms: C_13  and  C_14 
REMARK    8  A    between atoms: C_13  and  N_17 
REMARK    9  A    between atoms: C_14  and  C_15 
REMARK   10  A    between atoms: C_15  and  C_18 
REMARK       I    between atoms: C_24  and  N_25 
ROOT
HETATM    1  N           1     -26.994  -6.344 -18.291  0.00  0.00    -0.345 N 
HETATM    2  O           1     -24.817  -6.635 -17.888  0.00  0.00    -0.271 OA
HETATM    3  C           1     -25.721  -6.656 -18.688  0.00  0.00     0.249 C 
HETATM    4  H           1     -27.751  -6.361 -18.963  0.00  0.00     0.163 HD
ENDROOT
BRANCH   1   5
HETATM    5  C           1     -27.256  -5.988 -16.911  0.00  0.00     0.186 C 
BRANCH   5   6
HETATM    6  C           1     -28.077  -7.074 -16.259  0.00  0.00     0.196 C 
HETATM    7  O           1     -29.029  -7.595 -16.880  0.00  0.00    -0.646 OA
HETATM    8  O           1     -27.806  -7.450 -15.100  0.00  0.00    -0.646 OA
ENDBRANCH   5   6
BRANCH   5   9
HETATM    9  C           1     -28.023  -4.673 -16.864  0.00  0.00     0.045 C 
BRANCH   9  10
HETATM   10  C           1     -28.964  -4.591 -18.059  0.00  0.00     0.105 C 
BRANCH  10  11
HETATM   11  C           1     -30.339  -4.188 -17.591  0.00  0.00     0.215 C 
HETATM   12  O           1     -31.075  -5.010 -17.099  0.00  0.00    -0.274 OA
HETATM   13  N           1     -30.755  -2.890 -17.723  0.00  0.00    -0.370 N 
HETATM   14  H           1     -31.678  -2.620 -17.409  0.00  0.00     0.159 HD
HETATM   15  H           1     -30.138  -2.201 -18.135  0.00  0.00     0.159 HD
ENDBRANCH  10  11
ENDBRANCH   9  10
ENDBRANCH   5   9
ENDBRANCH   1   5
BRANCH   3  16
HETATM   16  C           1     -25.449  -7.027 -20.126  0.00  0.00     0.275 C 
BRANCH  16  17
HETATM   17  C           1     -24.109  -7.746 -20.220  0.00  0.00     0.053 C 
BRANCH  17  18
HETATM   18  C           1     -23.833  -8.122 -21.669  0.00  0.00     0.115 C 
BRANCH  18  19
HETATM   19  C           1     -22.417  -8.624 -21.798  0.00  0.00     0.172 C 
HETATM   20  O           1     -21.633  -8.542 -20.828  0.00  0.00    -0.648 OA
HETATM   21  O           1     -22.026  -9.124 -22.876  0.00  0.00    -0.648 OA
ENDBRANCH  18  19
ENDBRANCH  17  18
ENDBRANCH  16  17
BRANCH  16  22
HETATM   22  N           1     -25.407  -5.783 -20.963  0.00  0.00    -0.066 N 
HETATM   23  H           1     -24.677  -5.886 -21.704  0.00  0.00     0.275 HD
HETATM   24  H           1     -26.339  -5.633 -21.409  0.00  0.00     0.275 HD
HETATM   25  H           1     -25.175  -4.964 -20.357  0.00  0.00     0.275 HD
ENDBRANCH  16  22
ENDBRANCH   3  16
TORSDOF 10
ENDMDL
MODEL 4
REMARK VINA RESULT:      -6.2     11.679     13.823
REMARK  10 active torsions:
REMARK  status: ('A' for Active; 'I' for Inactive)
REMARK    1  A    between atoms: N_1  and  C_5 
REMARK       I    between atoms: N_1  and  C_16 
REMARK    2  A    between atoms: C_4  and  C_5 
REMARK    3  A    between atoms: C_5  and  C_6 
REMARK    4  A    between atoms: C_6  and  C_7 
REMARK    5  A    between atoms: C_7  and  C_24 
REMARK    6  A    between atoms: C_13  and  C_16 
REMARK    7  A    between atoms: C_13  and  C_14 
REMARK    8  A    between atoms: C_13  and  N_17 
REMARK    9  A    between atoms: C_14  and  C_15 
REMARK   10  A    between atoms: C_15  and  C_18 
REMARK       I    between atoms: C_24  and  N_25 
ROOT
HETATM    1  N           1     -21.436  -6.267  -6.280  0.00  0.00    -0.345 N 
HETATM    2  O           1     -20.456  -4.261  -6.302  0.00  0.00    -0.271 OA
HETATM    3  C           1     -21.166  -5.060  -6.866  0.00  0.00     0.249 C 
HETATM    4  H           1     -22.031  -6.936  -6.753  0.00  0.00     0.163 HD
ENDROOT
BRANCH   1   5
HETATM    5  C           1     -20.871  -6.587  -4.984  0.00  0.00     0.186 C 
BRANCH   5   6
HETATM    6  C           1     -20.087  -7.873  -5.082  0.00  0.00     0.196 C 
HETATM    7  O           1     -19.305  -8.058  -6.040  0.00  0.00    -0.646 OA
HETATM    8  O           1     -20.220  -8.753  -4.205  0.00  0.00    -0.646 OA
ENDBRANCH   5   6
BRANCH   5   9
HETATM    9  C           1     -21.993  -6.752  -3.969  0.00  0.00     0.045 C 
BRANCH   9  10
HETATM   10  C           1     -21.603  -6.067  -2.665  0.00  0.00     0.105 C 
BRANCH  10  11
HETATM   11  C           1     -21.835  -7.010  -1.511  0.00  0.00     0.215 C 
HETATM   12  O           1     -22.778  -6.843  -0.774  0.00  0.00    -0.274 OA
HETATM   13  N           1     -20.977  -8.055  -1.298  0.00  0.00    -0.370 N 
HETATM   14  H           1     -21.132  -8.687  -0.523  0.00  0.00     0.159 HD
HETATM   15  H           1     -20.187  -8.194  -1.915  0.00  0.00     0.159 HD
ENDBRANCH  10  11
ENDBRANCH   9  10
ENDBRANCH   5   9
ENDBRANCH   1   5
BRANCH   3  16
HETATM   16  C           1     -21.755  -4.727  -8.215  0.00  0.00     0.275 C 
BRANCH  16  17
HETATM   17  C           1     -20.732  -3.956  -9.039  0.00  0.00     0.053 C 
BRANCH  17  18
HETATM   18  C           1     -20.674  -4.532 -10.447  0.00  0.00     0.115 C 
BRANCH  18  19
HETATM   19  C           1     -21.689  -3.835 -11.319  0.00  0.00     0.172 C 
HETATM   20  O           1     -22.656  -4.474 -11.786  0.00  0.00    -0.648 OA
HETATM   21  O           1     -21.562  -2.617 -11.575  0.00  0.00    -0.648 OA
ENDBRANCH  18  19
ENDBRANCH  17  18
ENDBRANCH  16  17
BRANCH  16  22
HETATM   22  N           1     -22.983  -3.886  -8.030  0.00  0.00    -0.066 N 
HETATM   23  H           1     -23.449  -3.742  -8.954  0.00  0.00     0.275 HD
HETATM   24  H           1     -23.641  -4.372  -7.380  0.00  0.00     0.275 HD
HETATM   25  H           1     -22.714  -2.961  -7.627  0.00  0.00     0.275 HD
ENDBRANCH  16  22
ENDBRANCH   3  16
TORSDOF 10
ENDMDL
MODEL 5
REMARK VINA RESULT:      -6.0     11.846     14.197
REMARK  10 active torsions:
REMARK  status: ('A' for Active; 'I' for Inactive)
REMARK    1  A    between atoms: N_1  and  C_5 
REMARK       I    between atoms: N_1  and  C_16 
REMARK    2  A    between atoms: C_4  and  C_5 
REMARK    3  A    between atoms: C_5  and  C_6 
REMARK    4  A    between atoms: C_6  and  C_7 
REMARK    5  A    between atoms: C_7  and  C_24 
REMARK    6  A    between atoms: C_13  and  C_16 
REMARK    7  A    between atoms: C_13  and  C_14 
REMARK    8  A    between atoms: C_13  and  N_17 
REMARK    9  A    between atoms: C_14  and  C_15 
REMARK   10  A    between atoms: C_15  and  C_18 
REMARK       I    between atoms: C_24  and  N_25 
ROOT
HETATM    1  N           1     -21.828  -5.708  -6.083  0.00  0.00    -0.345 N 
HETATM    2  O           1     -20.916  -7.733  -6.318  0.00  0.00    -0.271 OA
HETATM    3  C           1     -21.526  -6.960  -5.618  0.00  0.00     0.249 C 
HETATM    4  H           1     -22.339  -5.061  -5.496  0.00  0.00     0.163 HD
ENDROOT
BRANCH   1   5
HETATM    5  C           1     -21.415  -5.310  -7.414  0.00  0.00     0.186 C 
BRANCH   5   6
HETATM    6  C           1     -20.074  -4.620  -7.339  0.00  0.00     0.196 C 
HETATM    7  O           1     -19.528  -4.201  -8.382  0.00  0.00    -0.646 OA
HETATM    8  O           1     -19.512  -4.469  -6.234  0.00  0.00    -0.646 OA
ENDBRANCH   5   6
BRANCH   5   9
HETATM    9  C           1     -22.446  -4.354  -7.999  0.00  0.00     0.045 C 
BRANCH   9  10
HETATM   10  C           1     -22.641  -4.661  -9.479  0.00  0.00     0.105 C 
BRANCH  10  11
HETATM   11  C           1     -23.902  -3.997  -9.970  0.00  0.00     0.215 C 
HETATM   12  O           1     -23.839  -3.108 -10.786  0.00  0.00    -0.274 OA
HETATM   13  N           1     -25.120  -4.401  -9.491  0.00  0.00    -0.370 N 
HETATM   14  H           1     -25.966  -3.955  -9.820  0.00  0.00     0.159 HD
HETATM   15  H           1     -25.173  -5.145  -8.807  0.00  0.00     0.159 HD
ENDBRANCH  10  11
ENDBRANCH   9  10
ENDBRANCH   5   9
ENDBRANCH   1   5
BRANCH   3  16
HETATM   16  C           1     -21.956  -7.374  -4.232  0.00  0.00     0.275 C 
BRANCH  16  17
HETATM   17  C           1     -21.221  -6.530  -3.199  0.00  0.00     0.053 C 
BRANCH  17  18
HETATM   18  C           1     -22.186  -6.126  -2.092  0.00  0.00     0.115 C 
BRANCH  18  19
HETATM   19  C           1     -22.145  -7.155  -0.989  0.00  0.00     0.172 C 
HETATM   20  O           1     -21.173  -7.934  -0.896  0.00  0.00    -0.648 OA
HETATM   21  O           1     -23.084  -7.226  -0.166  0.00  0.00    -0.648 OA
ENDBRANCH  18  19
ENDBRANCH  17  18
ENDBRANCH  16  17
BRANCH  16  22
HETATM   22  N           1     -21.626  -8.822  -4.019  0.00  0.00    -0.066 N 
HETATM   23  H           1     -21.528  -9.296  -4.945  0.00  0.00     0.275 HD
HETATM   24  H           1     -20.728  -8.899  -3.491  0.00  0.00     0.275 HD
HETATM   25  H           1     -22.392  -9.277  -3.474  0.00  0.00     0.275 HD
ENDBRANCH  16  22
ENDBRANCH   3  16
TORSDOF 10
ENDMDL
MODEL 6
REMARK VINA RESULT:      -5.5      2.049      2.358
REMARK  10 active torsions:
REMARK  status: ('A' for Active; 'I' for Inactive)
REMARK    1  A    between atoms: N_1  and  C_5 
REMARK       I    between atoms: N_1  and  C_16 
REMARK    2  A    between atoms: C_4  and  C_5 
REMARK    3  A    between atoms: C_5  and  C_6 
REMARK    4  A    between atoms: C_6  and  C_7 
REMARK    5  A    between atoms: C_7  and  C_24 
REMARK    6  A    between atoms: C_13  and  C_16 
REMARK    7  A    between atoms: C_13  and  C_14 
REMARK    8  A    between atoms: C_13  and  N_17 
REMARK    9  A    between atoms: C_14  and  C_15 
REMARK   10  A    between atoms: C_15  and  C_18 
REMARK       I    between atoms: C_24  and  N_25 
ROOT
HETATM    1  N           1     -27.549  -6.554 -18.842  0.00  0.00    -0.345 N 
HETATM    2  O           1     -26.076  -6.203 -17.201  0.00  0.00    -0.271 OA
HETATM    3  C           1     -26.269  -6.425 -18.372  0.00  0.00     0.249 C 
HETATM    4  H           1     -27.710  -6.740 -19.824  0.00  0.00     0.163 HD
ENDROOT
BRANCH   1   5
HETATM    5  C           1     -28.671  -6.424 -17.935  0.00  0.00     0.186 C 
BRANCH   5   6
HETATM    6  C           1     -29.423  -7.731 -17.876  0.00  0.00     0.196 C 
HETATM    7  O           1     -29.506  -8.356 -16.796  0.00  0.00    -0.646 OA
HETATM    8  O           1     -29.961  -8.188 -18.906  0.00  0.00    -0.646 OA
ENDBRANCH   5   6
BRANCH   5   9
HETATM    9  C           1     -29.600  -5.325 -18.432  0.00  0.00     0.045 C 
BRANCH   9  10
HETATM   10  C           1     -30.099  -4.507 -17.248  0.00  0.00     0.105 C 
BRANCH  10  11
HETATM   11  C           1     -31.449  -5.020 -16.814  0.00  0.00     0.215 C 
HETATM   12  O           1     -32.008  -5.873 -17.462  0.00  0.00    -0.274 OA
HETATM   13  N           1     -32.042  -4.520 -15.686  0.00  0.00    -0.370 N 
HETATM   14  H           1     -32.948  -4.865 -15.395  0.00  0.00     0.159 HD
HETATM   15  H           1     -31.574  -3.806 -15.143  0.00  0.00     0.159 HD
ENDBRANCH  10  11
ENDBRANCH   9  10
ENDBRANCH   5   9
ENDBRANCH   1   5
BRANCH   3  16
HETATM   16  C           1     -25.100  -6.561 -19.318  0.00  0.00     0.275 C 
BRANCH  16  17
HETATM   17  C           1     -25.606  -6.976 -20.694  0.00  0.00     0.053 C 
BRANCH  17  18
HETATM   18  C           1     -24.834  -8.198 -21.172  0.00  0.00     0.115 C 
BRANCH  18  19
HETATM   19  C           1     -23.947  -7.812 -22.330  0.00  0.00     0.172 C 
HETATM   20  O           1     -24.049  -6.677 -22.845  0.00  0.00    -0.648 OA
HETATM   21  O           1     -23.110  -8.627 -22.776  0.00  0.00    -0.648 OA
ENDBRANCH  18  19
ENDBRANCH  17  18
ENDBRANCH  16  17
BRANCH  16  22
HETATM   22  N           1     -24.156  -7.604 -18.797  0.00  0.00    -0.066 N 
HETATM   23  H           1     -23.208  -7.183 -18.671  0.00  0.00     0.275 HD
HETATM   24  H           1     -24.504  -7.960 -17.879  0.00  0.00     0.275 HD
HETATM   25  H           1     -24.099  -8.393 -19.479  0.00  0.00     0.275 HD
ENDBRANCH  16  22
ENDBRANCH   3  16
TORSDOF 10
ENDMDL
MODEL 7
REMARK VINA RESULT:      -5.5     10.989     13.121
REMARK  10 active torsions:
REMARK  status: ('A' for Active; 'I' for Inactive)
REMARK    1  A    between atoms: N_1  and  C_5 
REMARK       I    between atoms: N_1  and  C_16 
REMARK    2  A    between atoms: C_4  and  C_5 
REMARK    3  A    between atoms: C_5  and  C_6 
REMARK    4  A    between atoms: C_6  and  C_7 
REMARK    5  A    between atoms: C_7  and  C_24 
REMARK    6  A    between atoms: C_13  and  C_16 
REMARK    7  A    between atoms: C_13  and  C_14 
REMARK    8  A    between atoms: C_13  and  N_17 
REMARK    9  A    between atoms: C_14  and  C_15 
REMARK   10  A    between atoms: C_15  and  C_18 
REMARK       I    between atoms: C_24  and  N_25 
ROOT
HETATM    1  N           1     -21.231  -4.979  -6.632  0.00  0.00    -0.345 N 
HETATM    2  O           1     -21.201  -7.211  -6.713  0.00  0.00    -0.271 OA
HETATM    3  C           1     -21.154  -6.210  -6.038  0.00  0.00     0.249 C 
HETATM    4  H           1     -21.191  -4.141  -6.064  0.00  0.00     0.163 HD
ENDROOT
BRANCH   1   5
HETATM    5  C           1     -21.368  -4.876  -8.071  0.00  0.00     0.186 C 
BRANCH   5   6
HETATM    6  C           1     -20.017  -4.605  -8.686  0.00  0.00     0.196 C 
HETATM    7  O           1     -19.839  -4.790  -9.910  0.00  0.00    -0.646 OA
HETATM    8  O           1     -19.076  -4.197  -7.972  0.00  0.00    -0.646 OA
ENDBRANCH   5   6
BRANCH   5   9
HETATM    9  C           1     -22.318  -3.735  -8.408  0.00  0.00     0.045 C 
BRANCH   9  10
HETATM   10  C           1     -23.726  -4.285  -8.601  0.00  0.00     0.105 C 
BRANCH  10  11
HETATM   11  C           1     -24.397  -3.565  -9.743  0.00  0.00     0.215 C 
HETATM   12  O           1     -23.731  -3.088 -10.631  0.00  0.00    -0.274 OA
HETATM   13  N           1     -25.761  -3.450  -9.774  0.00  0.00    -0.370 N 
HETATM   14  H           1     -26.210  -2.966 -10.541  0.00  0.00     0.159 HD
HETATM   15  H           1     -26.319  -3.849  -9.031  0.00  0.00     0.159 HD
ENDBRANCH  10  11
ENDBRANCH   9  10
ENDBRANCH   5   9
ENDBRANCH   1   5
BRANCH   3  16
HETATM   16  C           1     -21.011  -6.318  -4.539  0.00  0.00     0.275 C 
BRANCH  16  17
HETATM   17  C           1     -20.402  -7.668  -4.182  0.00  0.00     0.053 C 
BRANCH  17  18
HETATM   18  C           1     -21.406  -8.483  -3.380  0.00  0.00     0.115 C 
BRANCH  18  19
HETATM   19  C           1     -21.623  -9.817  -4.051  0.00  0.00     0.172 C 
HETATM   20  O           1     -22.562 -10.556  -3.686  0.00  0.00    -0.648 OA
HETATM   21  O           1     -20.863 -10.183  -4.974  0.00  0.00    -0.648 OA
ENDBRANCH  18  19
ENDBRANCH  17  18
ENDBRANCH  16  17
BRANCH  16  22
HETATM   22  N           1     -22.362  -6.195  -3.898  0.00  0.00    -0.066 N 
HETATM   23  H           1     -22.564  -5.189  -3.701  0.00  0.00     0.275 HD
HETATM   24  H           1     -23.088  -6.577  -4.545  0.00  0.00     0.275 HD
HETATM   25  H           1     -22.373  -6.734  -3.004  0.00  0.00     0.275 HD
ENDBRANCH  16  22
ENDBRANCH   3  16
TORSDOF 10
ENDMDL
MODEL 8
REMARK VINA RESULT:      -5.4     12.479     14.588
REMARK  10 active torsions:
REMARK  status: ('A' for Active; 'I' for Inactive)
REMARK    1  A    between atoms: N_1  and  C_5 
REMARK       I    between atoms: N_1  and  C_16 
REMARK    2  A    between atoms: C_4  and  C_5 
REMARK    3  A    between atoms: C_5  and  C_6 
REMARK    4  A    between atoms: C_6  and  C_7 
REMARK    5  A    between atoms: C_7  and  C_24 
REMARK    6  A    between atoms: C_13  and  C_16 
REMARK    7  A    between atoms: C_13  and  C_14 
REMARK    8  A    between atoms: C_13  and  N_17 
REMARK    9  A    between atoms: C_14  and  C_15 
REMARK   10  A    between atoms: C_15  and  C_18 
REMARK       I    between atoms: C_24  and  N_25 
ROOT
HETATM    1  N           1     -21.514  -7.906  -4.847  0.00  0.00    -0.345 N 
HETATM    2  O           1     -19.672  -7.379  -5.993  0.00  0.00    -0.271 OA
HETATM    3  C           1     -20.825  -7.127  -5.737  0.00  0.00     0.249 C 
HETATM    4  H           1     -22.481  -7.694  -4.633  0.00  0.00     0.163 HD
ENDROOT
BRANCH   1   5
HETATM    5  C           1     -20.861  -9.033  -4.213  0.00  0.00     0.186 C 
BRANCH   5   6
HETATM    6  C           1     -21.328 -10.315  -4.859  0.00  0.00     0.196 C 
HETATM    7  O           1     -20.980 -10.587  -6.029  0.00  0.00    -0.646 OA
HETATM    8  O           1     -22.063 -11.101  -4.226  0.00  0.00    -0.646 OA
ENDBRANCH   5   6
BRANCH   5   9
HETATM    9  C           1     -21.212  -9.054  -2.731  0.00  0.00     0.045 C 
BRANCH   9  10
HETATM   10  C           1     -20.749  -7.757  -2.081  0.00  0.00     0.105 C 
BRANCH  10  11
HETATM   11  C           1     -21.949  -6.910  -1.736  0.00  0.00     0.215 C 
HETATM   12  O           1     -22.326  -6.056  -2.504  0.00  0.00    -0.274 OA
HETATM   13  N           1     -22.610  -7.107  -0.554  0.00  0.00    -0.370 N 
HETATM   14  H           1     -23.415  -6.539  -0.324  0.00  0.00     0.159 HD
HETATM   15  H           1     -22.294  -7.822   0.089  0.00  0.00     0.159 HD
ENDBRANCH  10  11
ENDBRANCH   9  10
ENDBRANCH   5   9
ENDBRANCH   1   5
BRANCH   3  16
HETATM   16  C           1     -21.506  -5.953  -6.398  0.00  0.00     0.275 C 
BRANCH  16  17
HETATM   17  C           1     -20.558  -4.761  -6.417  0.00  0.00     0.053 C 
BRANCH  17  18
HETATM   18  C           1     -21.106  -3.690  -7.351  0.00  0.00     0.115 C 
BRANCH  18  19
HETATM   19  C           1     -20.919  -4.128  -8.783  0.00  0.00     0.172 C 
HETATM   20  O           1     -21.815  -3.906  -9.626  0.00  0.00    -0.648 OA
HETATM   21  O           1     -19.868  -4.711  -9.127  0.00  0.00    -0.648 OA
ENDBRANCH  18  19
ENDBRANCH  17  18
ENDBRANCH  16  17
BRANCH  16  22
HETATM   22  N           1     -22.743  -5.596  -5.629  0.00  0.00    -0.066 N 
HETATM   23  H           1     -23.578  -6.009  -6.101  0.00  0.00     0.275 HD
HETATM   24  H           1     -22.669  -5.974  -4.658  0.00  0.00     0.275 HD
HETATM   25  H           1     -22.842  -4.557  -5.592  0.00  0.00     0.275 HD
ENDBRANCH  16  22
ENDBRANCH   3  16
TORSDOF 10
ENDMDL
MODEL 9
REMARK VINA RESULT:      -5.4     10.258     12.484
REMARK  10 active torsions:
REMARK  status: ('A' for Active; 'I' for Inactive)
REMARK    1  A    between atoms: N_1  and  C_5 
REMARK       I    between atoms: N_1  and  C_16 
REMARK    2  A    between atoms: C_4  and  C_5 
REMARK    3  A    between atoms: C_5  and  C_6 
REMARK    4  A    between atoms: C_6  and  C_7 
REMARK    5  A    between atoms: C_7  and  C_24 
REMARK    6  A    between atoms: C_13  and  C_16 
REMARK    7  A    between atoms: C_13  and  C_14 
REMARK    8  A    between atoms: C_13  and  N_17 
REMARK    9  A    between atoms: C_14  and  C_15 
REMARK   10  A    between atoms: C_15  and  C_18 
REMARK       I    between atoms: C_24  and  N_25 
ROOT
HETATM    1  N           1     -20.589  -4.600  -8.665  0.00  0.00    -0.345 N 
HETATM    2  O           1     -21.711  -6.339  -7.825  0.00  0.00    -0.271 OA
HETATM    3  C           1     -20.741  -5.621  -7.765  0.00  0.00     0.249 C 
HETATM    4  H           1     -19.776  -3.999  -8.613  0.00  0.00     0.163 HD
ENDROOT
BRANCH   1   5
HETATM    5  C           1     -21.590  -4.382  -9.689  0.00  0.00     0.186 C 
BRANCH   5   6
HETATM    6  C           1     -20.930  -3.820 -10.925  0.00  0.00     0.196 C 
HETATM    7  O           1     -21.512  -2.944 -11.601  0.00  0.00    -0.646 OA
HETATM    8  O           1     -19.803  -4.231 -11.272  0.00  0.00    -0.646 OA
ENDBRANCH   5   6
BRANCH   5   9
HETATM    9  C           1     -22.632  -3.397  -9.177  0.00  0.00     0.045 C 
BRANCH   9  10
HETATM   10  C           1     -23.955  -4.122  -8.964  0.00  0.00     0.105 C 
BRANCH  10  11
HETATM   11  C           1     -24.965  -3.634  -9.972  0.00  0.00     0.215 C 
HETATM   12  O           1     -24.660  -3.542 -11.137  0.00  0.00    -0.274 OA
HETATM   13  N           1     -26.229  -3.296  -9.568  0.00  0.00    -0.370 N 
HETATM   14  H           1     -26.906  -2.969 -10.244  0.00  0.00     0.159 HD
HETATM   15  H           1     -26.485  -3.374  -8.592  0.00  0.00     0.159 HD
ENDBRANCH  10  11
ENDBRANCH   9  10
ENDBRANCH   5   9
ENDBRANCH   1   5
BRANCH   3  16
HETATM   16  C           1     -19.698  -5.849  -6.698  0.00  0.00     0.275 C 
BRANCH  16  17
HETATM   17  C           1     -20.313  -6.633  -5.546  0.00  0.00     0.053 C 
BRANCH  17  18
HETATM   18  C           1     -20.898  -5.665  -4.526  0.00  0.00     0.115 C 
BRANCH  18  19
HETATM   19  C           1     -21.458  -6.441  -3.359  0.00  0.00     0.172 C 
HETATM   20  O           1     -22.443  -5.999  -2.730  0.00  0.00    -0.648 OA
HETATM   21  O           1     -20.936  -7.526  -3.022  0.00  0.00    -0.648 OA
ENDBRANCH  18  19
ENDBRANCH  17  18
ENDBRANCH  16  17
BRANCH  16  22
HETATM   22  N           1     -19.204  -4.525  -6.193  0.00  0.00    -0.066 N 
HETATM   23  H           1     -18.230  -4.363  -6.537  0.00  0.00     0.275 HD
HETATM   24  H           1     -19.828  -3.765  -6.543  0.00  0.00     0.275 HD
HETATM   25  H           1     -19.209  -4.528  -5.149  0.00  0.00     0.275 HD
ENDBRANCH  16  22
ENDBRANCH   3  16
TORSDOF 10
ENDMDL
