MODEL 1
REMARK VINA RESULT:      -6.1      0.000      0.000
REMARK  12 active torsions:
REMARK  status: ('A' for Active; 'I' for Inactive)
REMARK    1  A    between atoms: C_1  and  C_2 
REMARK    2  A    between atoms: C_1  and  C_20 
REMARK    3  A    between atoms: C_1  and  N_17 
REMARK    4  A    between atoms: C_2  and  C_3 
REMARK    5  A    between atoms: C_3  and  C_4 
REMARK    6  A    between atoms: C_4  and  C_5 
REMARK    7  A    between atoms: C_5  and  N_21 
REMARK    8  A    between atoms: N_10  and  C_15 
REMARK    9  A    between atoms: Se_12  and  C_13 
REMARK   10  A    between atoms: C_13  and  C_14 
REMARK   11  A    between atoms: C_14  and  C_15 
REMARK   12  A    between atoms: C_15  and  C_16 
REMARK       I    between atoms: C_16  and  N_17 
ROOT
HETATM    1  O           1     -24.270  -6.458 -18.630  0.00  0.00    -0.271 OA
HETATM    2  C           1     -25.334  -6.879 -19.017  0.00  0.00     0.249 C 
HETATM    3  N           1     -26.460  -6.693 -18.261  0.00  0.00    -0.345 N 
HETATM    4  H           1     -27.352  -7.046 -18.585  0.00  0.00     0.163 HD
ENDROOT
BRANCH   3   5
HETATM    5  C           1     -26.375  -5.991 -16.995  0.00  0.00     0.185 C 
BRANCH   5   6
HETATM    6  C           1     -27.593  -5.091 -16.831  0.00  0.00     0.036 C 
BRANCH   6   7
HETATM    7  C           1     -28.539  -5.298 -18.007  0.00  0.00     0.004 C 
BRANCH   7   8
HETATM    8  C           1     -29.836  -5.925 -17.511  0.00  0.00     0.027 C 
BRANCH   8   9
HETATM    9  C           1     -30.031  -7.282 -18.175  0.00  0.00     0.229 C 
BRANCH   9  10
HETATM   10  N           1     -29.416  -8.350 -17.321  0.00  0.00    -0.079 N 
HETATM   11  H           1     -29.750  -8.245 -16.337  0.00  0.00     0.274 HD
HETATM   12  H           1     -28.375  -8.260 -17.347  0.00  0.00     0.274 HD
HETATM   13  H           1     -29.692  -9.290 -17.685  0.00  0.00     0.274 HD
ENDBRANCH   9  10
ENDBRANCH   8   9
ENDBRANCH   7   8
ENDBRANCH   6   7
ENDBRANCH   5   6
BRANCH   5  14
HETATM   14  C           1     -26.333  -6.992 -15.866  0.00  0.00     0.196 C 
HETATM   15  O           1     -27.398  -7.430 -15.380  0.00  0.00    -0.646 OA
HETATM   16  O           1     -25.235  -7.385 -15.420  0.00  0.00    -0.646 OA
ENDBRANCH   5  14
ENDBRANCH   3   5
BRANCH   2  17
HETATM   17  C           1     -25.423  -7.609 -20.334  0.00  0.00     0.274 C 
BRANCH  17  18
HETATM   18  N           1     -26.857  -7.932 -20.631  0.00  0.00    -0.067 N 
HETATM   19  H           1     -27.461  -7.580 -19.854  0.00  0.00     0.275 HD
HETATM   20  H           1     -27.140  -7.472 -21.526  0.00  0.00     0.275 HD
HETATM   21  H           1     -26.971  -8.967 -20.719  0.00  0.00     0.275 HD
ENDBRANCH  17  18
BRANCH  17  22
HETATM   22  C           1     -24.861  -6.729 -21.444  0.00  0.00     0.042 C 
BRANCH  22  23
HETATM   23  C           1     -24.008  -7.575 -22.380  0.00  0.00     0.003 C 
BRANCH  23  24
HETATM   24 Se           1     -22.686  -8.561 -21.342  0.00  0.00     0.000 Se
HETATM   25  C           1     -21.731  -9.241 -22.899  0.00  0.00     0.000 C 
ENDBRANCH  23  24
ENDBRANCH  22  23
ENDBRANCH  17  22
ENDBRANCH   2  17
TORSDOF 12
ENDMDL
MODEL 2
REMARK VINA RESULT:      -5.7     11.435     12.851
REMARK  12 active torsions:
REMARK  status: ('A' for Active; 'I' for Inactive)
REMARK    1  A    between atoms: C_1  and  C_2 
REMARK    2  A    between atoms: C_1  and  C_20 
REMARK    3  A    between atoms: C_1  and  N_17 
REMARK    4  A    between atoms: C_2  and  C_3 
REMARK    5  A    between atoms: C_3  and  C_4 
REMARK    6  A    between atoms: C_4  and  C_5 
REMARK    7  A    between atoms: C_5  and  N_21 
REMARK    8  A    between atoms: N_10  and  C_15 
REMARK    9  A    between atoms: Se_12  and  C_13 
REMARK   10  A    between atoms: C_13  and  C_14 
REMARK   11  A    between atoms: C_14  and  C_15 
REMARK   12  A    between atoms: C_15  and  C_16 
REMARK       I    between atoms: C_16  and  N_17 
ROOT
HETATM    1  O           1     -33.639  -1.904 -10.961  0.00  0.00    -0.271 OA
HETATM    2  C           1     -34.437  -2.507 -11.638  0.00  0.00     0.249 C 
HETATM    3  N           1     -35.522  -1.856 -12.161  0.00  0.00    -0.345 N 
HETATM    4  H           1     -36.191  -2.361 -12.728  0.00  0.00     0.163 HD
ENDROOT
BRANCH   3   5
HETATM    5  C           1     -35.713  -0.443 -11.901  0.00  0.00     0.185 C 
BRANCH   5   6
HETATM    6  C           1     -36.163   0.251 -13.180  0.00  0.00     0.036 C 
BRANCH   6   7
HETATM    7  C           1     -34.944   0.760 -13.938  0.00  0.00     0.004 C 
BRANCH   7   8
HETATM    8  C           1     -35.216   0.700 -15.436  0.00  0.00     0.027 C 
BRANCH   8   9
HETATM    9  C           1     -35.632  -0.713 -15.822  0.00  0.00     0.229 C 
BRANCH   9  10
HETATM   10  N           1     -36.365  -0.679 -17.130  0.00  0.00    -0.079 N 
HETATM   11  H           1     -36.055  -1.481 -17.724  0.00  0.00     0.274 HD
HETATM   12  H           1     -36.158   0.220 -17.621  0.00  0.00     0.274 HD
HETATM   13  H           1     -37.393  -0.751 -16.956  0.00  0.00     0.274 HD
ENDBRANCH   9  10
ENDBRANCH   8   9
ENDBRANCH   7   8
ENDBRANCH   6   7
ENDBRANCH   5   6
BRANCH   5  14
HETATM   14  C           1     -36.765  -0.265 -10.834  0.00  0.00     0.196 C 
HETATM   15  O           1     -37.834  -0.911 -10.896  0.00  0.00    -0.646 OA
HETATM   16  O           1     -36.568   0.526  -9.888  0.00  0.00    -0.646 OA
ENDBRANCH   5  14
ENDBRANCH   3   5
BRANCH   2  17
HETATM   17  C           1     -34.239  -3.979 -11.908  0.00  0.00     0.274 C 
BRANCH  17  18
HETATM   18  N           1     -32.992  -4.174 -12.718  0.00  0.00    -0.067 N 
HETATM   19  H           1     -32.634  -3.245 -13.037  0.00  0.00     0.275 HD
HETATM   20  H           1     -32.265  -4.643 -12.132  0.00  0.00     0.275 HD
HETATM   21  H           1     -33.206  -4.768 -13.551  0.00  0.00     0.275 HD
ENDBRANCH  17  18
BRANCH  17  22
HETATM   22  C           1     -34.107  -4.725 -10.587  0.00  0.00     0.042 C 
BRANCH  22  23
HETATM   23  C           1     -33.796  -6.192 -10.861  0.00  0.00     0.003 C 
BRANCH  23  24
HETATM   24 Se           1     -34.978  -7.318  -9.796  0.00  0.00     0.000 Se
HETATM   25  C           1     -33.831  -8.891  -9.890  0.00  0.00     0.000 C 
ENDBRANCH  23  24
ENDBRANCH  22  23
ENDBRANCH  17  22
ENDBRANCH   2  17
TORSDOF 12
ENDMDL
MODEL 3
REMARK VINA RESULT:      -5.5      2.352      3.326
REMARK  12 active torsions:
REMARK  status: ('A' for Active; 'I' for Inactive)
REMARK    1  A    between atoms: C_1  and  C_2 
REMARK    2  A    between atoms: C_1  and  C_20 
REMARK    3  A    between atoms: C_1  and  N_17 
REMARK    4  A    between atoms: C_2  and  C_3 
REMARK    5  A    between atoms: C_3  and  C_4 
REMARK    6  A    between atoms: C_4  and  C_5 
REMARK    7  A    between atoms: C_5  and  N_21 
REMARK    8  A    between atoms: N_10  and  C_15 
REMARK    9  A    between atoms: Se_12  and  C_13 
REMARK   10  A    between atoms: C_13  and  C_14 
REMARK   11  A    between atoms: C_14  and  C_15 
REMARK   12  A    between atoms: C_15  and  C_16 
REMARK       I    between atoms: C_16  and  N_17 
ROOT
HETATM    1  O           1     -26.058  -7.294 -15.238  0.00  0.00    -0.271 OA
HETATM    2  C           1     -26.056  -6.923 -16.387  0.00  0.00     0.249 C 
HETATM    3  N           1     -27.226  -6.534 -16.982  0.00  0.00    -0.345 N 
HETATM    4  H           1     -27.225  -6.223 -17.945  0.00  0.00     0.163 HD
ENDROOT
BRANCH   3   5
HETATM    5  C           1     -28.467  -6.569 -16.233  0.00  0.00     0.185 C 
BRANCH   5   6
HETATM    6  C           1     -28.872  -5.150 -15.856  0.00  0.00     0.036 C 
BRANCH   6   7
HETATM    7  C           1     -28.148  -4.159 -16.758  0.00  0.00     0.004 C 
BRANCH   7   8
HETATM    8  C           1     -29.110  -3.053 -17.173  0.00  0.00     0.027 C 
BRANCH   8   9
HETATM    9  C           1     -30.197  -3.633 -18.068  0.00  0.00     0.229 C 
BRANCH   9  10
HETATM   10  N           1     -31.542  -3.364 -17.460  0.00  0.00    -0.079 N 
HETATM   11  H           1     -32.290  -3.706 -18.104  0.00  0.00     0.274 HD
HETATM   12  H           1     -31.656  -2.336 -17.308  0.00  0.00     0.274 HD
HETATM   13  H           1     -31.617  -3.861 -16.544  0.00  0.00     0.274 HD
ENDBRANCH   9  10
ENDBRANCH   8   9
ENDBRANCH   7   8
ENDBRANCH   6   7
ENDBRANCH   5   6
BRANCH   5  14
HETATM   14  C           1     -29.549  -7.193 -17.080  0.00  0.00     0.196 C 
HETATM   15  O           1     -29.341  -8.283 -17.656  0.00  0.00    -0.646 OA
HETATM   16  O           1     -30.654  -6.622 -17.204  0.00  0.00    -0.646 OA
ENDBRANCH   5  14
ENDBRANCH   3   5
BRANCH   2  17
HETATM   17  C           1     -24.765  -6.887 -17.167  0.00  0.00     0.274 C 
BRANCH  17  18
HETATM   18  N           1     -23.918  -8.064 -16.785  0.00  0.00    -0.067 N 
HETATM   19  H           1     -23.822  -8.102 -15.745  0.00  0.00     0.275 HD
HETATM   20  H           1     -24.371  -8.943 -17.124  0.00  0.00     0.275 HD
HETATM   21  H           1     -22.972  -7.968 -17.218  0.00  0.00     0.275 HD
ENDBRANCH  17  18
BRANCH  17  22
HETATM   22  C           1     -25.070  -6.943 -18.659  0.00  0.00     0.042 C 
BRANCH  22  23
HETATM   23  C           1     -23.815  -7.356 -19.417  0.00  0.00     0.003 C 
BRANCH  23  24
HETATM   24 Se           1     -24.298  -7.906 -21.224  0.00  0.00     0.000 Se
HETATM   25  C           1     -22.546  -8.651 -21.641  0.00  0.00     0.000 C 
ENDBRANCH  23  24
ENDBRANCH  22  23
ENDBRANCH  17  22
ENDBRANCH   2  17
TORSDOF 12
ENDMDL
MODEL 4
REMARK VINA RESULT:      -5.4     10.822     12.890
REMARK  12 active torsions:
REMARK  status: ('A' for Active; 'I' for Inactive)
REMARK    1  A    between atoms: C_1  and  C_2 
REMARK    2  A    between atoms: C_1  and  C_20 
REMARK    3  A    between atoms: C_1  and  N_17 
REMARK    4  A    between atoms: C_2  and  C_3 
REMARK    5  A    between atoms: C_3  and  C_4 
REMARK    6  A    between atoms: C_4  and  C_5 
REMARK    7  A    between atoms: C_5  and  N_21 
REMARK    8  A    between atoms: N_10  and  C_15 
REMARK    9  A    between atoms: Se_12  and  C_13 
REMARK   10  A    between atoms: C_13  and  C_14 
REMARK   11  A    between atoms: C_14  and  C_15 
REMARK   12  A    between atoms: C_15  and  C_16 
REMARK       I    between atoms: C_16  and  N_17 
ROOT
HETATM    1  O           1     -34.489  -1.517 -10.158  0.00  0.00    -0.271 OA
HETATM    2  C           1     -35.419  -1.789 -10.879  0.00  0.00     0.249 C 
HETATM    3  N           1     -35.490  -3.022 -11.469  0.00  0.00    -0.345 N 
HETATM    4  H           1     -36.269  -3.250 -12.073  0.00  0.00     0.163 HD
ENDROOT
BRANCH   3   5
HETATM    5  C           1     -34.448  -4.002 -11.229  0.00  0.00     0.185 C 
BRANCH   5   6
HETATM    6  C           1     -35.056  -5.397 -11.218  0.00  0.00     0.036 C 
BRANCH   6   7
HETATM    7  C           1     -34.162  -6.335 -10.418  0.00  0.00     0.004 C 
BRANCH   7   8
HETATM    8  C           1     -34.972  -7.540  -9.958  0.00  0.00     0.027 C 
BRANCH   8   9
HETATM    9  C           1     -34.033  -8.600  -9.395  0.00  0.00     0.229 C 
BRANCH   9  10
HETATM   10  N           1     -33.441  -9.393 -10.522  0.00  0.00    -0.079 N 
HETATM   11  H           1     -33.194  -8.750 -11.308  0.00  0.00     0.274 HD
HETATM   12  H           1     -34.137 -10.099 -10.854  0.00  0.00     0.274 HD
HETATM   13  H           1     -32.580  -9.883 -10.189  0.00  0.00     0.274 HD
ENDBRANCH   9  10
ENDBRANCH   8   9
ENDBRANCH   7   8
ENDBRANCH   6   7
ENDBRANCH   5   6
BRANCH   5  14
HETATM   14  C           1     -33.411  -3.912 -12.323  0.00  0.00     0.196 C 
HETATM   15  O           1     -32.203  -4.092 -12.055  0.00  0.00    -0.646 OA
HETATM   16  O           1     -33.761  -3.662 -13.496  0.00  0.00    -0.646 OA
ENDBRANCH   5  14
ENDBRANCH   3   5
BRANCH   2  17
HETATM   17  C           1     -36.503  -0.770 -11.129  0.00  0.00     0.274 C 
BRANCH  17  18
HETATM   18  N           1     -36.239   0.452 -10.302  0.00  0.00    -0.067 N 
HETATM   19  H           1     -36.869   1.226 -10.612  0.00  0.00     0.275 HD
HETATM   20  H           1     -36.423   0.238  -9.295  0.00  0.00     0.275 HD
HETATM   21  H           1     -35.243   0.746 -10.420  0.00  0.00     0.275 HD
ENDBRANCH  17  18
BRANCH  17  22
HETATM   22  C           1     -36.515  -0.391 -12.605  0.00  0.00     0.042 C 
BRANCH  22  23
HETATM   23  C           1     -35.251   0.391 -12.938  0.00  0.00     0.003 C 
BRANCH  23  24
HETATM   24 Se           1     -35.220   0.795 -14.845  0.00  0.00     0.000 Se
HETATM   25  C           1     -37.052   0.213 -15.164  0.00  0.00     0.000 C 
ENDBRANCH  23  24
ENDBRANCH  22  23
ENDBRANCH  17  22
ENDBRANCH   2  17
TORSDOF 12
ENDMDL
MODEL 5
REMARK VINA RESULT:      -5.2     11.497     13.848
REMARK  12 active torsions:
REMARK  status: ('A' for Active; 'I' for Inactive)
REMARK    1  A    between atoms: C_1  and  C_2 
REMARK    2  A    between atoms: C_1  and  C_20 
REMARK    3  A    between atoms: C_1  and  N_17 
REMARK    4  A    between atoms: C_2  and  C_3 
REMARK    5  A    between atoms: C_3  and  C_4 
REMARK    6  A    between atoms: C_4  and  C_5 
REMARK    7  A    between atoms: C_5  and  N_21 
REMARK    8  A    between atoms: N_10  and  C_15 
REMARK    9  A    between atoms: Se_12  and  C_13 
REMARK   10  A    between atoms: C_13  and  C_14 
REMARK   11  A    between atoms: C_14  and  C_15 
REMARK   12  A    between atoms: C_15  and  C_16 
REMARK       I    between atoms: C_16  and  N_17 
ROOT
HETATM    1  O           1     -34.684  -0.746 -13.260  0.00  0.00    -0.271 OA
HETATM    2  C           1     -35.189  -1.208 -12.265  0.00  0.00     0.249 C 
HETATM    3  N           1     -34.801  -2.439 -11.808  0.00  0.00    -0.345 N 
HETATM    4  H           1     -35.224  -2.826 -10.974  0.00  0.00     0.163 HD
ENDROOT
BRANCH   3   5
HETATM    5  C           1     -33.783  -3.188 -12.519  0.00  0.00     0.185 C 
BRANCH   5   6
HETATM    6  C           1     -33.031  -4.079 -11.539  0.00  0.00     0.036 C 
BRANCH   6   7
HETATM    7  C           1     -34.020  -4.720 -10.574  0.00  0.00     0.004 C 
BRANCH   7   8
HETATM    8  C           1     -33.833  -6.231 -10.584  0.00  0.00     0.027 C 
BRANCH   8   9
HETATM    9  C           1     -35.044  -6.898  -9.946  0.00  0.00     0.229 C 
BRANCH   9  10
HETATM   10  N           1     -34.639  -8.219  -9.364  0.00  0.00    -0.079 N 
HETATM   11  H           1     -34.815  -8.214  -8.334  0.00  0.00     0.274 HD
HETATM   12  H           1     -33.622  -8.382  -9.543  0.00  0.00     0.274 HD
HETATM   13  H           1     -35.197  -8.983  -9.809  0.00  0.00     0.274 HD
ENDBRANCH   9  10
ENDBRANCH   8   9
ENDBRANCH   7   8
ENDBRANCH   6   7
ENDBRANCH   5   6
BRANCH   5  14
HETATM   14  C           1     -34.435  -4.042 -13.579  0.00  0.00     0.196 C 
HETATM   15  O           1     -35.140  -5.019 -13.247  0.00  0.00    -0.646 OA
HETATM   16  O           1     -34.273  -3.771 -14.788  0.00  0.00    -0.646 OA
ENDBRANCH   5  14
ENDBRANCH   3   5
BRANCH   2  17
HETATM   17  C           1     -36.248  -0.429 -11.524  0.00  0.00     0.274 C 
BRANCH  17  18
HETATM   18  N           1     -37.441  -0.240 -12.413  0.00  0.00    -0.067 N 
HETATM   19  H           1     -37.937   0.641 -12.149  0.00  0.00     0.275 HD
HETATM   20  H           1     -37.128  -0.177 -13.408  0.00  0.00     0.275 HD
HETATM   21  H           1     -38.091  -1.052 -12.302  0.00  0.00     0.275 HD
ENDBRANCH  17  18
BRANCH  17  22
HETATM   22  C           1     -36.663  -1.194 -10.274  0.00  0.00     0.042 C 
BRANCH  22  23
HETATM   23  C           1     -37.689  -0.379  -9.497  0.00  0.00     0.003 C 
BRANCH  23  24
HETATM   24 Se           1     -36.814   0.510  -7.999  0.00  0.00     0.000 Se
HETATM   25  C           1     -38.074  -0.145  -6.663  0.00  0.00     0.000 C 
ENDBRANCH  23  24
ENDBRANCH  22  23
ENDBRANCH  17  22
ENDBRANCH   2  17
TORSDOF 12
ENDMDL
MODEL 6
REMARK VINA RESULT:      -5.0     12.358     14.449
REMARK  12 active torsions:
REMARK  status: ('A' for Active; 'I' for Inactive)
REMARK    1  A    between atoms: C_1  and  C_2 
REMARK    2  A    between atoms: C_1  and  C_20 
REMARK    3  A    between atoms: C_1  and  N_17 
REMARK    4  A    between atoms: C_2  and  C_3 
REMARK    5  A    between atoms: C_3  and  C_4 
REMARK    6  A    between atoms: C_4  and  C_5 
REMARK    7  A    between atoms: C_5  and  N_21 
REMARK    8  A    between atoms: N_10  and  C_15 
REMARK    9  A    between atoms: Se_12  and  C_13 
REMARK   10  A    between atoms: C_13  and  C_14 
REMARK   11  A    between atoms: C_14  and  C_15 
REMARK   12  A    between atoms: C_15  and  C_16 
REMARK       I    between atoms: C_16  and  N_17 
ROOT
HETATM    1  O           1     -19.665  -4.555  -5.631  0.00  0.00    -0.271 OA
HETATM    2  C           1     -20.664  -4.845  -6.245  0.00  0.00     0.249 C 
HETATM    3  N           1     -21.468  -5.862  -5.805  0.00  0.00    -0.345 N 
HETATM    4  H           1     -22.305  -6.105  -6.320  0.00  0.00     0.163 HD
ENDROOT
BRANCH   3   5
HETATM    5  C           1     -21.121  -6.591  -4.600  0.00  0.00     0.185 C 
BRANCH   5   6
HETATM    6  C           1     -22.286  -6.537  -3.621  0.00  0.00     0.036 C 
BRANCH   6   7
HETATM    7  C           1     -21.796  -6.020  -2.276  0.00  0.00     0.004 C 
BRANCH   7   8
HETATM    8  C           1     -22.273  -6.951  -1.169  0.00  0.00     0.027 C 
BRANCH   8   9
HETATM    9  C           1     -21.270  -8.083  -0.989  0.00  0.00     0.229 C 
BRANCH   9  10
HETATM   10  N           1     -21.895  -9.378  -1.418  0.00  0.00    -0.079 N 
HETATM   11  H           1     -21.260  -9.865  -2.089  0.00  0.00     0.274 HD
HETATM   12  H           1     -22.812  -9.185  -1.882  0.00  0.00     0.274 HD
HETATM   13  H           1     -22.050  -9.985  -0.581  0.00  0.00     0.274 HD
ENDBRANCH   9  10
ENDBRANCH   8   9
ENDBRANCH   7   8
ENDBRANCH   6   7
ENDBRANCH   5   6
BRANCH   5  14
HETATM   14  C           1     -20.822  -8.028  -4.951  0.00  0.00     0.196 C 
HETATM   15  O           1     -19.874  -8.300  -5.719  0.00  0.00    -0.646 OA
HETATM   16  O           1     -21.521  -8.946  -4.472  0.00  0.00    -0.646 OA
ENDBRANCH   5  14
ENDBRANCH   3   5
BRANCH   2  17
HETATM   17  C           1     -21.026  -4.087  -7.499  0.00  0.00     0.274 C 
BRANCH  17  18
HETATM   18  N           1     -20.124  -4.514  -8.618  0.00  0.00    -0.067 N 
HETATM   19  H           1     -19.213  -4.843  -8.226  0.00  0.00     0.275 HD
HETATM   20  H           1     -20.575  -5.293  -9.151  0.00  0.00     0.275 HD
HETATM   21  H           1     -19.955  -3.705  -9.258  0.00  0.00     0.275 HD
ENDBRANCH  17  18
BRANCH  17  22
HETATM   22  C           1     -22.473  -4.381  -7.872  0.00  0.00     0.042 C 
BRANCH  22  23
HETATM   23  C           1     -22.858  -3.563  -9.098  0.00  0.00     0.003 C 
BRANCH  23  24
HETATM   24 Se           1     -23.452  -4.758 -10.518  0.00  0.00     0.000 Se
HETATM   25  C           1     -21.950  -4.370 -11.697  0.00  0.00     0.000 C 
ENDBRANCH  23  24
ENDBRANCH  22  23
ENDBRANCH  17  22
ENDBRANCH   2  17
TORSDOF 12
ENDMDL
MODEL 7
REMARK VINA RESULT:      -4.9     11.542     12.710
REMARK  12 active torsions:
REMARK  status: ('A' for Active; 'I' for Inactive)
REMARK    1  A    between atoms: C_1  and  C_2 
REMARK    2  A    between atoms: C_1  and  C_20 
REMARK    3  A    between atoms: C_1  and  N_17 
REMARK    4  A    between atoms: C_2  and  C_3 
REMARK    5  A    between atoms: C_3  and  C_4 
REMARK    6  A    between atoms: C_4  and  C_5 
REMARK    7  A    between atoms: C_5  and  N_21 
REMARK    8  A    between atoms: N_10  and  C_15 
REMARK    9  A    between atoms: Se_12  and  C_13 
REMARK   10  A    between atoms: C_13  and  C_14 
REMARK   11  A    between atoms: C_14  and  C_15 
REMARK   12  A    between atoms: C_15  and  C_16 
REMARK       I    between atoms: C_16  and  N_17 
ROOT
HETATM    1  O           1     -34.692  -3.200 -13.926  0.00  0.00    -0.271 OA
HETATM    2  C           1     -34.528  -2.802 -12.797  0.00  0.00     0.249 C 
HETATM    3  N           1     -35.044  -1.593 -12.416  0.00  0.00    -0.345 N 
HETATM    4  H           1     -34.907  -1.260 -11.470  0.00  0.00     0.163 HD
ENDROOT
BRANCH   3   5
HETATM    5  C           1     -35.788  -0.790 -13.367  0.00  0.00     0.185 C 
BRANCH   5   6
HETATM    6  C           1     -37.013  -0.197 -12.683  0.00  0.00     0.036 C 
BRANCH   6   7
HETATM    7  C           1     -38.075   0.118 -13.728  0.00  0.00     0.004 C 
BRANCH   7   8
HETATM    8  C           1     -37.945  -0.852 -14.894  0.00  0.00     0.027 C 
BRANCH   8   9
HETATM    9  C           1     -37.816  -0.071 -16.195  0.00  0.00     0.229 C 
BRANCH   9  10
HETATM   10  N           1     -36.651  -0.595 -16.980  0.00  0.00    -0.079 N 
HETATM   11  H           1     -36.026   0.198 -17.247  0.00  0.00     0.274 HD
HETATM   12  H           1     -36.998  -1.071 -17.843  0.00  0.00     0.274 HD
HETATM   13  H           1     -36.117  -1.279 -16.397  0.00  0.00     0.274 HD
ENDBRANCH   9  10
ENDBRANCH   8   9
ENDBRANCH   7   8
ENDBRANCH   6   7
ENDBRANCH   5   6
BRANCH   5  14
HETATM   14  C           1     -34.908   0.325 -13.879  0.00  0.00     0.196 C 
HETATM   15  O           1     -34.617   1.285 -13.133  0.00  0.00    -0.646 OA
HETATM   16  O           1     -34.469   0.288 -15.048  0.00  0.00    -0.646 OA
ENDBRANCH   5  14
ENDBRANCH   3   5
BRANCH   2  17
HETATM   17  C           1     -33.755  -3.638 -11.807  0.00  0.00     0.274 C 
BRANCH  17  18
HETATM   18  N           1     -33.191  -2.751 -10.738  0.00  0.00    -0.067 N 
HETATM   19  H           1     -33.706  -2.912  -9.843  0.00  0.00     0.275 HD
HETATM   20  H           1     -32.178  -2.971 -10.601  0.00  0.00     0.275 HD
HETATM   21  H           1     -33.295  -1.751 -11.024  0.00  0.00     0.275 HD
ENDBRANCH  17  18
BRANCH  17  22
HETATM   22  C           1     -34.683  -4.667 -11.175  0.00  0.00     0.042 C 
BRANCH  22  23
HETATM   23  C           1     -33.914  -5.958 -10.924  0.00  0.00     0.003 C 
BRANCH  23  24
HETATM   24 Se           1     -34.976  -7.139  -9.794  0.00  0.00     0.000 Se
HETATM   25  C           1     -33.793  -8.674 -10.006  0.00  0.00     0.000 C 
ENDBRANCH  23  24
ENDBRANCH  22  23
ENDBRANCH  17  22
ENDBRANCH   2  17
TORSDOF 12
ENDMDL
MODEL 8
REMARK VINA RESULT:      -4.9     12.546     14.904
REMARK  12 active torsions:
REMARK  status: ('A' for Active; 'I' for Inactive)
REMARK    1  A    between atoms: C_1  and  C_2 
REMARK    2  A    between atoms: C_1  and  C_20 
REMARK    3  A    between atoms: C_1  and  N_17 
REMARK    4  A    between atoms: C_2  and  C_3 
REMARK    5  A    between atoms: C_3  and  C_4 
REMARK    6  A    between atoms: C_4  and  C_5 
REMARK    7  A    between atoms: C_5  and  N_21 
REMARK    8  A    between atoms: N_10  and  C_15 
REMARK    9  A    between atoms: Se_12  and  C_13 
REMARK   10  A    between atoms: C_13  and  C_14 
REMARK   11  A    between atoms: C_14  and  C_15 
REMARK   12  A    between atoms: C_15  and  C_16 
REMARK       I    between atoms: C_16  and  N_17 
ROOT
HETATM    1  O           1     -21.982  -7.570  -4.872  0.00  0.00    -0.271 OA
HETATM    2  C           1     -21.484  -6.625  -4.309  0.00  0.00     0.249 C 
HETATM    3  N           1     -21.101  -5.524  -5.027  0.00  0.00    -0.345 N 
HETATM    4  H           1     -20.683  -4.732  -4.555  0.00  0.00     0.163 HD
ENDROOT
BRANCH   3   5
HETATM    5  C           1     -21.293  -5.493  -6.463  0.00  0.00     0.185 C 
BRANCH   5   6
HETATM    6  C           1     -21.861  -4.139  -6.870  0.00  0.00     0.036 C 
BRANCH   6   7
HETATM    7  C           1     -23.072  -4.345  -7.769  0.00  0.00     0.004 C 
BRANCH   7   8
HETATM    8  C           1     -22.752  -3.853  -9.174  0.00  0.00     0.027 C 
BRANCH   8   9
HETATM    9  C           1     -24.038  -3.420  -9.867  0.00  0.00     0.229 C 
BRANCH   9  10
HETATM   10  N           1     -25.130  -4.399  -9.552  0.00  0.00    -0.079 N 
HETATM   11  H           1     -25.199  -5.103 -10.321  0.00  0.00     0.274 HD
HETATM   12  H           1     -26.038  -3.890  -9.462  0.00  0.00     0.274 HD
HETATM   13  H           1     -24.914  -4.886  -8.653  0.00  0.00     0.274 HD
ENDBRANCH   9  10
ENDBRANCH   8   9
ENDBRANCH   7   8
ENDBRANCH   6   7
ENDBRANCH   5   6
BRANCH   5  14
HETATM   14  C           1     -19.969  -5.712  -7.153  0.00  0.00     0.196 C 
HETATM   15  O           1     -19.400  -6.822  -7.075  0.00  0.00    -0.646 OA
HETATM   16  O           1     -19.443  -4.785  -7.806  0.00  0.00    -0.646 OA
ENDBRANCH   5  14
ENDBRANCH   3   5
BRANCH   2  17
HETATM   17  C           1     -21.283  -6.657  -2.813  0.00  0.00     0.274 C 
BRANCH  17  18
HETATM   18  N           1     -22.264  -5.731  -2.158  0.00  0.00    -0.067 N 
HETATM   19  H           1     -22.590  -5.021  -2.852  0.00  0.00     0.275 HD
HETATM   20  H           1     -23.084  -6.280  -1.812  0.00  0.00     0.275 HD
HETATM   21  H           1     -21.804  -5.247  -1.355  0.00  0.00     0.275 HD
ENDBRANCH  17  18
BRANCH  17  22
HETATM   22  C           1     -21.503  -8.075  -2.301  0.00  0.00     0.042 C 
BRANCH  22  23
HETATM   23  C           1     -20.182  -8.642  -1.796  0.00  0.00     0.003 C 
BRANCH  23  24
HETATM   24 Se           1     -19.545 -10.007  -3.034  0.00  0.00     0.000 Se
HETATM   25  C           1     -17.680  -9.450  -2.945  0.00  0.00     0.000 C 
ENDBRANCH  23  24
ENDBRANCH  22  23
ENDBRANCH  17  22
ENDBRANCH   2  17
TORSDOF 12
ENDMDL
MODEL 9
REMARK VINA RESULT:      -4.9      2.440      3.678
REMARK  12 active torsions:
REMARK  status: ('A' for Active; 'I' for Inactive)
REMARK    1  A    between atoms: C_1  and  C_2 
REMARK    2  A    between atoms: C_1  and  C_20 
REMARK    3  A    between atoms: C_1  and  N_17 
REMARK    4  A    between atoms: C_2  and  C_3 
REMARK    5  A    between atoms: C_3  and  C_4 
REMARK    6  A    between atoms: C_4  and  C_5 
REMARK    7  A    between atoms: C_5  and  N_21 
REMARK    8  A    between atoms: N_10  and  C_15 
REMARK    9  A    between atoms: Se_12  and  C_13 
REMARK   10  A    between atoms: C_13  and  C_14 
REMARK   11  A    between atoms: C_14  and  C_15 
REMARK   12  A    between atoms: C_15  and  C_16 
REMARK       I    between atoms: C_16  and  N_17 
ROOT
HETATM    1  O           1     -27.378  -6.321 -16.005  0.00  0.00    -0.271 OA
HETATM    2  C           1     -27.012  -6.475 -17.145  0.00  0.00     0.249 C 
HETATM    3  N           1     -27.933  -6.662 -18.141  0.00  0.00    -0.345 N 
HETATM    4  H           1     -27.626  -6.791 -19.096  0.00  0.00     0.163 HD
ENDROOT
BRANCH   3   5
HETATM    5  C           1     -29.348  -6.677 -17.825  0.00  0.00     0.185 C 
BRANCH   5   6
HETATM    6  C           1     -29.961  -5.329 -18.183  0.00  0.00     0.036 C 
BRANCH   6   7
HETATM    7  C           1     -30.527  -4.679 -16.928  0.00  0.00     0.004 C 
BRANCH   7   8
HETATM    8  C           1     -31.773  -3.880 -17.287  0.00  0.00     0.027 C 
BRANCH   8   9
HETATM    9  C           1     -32.984  -4.485 -16.590  0.00  0.00     0.229 C 
BRANCH   9  10
HETATM   10  N           1     -33.078  -5.944 -16.926  0.00  0.00    -0.079 N 
HETATM   11  H           1     -33.214  -6.495 -16.049  0.00  0.00     0.274 HD
HETATM   12  H           1     -32.196  -6.250 -17.397  0.00  0.00     0.274 HD
HETATM   13  H           1     -33.888  -6.103 -17.567  0.00  0.00     0.274 HD
ENDBRANCH   9  10
ENDBRANCH   8   9
ENDBRANCH   7   8
ENDBRANCH   6   7
ENDBRANCH   5   6
BRANCH   5  14
HETATM   14  C           1     -30.029  -7.766 -18.617  0.00  0.00     0.196 C 
HETATM   15  O           1     -31.270  -7.744 -18.771  0.00  0.00    -0.646 OA
HETATM   16  O           1     -29.353  -8.688 -19.121  0.00  0.00    -0.646 OA
ENDBRANCH   5  14
ENDBRANCH   3   5
BRANCH   2  17
HETATM   17  C           1     -25.539  -6.460 -17.474  0.00  0.00     0.274 C 
BRANCH  17  18
HETATM   18  N           1     -24.839  -7.517 -16.673  0.00  0.00    -0.067 N 
HETATM   19  H           1     -25.096  -7.419 -15.665  0.00  0.00     0.275 HD
HETATM   20  H           1     -25.128  -8.462 -17.015  0.00  0.00     0.275 HD
HETATM   21  H           1     -23.805  -7.408 -16.781  0.00  0.00     0.275 HD
ENDBRANCH  17  18
BRANCH  17  22
HETATM   22  C           1     -25.346  -6.737 -18.959  0.00  0.00     0.042 C 
BRANCH  22  23
HETATM   23  C           1     -23.929  -7.242 -19.202  0.00  0.00     0.003 C 
BRANCH  23  24
HETATM   24 Se           1     -23.838  -8.115 -20.942  0.00  0.00     0.000 Se
HETATM   25  C           1     -25.765  -8.100 -21.232  0.00  0.00     0.000 C 
ENDBRANCH  23  24
ENDBRANCH  22  23
ENDBRANCH  17  22
ENDBRANCH   2  17
TORSDOF 12
ENDMDL
