MODEL 1
REMARK VINA RESULT:      -7.4      0.000      0.000
REMARK  7 active torsions:
REMARK  status: ('A' for Active; 'I' for Inactive)
REMARK    1  A    between atoms: C_2  and  C_13 
REMARK    2  A    between atoms: C_2  and  C_22 
REMARK    3  A    between atoms: C_4  and  C_22 
REMARK    4  A    between atoms: C_7  and  C_11 
REMARK    5  A    between atoms: C_7  and  N_18 
REMARK    6  A    between atoms: N_9  and  C_22 
REMARK       I    between atoms: N_9  and  C_11 
REMARK    7  A    between atoms: O_10  and  C_16 
ROOT
HETATM    1  C           1     -35.781  -1.069 -12.046  0.00  0.00     0.189 C 
ENDROOT
BRANCH   1   2
HETATM    2  C           1     -34.410  -1.355 -11.446  0.00  0.00     0.074 C 
BRANCH   2   3
HETATM    3  C           1     -34.220  -2.834 -11.314  0.00  0.00    -0.056 A 
HETATM    4  C           1     -35.264  -3.632 -10.847  0.00  0.00     0.010 A 
HETATM    5  C           1     -35.087  -5.010 -10.723  0.00  0.00     0.037 A 
HETATM    6  C           1     -33.866  -5.590 -11.067  0.00  0.00     0.065 A 
HETATM    7  C           1     -32.821  -4.791 -11.532  0.00  0.00     0.037 A 
HETATM    8  C           1     -32.998  -3.413 -11.656  0.00  0.00     0.010 A 
BRANCH   6   9
HETATM    9  O           1     -33.694  -6.928 -10.946  0.00  0.00    -0.361 OA
HETATM   10  H           1     -34.364  -7.263 -10.328  0.00  0.00     0.217 HD
ENDBRANCH   6   9
ENDBRANCH   2   3
ENDBRANCH   1   2
BRANCH   1  11
HETATM   11  C           1     -36.740  -0.676 -10.950  0.00  0.00     0.197 C 
HETATM   12  O           1     -37.926  -1.068 -10.986  0.00  0.00    -0.646 OA
HETATM   13  O           1     -36.348   0.043 -10.005  0.00  0.00    -0.646 OA
ENDBRANCH   1  11
BRANCH   1  14
HETATM   14  N           1     -35.671   0.014 -13.004  0.00  0.00    -0.345 N 
HETATM   15  C           1     -35.470  -0.263 -14.330  0.00  0.00     0.243 C 
HETATM   16  O           1     -35.382  -1.409 -14.701  0.00  0.00    -0.272 OA
HETATM   17  H           1     -35.744   0.974 -12.693  0.00  0.00     0.163 HD
BRANCH  15  18
HETATM   18  C           1     -35.356   0.864 -15.327  0.00  0.00     0.332 C 
BRANCH  18  19
HETATM   19  N           1     -36.723   1.240 -15.816  0.00  0.00    -0.071 N 
HETATM   20  H           1     -37.030   0.562 -16.549  0.00  0.00     0.274 HD
HETATM   21  H           1     -37.396   1.220 -15.017  0.00  0.00     0.274 HD
HETATM   22  H           1     -36.694   2.203 -16.223  0.00  0.00     0.274 HD
ENDBRANCH  18  19
ENDBRANCH  15  18
ENDBRANCH   1  14
TORSDOF 7
ENDMDL
MODEL 2
REMARK VINA RESULT:      -7.0      9.348     11.279
REMARK  7 active torsions:
REMARK  status: ('A' for Active; 'I' for Inactive)
REMARK    1  A    between atoms: C_2  and  C_13 
REMARK    2  A    between atoms: C_2  and  C_22 
REMARK    3  A    between atoms: C_4  and  C_22 
REMARK    4  A    between atoms: C_7  and  C_11 
REMARK    5  A    between atoms: C_7  and  N_18 
REMARK    6  A    between atoms: N_9  and  C_22 
REMARK       I    between atoms: N_9  and  C_11 
REMARK    7  A    between atoms: O_10  and  C_16 
ROOT
HETATM    1  C           1     -26.683  -6.262 -17.548  0.00  0.00     0.189 C 
ENDROOT
BRANCH   1   2
HETATM    2  C           1     -28.050  -6.932 -17.573  0.00  0.00     0.074 C 
BRANCH   2   3
HETATM    3  C           1     -29.121  -5.887 -17.512  0.00  0.00    -0.056 A 
HETATM    4  C           1     -28.802  -4.549 -17.743  0.00  0.00     0.010 A 
HETATM    5  C           1     -29.799  -3.575 -17.685  0.00  0.00     0.037 A 
HETATM    6  C           1     -31.114  -3.939 -17.395  0.00  0.00     0.065 A 
HETATM    7  C           1     -31.432  -5.278 -17.162  0.00  0.00     0.037 A 
HETATM    8  C           1     -30.435  -6.252 -17.221  0.00  0.00     0.010 A 
BRANCH   6   9
HETATM    9  O           1     -32.082  -2.993 -17.338  0.00  0.00    -0.361 OA
HETATM   10  H           1     -32.896  -3.374 -17.708  0.00  0.00     0.217 HD
ENDBRANCH   6   9
ENDBRANCH   2   3
ENDBRANCH   1   2
BRANCH   1  11
HETATM   11  C           1     -26.075  -6.407 -16.175  0.00  0.00     0.197 C 
HETATM   12  O           1     -26.519  -7.266 -15.383  0.00  0.00    -0.646 OA
HETATM   13  O           1     -25.128  -5.668 -15.830  0.00  0.00    -0.646 OA
ENDBRANCH   1  11
BRANCH   1  14
HETATM   14  N           1     -25.819  -6.892 -18.528  0.00  0.00    -0.345 N 
HETATM   15  C           1     -26.020  -6.667 -19.864  0.00  0.00     0.243 C 
HETATM   16  O           1     -26.917  -5.943 -20.225  0.00  0.00    -0.272 OA
HETATM   17  H           1     -25.067  -7.499 -18.225  0.00  0.00     0.163 HD
BRANCH  15  18
HETATM   18  C           1     -25.122  -7.322 -20.883  0.00  0.00     0.332 C 
BRANCH  18  19
HETATM   19  N           1     -23.932  -7.920 -20.193  0.00  0.00    -0.071 N 
HETATM   20  H           1     -24.243  -8.703 -19.576  0.00  0.00     0.274 HD
HETATM   21  H           1     -23.262  -8.283 -20.908  0.00  0.00     0.274 HD
HETATM   22  H           1     -23.461  -7.188 -19.614  0.00  0.00     0.274 HD
ENDBRANCH  18  19
ENDBRANCH  15  18
ENDBRANCH   1  14
TORSDOF 7
ENDMDL
MODEL 3
REMARK VINA RESULT:      -6.8     13.078     15.698
REMARK  7 active torsions:
REMARK  status: ('A' for Active; 'I' for Inactive)
REMARK    1  A    between atoms: C_2  and  C_13 
REMARK    2  A    between atoms: C_2  and  C_22 
REMARK    3  A    between atoms: C_4  and  C_22 
REMARK    4  A    between atoms: C_7  and  C_11 
REMARK    5  A    between atoms: C_7  and  N_18 
REMARK    6  A    between atoms: N_9  and  C_22 
REMARK       I    between atoms: N_9  and  C_11 
REMARK    7  A    between atoms: O_10  and  C_16 
ROOT
HETATM    1  C           1     -21.040  -5.144  -6.733  0.00  0.00     0.189 C 
ENDROOT
BRANCH   1   2
HETATM    2  C           1     -21.516  -3.831  -7.342  0.00  0.00     0.074 C 
BRANCH   2   3
HETATM    3  C           1     -22.086  -4.088  -8.702  0.00  0.00    -0.056 A 
HETATM    4  C           1     -23.443  -4.378  -8.845  0.00  0.00     0.010 A 
HETATM    5  C           1     -23.975  -4.618 -10.112  0.00  0.00     0.037 A 
HETATM    6  C           1     -23.150  -4.568 -11.235  0.00  0.00     0.065 A 
HETATM    7  C           1     -21.792  -4.279 -11.092  0.00  0.00     0.037 A 
HETATM    8  C           1     -21.261  -4.039  -9.825  0.00  0.00     0.010 A 
BRANCH   6   9
HETATM    9  O           1     -23.667  -4.801 -12.466  0.00  0.00    -0.361 OA
HETATM   10  H           1     -23.039  -4.460 -13.125  0.00  0.00     0.217 HD
ENDBRANCH   6   9
ENDBRANCH   2   3
ENDBRANCH   1   2
BRANCH   1  11
HETATM   11  C           1     -19.662  -5.471  -7.255  0.00  0.00     0.197 C 
HETATM   12  O           1     -19.341  -6.660  -7.470  0.00  0.00    -0.646 OA
HETATM   13  O           1     -18.842  -4.553  -7.472  0.00  0.00    -0.646 OA
ENDBRANCH   1  11
BRANCH   1  14
HETATM   14  N           1     -20.992  -5.017  -5.289  0.00  0.00    -0.345 N 
HETATM   15  C           1     -21.294  -6.092  -4.497  0.00  0.00     0.243 C 
HETATM   16  O           1     -21.601  -7.146  -5.002  0.00  0.00    -0.272 OA
HETATM   17  H           1     -20.735  -4.133  -4.867  0.00  0.00     0.163 HD
BRANCH  15  18
HETATM   18  C           1     -21.245  -5.961  -2.996  0.00  0.00     0.332 C 
BRANCH  18  19
HETATM   19  N           1     -22.641  -5.965  -2.446  0.00  0.00    -0.071 N 
HETATM   20  H           1     -22.860  -5.026  -2.044  0.00  0.00     0.274 HD
HETATM   21  H           1     -23.316  -6.182  -3.213  0.00  0.00     0.274 HD
HETATM   22  H           1     -22.718  -6.690  -1.698  0.00  0.00     0.274 HD
ENDBRANCH  18  19
ENDBRANCH  15  18
ENDBRANCH   1  14
TORSDOF 7
ENDMDL
MODEL 4
REMARK VINA RESULT:      -6.3     14.053     16.465
REMARK  7 active torsions:
REMARK  status: ('A' for Active; 'I' for Inactive)
REMARK    1  A    between atoms: C_2  and  C_13 
REMARK    2  A    between atoms: C_2  and  C_22 
REMARK    3  A    between atoms: C_4  and  C_22 
REMARK    4  A    between atoms: C_7  and  C_11 
REMARK    5  A    between atoms: C_7  and  N_18 
REMARK    6  A    between atoms: N_9  and  C_22 
REMARK       I    between atoms: N_9  and  C_11 
REMARK    7  A    between atoms: O_10  and  C_16 
ROOT
HETATM    1  C           1     -21.064  -5.927  -5.534  0.00  0.00     0.189 C 
ENDROOT
BRANCH   1   2
HETATM    2  C           1     -20.250  -4.787  -6.131  0.00  0.00     0.074 C 
BRANCH   2   3
HETATM    3  C           1     -20.804  -4.427  -7.475  0.00  0.00    -0.056 A 
HETATM    4  C           1     -22.149  -4.083  -7.605  0.00  0.00     0.010 A 
HETATM    5  C           1     -22.665  -3.749  -8.857  0.00  0.00     0.037 A 
HETATM    6  C           1     -21.836  -3.758  -9.979  0.00  0.00     0.065 A 
HETATM    7  C           1     -20.490  -4.103  -9.848  0.00  0.00     0.037 A 
HETATM    8  C           1     -19.974  -4.437  -8.597  0.00  0.00     0.010 A 
BRANCH   6   9
HETATM    9  O           1     -22.338  -3.434 -11.195  0.00  0.00    -0.361 OA
HETATM   10  H           1     -21.948  -2.585 -11.464  0.00  0.00     0.217 HD
ENDBRANCH   6   9
ENDBRANCH   2   3
ENDBRANCH   1   2
BRANCH   1  11
HETATM   11  C           1     -20.525  -7.245  -6.030  0.00  0.00     0.197 C 
HETATM   12  O           1     -19.350  -7.322  -6.451  0.00  0.00    -0.646 OA
HETATM   13  O           1     -21.254  -8.261  -6.022  0.00  0.00    -0.646 OA
ENDBRANCH   1  11
BRANCH   1  14
HETATM   14  N           1     -20.971  -5.880  -4.087  0.00  0.00    -0.345 N 
HETATM   15  C           1     -22.078  -6.131  -3.321  0.00  0.00     0.243 C 
HETATM   16  O           1     -23.132  -6.390  -3.851  0.00  0.00    -0.272 OA
HETATM   17  H           1     -20.087  -5.662  -3.644  0.00  0.00     0.163 HD
BRANCH  15  18
HETATM   18  C           1     -21.981  -6.083  -1.817  0.00  0.00     0.332 C 
BRANCH  18  19
HETATM   19  N           1     -21.981  -7.479  -1.269  0.00  0.00    -0.071 N 
HETATM   20  H           1     -21.431  -7.506  -0.382  0.00  0.00     0.274 HD
HETATM   21  H           1     -22.964  -7.777  -1.079  0.00  0.00     0.274 HD
HETATM   22  H           1     -21.549  -8.126  -1.966  0.00  0.00     0.274 HD
ENDBRANCH  18  19
ENDBRANCH  15  18
ENDBRANCH   1  14
TORSDOF 7
ENDMDL
MODEL 5
REMARK VINA RESULT:      -6.2      9.448     11.267
REMARK  7 active torsions:
REMARK  status: ('A' for Active; 'I' for Inactive)
REMARK    1  A    between atoms: C_2  and  C_13 
REMARK    2  A    between atoms: C_2  and  C_22 
REMARK    3  A    between atoms: C_4  and  C_22 
REMARK    4  A    between atoms: C_7  and  C_11 
REMARK    5  A    between atoms: C_7  and  N_18 
REMARK    6  A    between atoms: N_9  and  C_22 
REMARK       I    between atoms: N_9  and  C_11 
REMARK    7  A    between atoms: O_10  and  C_16 
ROOT
HETATM    1  C           1     -27.909  -6.430 -16.772  0.00  0.00     0.189 C 
ENDROOT
BRANCH   1   2
HETATM    2  C           1     -26.956  -5.554 -17.575  0.00  0.00     0.074 C 
BRANCH   2   3
HETATM    3  C           1     -26.393  -6.343 -18.716  0.00  0.00    -0.056 A 
HETATM    4  C           1     -25.051  -6.722 -18.706  0.00  0.00     0.010 A 
HETATM    5  C           1     -24.525  -7.456 -19.769  0.00  0.00     0.037 A 
HETATM    6  C           1     -25.342  -7.810 -20.843  0.00  0.00     0.065 A 
HETATM    7  C           1     -26.684  -7.430 -20.853  0.00  0.00     0.037 A 
HETATM    8  C           1     -27.210  -6.696 -19.790  0.00  0.00     0.010 A 
BRANCH   6   9
HETATM    9  O           1     -24.831  -8.523 -21.876  0.00  0.00    -0.361 OA
HETATM   10  H           1     -23.863  -8.517 -21.796  0.00  0.00     0.217 HD
ENDBRANCH   6   9
ENDBRANCH   2   3
ENDBRANCH   1   2
BRANCH   1  11
HETATM   11  C           1     -27.186  -6.995 -15.574  0.00  0.00     0.197 C 
HETATM   12  O           1     -26.067  -6.544 -15.249  0.00  0.00    -0.646 OA
HETATM   13  O           1     -27.707  -7.916 -14.907  0.00  0.00    -0.646 OA
ENDBRANCH   1  11
BRANCH   1  14
HETATM   14  N           1     -29.036  -5.634 -16.325  0.00  0.00    -0.345 N 
HETATM   15  C           1     -30.072  -5.374 -17.181  0.00  0.00     0.243 C 
HETATM   16  O           1     -30.047  -5.808 -18.308  0.00  0.00    -0.272 OA
HETATM   17  H           1     -29.056  -5.270 -15.381  0.00  0.00     0.163 HD
BRANCH  15  18
HETATM   18  C           1     -31.244  -4.546 -16.717  0.00  0.00     0.332 C 
BRANCH  18  19
HETATM   19  N           1     -31.368  -3.324 -17.579  0.00  0.00    -0.071 N 
HETATM   20  H           1     -30.506  -3.218 -18.159  0.00  0.00     0.274 HD
HETATM   21  H           1     -32.199  -3.422 -18.204  0.00  0.00     0.274 HD
HETATM   22  H           1     -31.485  -2.481 -16.972  0.00  0.00     0.274 HD
ENDBRANCH  18  19
ENDBRANCH  15  18
ENDBRANCH   1  14
TORSDOF 7
ENDMDL
MODEL 6
REMARK VINA RESULT:      -5.9     15.426     17.167
REMARK  7 active torsions:
REMARK  status: ('A' for Active; 'I' for Inactive)
REMARK    1  A    between atoms: C_2  and  C_13 
REMARK    2  A    between atoms: C_2  and  C_22 
REMARK    3  A    between atoms: C_4  and  C_22 
REMARK    4  A    between atoms: C_7  and  C_11 
REMARK    5  A    between atoms: C_7  and  N_18 
REMARK    6  A    between atoms: N_9  and  C_22 
REMARK       I    between atoms: N_9  and  C_11 
REMARK    7  A    between atoms: O_10  and  C_16 
ROOT
HETATM    1  C           1     -21.415  -7.254  -4.061  0.00  0.00     0.189 C 
ENDROOT
BRANCH   1   2
HETATM    2  C           1     -22.399  -6.471  -4.921  0.00  0.00     0.074 C 
BRANCH   2   3
HETATM    3  C           1     -21.645  -5.635  -5.908  0.00  0.00    -0.056 A 
HETATM    4  C           1     -20.252  -5.593  -5.865  0.00  0.00     0.010 A 
HETATM    5  C           1     -19.549  -4.814  -6.784  0.00  0.00     0.037 A 
HETATM    6  C           1     -20.240  -4.077  -7.746  0.00  0.00     0.065 A 
HETATM    7  C           1     -21.634  -4.118  -7.788  0.00  0.00     0.037 A 
HETATM    8  C           1     -22.336  -4.897  -6.869  0.00  0.00     0.010 A 
BRANCH   6   9
HETATM    9  O           1     -19.557  -3.320  -8.639  0.00  0.00    -0.361 OA
HETATM   10  H           1     -19.160  -3.915  -9.296  0.00  0.00     0.217 HD
ENDBRANCH   6   9
ENDBRANCH   2   3
ENDBRANCH   1   2
BRANCH   1  11
HETATM   11  C           1     -21.590  -6.864  -2.614  0.00  0.00     0.197 C 
HETATM   12  O           1     -22.381  -5.947  -2.304  0.00  0.00    -0.646 OA
HETATM   13  O           1     -20.942  -7.458  -1.725  0.00  0.00    -0.646 OA
ENDBRANCH   1  11
BRANCH   1  14
HETATM   14  N           1     -21.667  -8.674  -4.213  0.00  0.00    -0.345 N 
HETATM   15  C           1     -20.824  -9.441  -4.972  0.00  0.00     0.243 C 
HETATM   16  O           1     -19.872  -8.934  -5.516  0.00  0.00    -0.272 OA
HETATM   17  H           1     -22.465  -9.098  -3.758  0.00  0.00     0.163 HD
BRANCH  15  18
HETATM   18  C           1     -21.085 -10.918  -5.131  0.00  0.00     0.332 C 
BRANCH  18  19
HETATM   19  N           1     -21.170 -11.259  -6.589  0.00  0.00    -0.071 N 
HETATM   20  H           1     -20.948 -10.412  -7.158  0.00  0.00     0.274 HD
HETATM   21  H           1     -20.485 -12.017  -6.809  0.00  0.00     0.274 HD
HETATM   22  H           1     -22.136 -11.586  -6.815  0.00  0.00     0.274 HD
ENDBRANCH  18  19
ENDBRANCH  15  18
ENDBRANCH   1  14
TORSDOF 7
ENDMDL
MODEL 7
REMARK VINA RESULT:      -5.8     16.281     17.930
REMARK  7 active torsions:
REMARK  status: ('A' for Active; 'I' for Inactive)
REMARK    1  A    between atoms: C_2  and  C_13 
REMARK    2  A    between atoms: C_2  and  C_22 
REMARK    3  A    between atoms: C_4  and  C_22 
REMARK    4  A    between atoms: C_7  and  C_11 
REMARK    5  A    between atoms: C_7  and  N_18 
REMARK    6  A    between atoms: N_9  and  C_22 
REMARK       I    between atoms: N_9  and  C_11 
REMARK    7  A    between atoms: O_10  and  C_16 
ROOT
HETATM    1  C           1     -21.348  -8.376  -4.884  0.00  0.00     0.189 C 
ENDROOT
BRANCH   1   2
HETATM    2  C           1     -20.440  -8.128  -3.687  0.00  0.00     0.074 C 
BRANCH   2   3
HETATM    3  C           1     -21.262  -8.075  -2.437  0.00  0.00    -0.056 A 
HETATM    4  C           1     -21.601  -9.254  -1.776  0.00  0.00     0.010 A 
HETATM    5  C           1     -22.368  -9.205  -0.612  0.00  0.00     0.037 A 
HETATM    6  C           1     -22.796  -7.977  -0.110  0.00  0.00     0.065 A 
HETATM    7  C           1     -22.458  -6.796  -0.772  0.00  0.00     0.037 A 
HETATM    8  C           1     -21.691  -6.845  -1.936  0.00  0.00     0.010 A 
BRANCH   6   9
HETATM    9  O           1     -23.541  -7.929   1.021  0.00  0.00    -0.361 OA
HETATM   10  H           1     -24.346  -8.454   0.873  0.00  0.00     0.217 HD
ENDBRANCH   6   9
ENDBRANCH   2   3
ENDBRANCH   1   2
BRANCH   1  11
HETATM   11  C           1     -21.513  -7.097  -5.666  0.00  0.00     0.197 C 
HETATM   12  O           1     -22.310  -6.219  -5.269  0.00  0.00    -0.646 OA
HETATM   13  O           1     -20.854  -6.914  -6.712  0.00  0.00    -0.646 OA
ENDBRANCH   1  11
BRANCH   1  14
HETATM   14  N           1     -20.757  -9.390  -5.736  0.00  0.00    -0.345 N 
HETATM   15  C           1     -21.105 -10.705  -5.578  0.00  0.00     0.243 C 
HETATM   16  O           1     -21.905 -11.019  -4.729  0.00  0.00    -0.272 OA
HETATM   17  H           1     -20.086  -9.126  -6.447  0.00  0.00     0.163 HD
BRANCH  15  18
HETATM   18  C           1     -20.490 -11.760  -6.464  0.00  0.00     0.332 C 
BRANCH  18  19
HETATM   19  N           1     -19.130 -11.311  -6.909  0.00  0.00    -0.071 N 
HETATM   20  H           1     -18.658 -12.087  -7.425  0.00  0.00     0.274 HD
HETATM   21  H           1     -19.226 -10.481  -7.537  0.00  0.00     0.274 HD
HETATM   22  H           1     -18.559 -11.051  -6.073  0.00  0.00     0.274 HD
ENDBRANCH  18  19
ENDBRANCH  15  18
ENDBRANCH   1  14
TORSDOF 7
ENDMDL
MODEL 8
REMARK VINA RESULT:      -5.8     10.630     12.454
REMARK  7 active torsions:
REMARK  status: ('A' for Active; 'I' for Inactive)
REMARK    1  A    between atoms: C_2  and  C_13 
REMARK    2  A    between atoms: C_2  and  C_22 
REMARK    3  A    between atoms: C_4  and  C_22 
REMARK    4  A    between atoms: C_7  and  C_11 
REMARK    5  A    between atoms: C_7  and  N_18 
REMARK    6  A    between atoms: N_9  and  C_22 
REMARK       I    between atoms: N_9  and  C_11 
REMARK    7  A    between atoms: O_10  and  C_16 
ROOT
HETATM    1  C           1     -27.699  -5.837 -17.434  0.00  0.00     0.189 C 
ENDROOT
BRANCH   1   2
HETATM    2  C           1     -28.128  -5.712 -18.890  0.00  0.00     0.074 C 
BRANCH   2   3
HETATM    3  C           1     -27.202  -6.511 -19.755  0.00  0.00    -0.056 A 
HETATM    4  C           1     -25.895  -6.073 -19.967  0.00  0.00     0.010 A 
HETATM    5  C           1     -25.034  -6.817 -20.773  0.00  0.00     0.037 A 
HETATM    6  C           1     -25.479  -7.998 -21.366  0.00  0.00     0.065 A 
HETATM    7  C           1     -26.787  -8.435 -21.155  0.00  0.00     0.037 A 
HETATM    8  C           1     -27.649  -7.691 -20.349  0.00  0.00     0.010 A 
BRANCH   6   9
HETATM    9  O           1     -24.641  -8.720 -22.149  0.00  0.00    -0.361 OA
HETATM   10  H           1     -25.089  -8.886 -22.995  0.00  0.00     0.217 HD
ENDBRANCH   6   9
ENDBRANCH   2   3
ENDBRANCH   1   2
BRANCH   1  11
HETATM   11  C           1     -28.873  -6.283 -16.599  0.00  0.00     0.197 C 
HETATM   12  O           1     -29.707  -7.086 -17.071  0.00  0.00    -0.646 OA
HETATM   13  O           1     -29.013  -5.849 -15.435  0.00  0.00    -0.646 OA
ENDBRANCH   1  11
BRANCH   1  14
HETATM   14  N           1     -26.631  -6.813 -17.328  0.00  0.00    -0.345 N 
HETATM   15  C           1     -25.594  -6.601 -16.459  0.00  0.00     0.243 C 
HETATM   16  O           1     -25.569  -5.600 -15.783  0.00  0.00    -0.272 OA
HETATM   17  H           1     -26.653  -7.650 -17.896  0.00  0.00     0.163 HD
BRANCH  15  18
HETATM   18  C           1     -24.483  -7.615 -16.349  0.00  0.00     0.332 C 
BRANCH  18  19
HETATM   19  N           1     -23.529  -7.441 -17.493  0.00  0.00    -0.071 N 
HETATM   20  H           1     -23.101  -6.490 -17.448  0.00  0.00     0.274 HD
HETATM   21  H           1     -22.778  -8.166 -17.432  0.00  0.00     0.274 HD
HETATM   22  H           1     -24.045  -7.548 -18.395  0.00  0.00     0.274 HD
ENDBRANCH  18  19
ENDBRANCH  15  18
ENDBRANCH   1  14
TORSDOF 7
ENDMDL
MODEL 9
REMARK VINA RESULT:      -5.7     13.924     16.016
REMARK  7 active torsions:
REMARK  status: ('A' for Active; 'I' for Inactive)
REMARK    1  A    between atoms: C_2  and  C_13 
REMARK    2  A    between atoms: C_2  and  C_22 
REMARK    3  A    between atoms: C_4  and  C_22 
REMARK    4  A    between atoms: C_7  and  C_11 
REMARK    5  A    between atoms: C_7  and  N_18 
REMARK    6  A    between atoms: N_9  and  C_22 
REMARK       I    between atoms: N_9  and  C_11 
REMARK    7  A    between atoms: O_10  and  C_16 
ROOT
HETATM    1  C           1     -21.221  -5.334  -6.304  0.00  0.00     0.189 C 
ENDROOT
BRANCH   1   2
HETATM    2  C           1     -21.159  -6.845  -6.122  0.00  0.00     0.074 C 
BRANCH   2   3
HETATM    3  C           1     -21.094  -7.171  -4.661  0.00  0.00    -0.056 A 
HETATM    4  C           1     -21.858  -6.442  -3.750  0.00  0.00     0.010 A 
HETATM    5  C           1     -21.797  -6.744  -2.390  0.00  0.00     0.037 A 
HETATM    6  C           1     -20.972  -7.775  -1.942  0.00  0.00     0.065 A 
HETATM    7  C           1     -20.206  -8.503  -2.853  0.00  0.00     0.037 A 
HETATM    8  C           1     -20.268  -8.201  -4.213  0.00  0.00     0.010 A 
BRANCH   6   9
HETATM    9  O           1     -20.912  -8.069  -0.620  0.00  0.00    -0.361 OA
HETATM   10  H           1     -20.366  -7.393  -0.186  0.00  0.00     0.217 HD
ENDBRANCH   6   9
ENDBRANCH   2   3
ENDBRANCH   1   2
BRANCH   1  11
HETATM   11  C           1     -19.840  -4.750  -6.139  0.00  0.00     0.197 C 
HETATM   12  O           1     -19.048  -4.734  -7.106  0.00  0.00    -0.646 OA
HETATM   13  O           1     -19.488  -4.282  -5.035  0.00  0.00    -0.646 OA
ENDBRANCH   1  11
BRANCH   1  14
HETATM   14  N           1     -21.720  -5.029  -7.631  0.00  0.00    -0.345 N 
HETATM   15  C           1     -23.001  -4.575  -7.793  0.00  0.00     0.243 C 
HETATM   16  O           1     -23.716  -4.430  -6.830  0.00  0.00    -0.272 OA
HETATM   17  H           1     -21.121  -5.151  -8.438  0.00  0.00     0.163 HD
BRANCH  15  18
HETATM   18  C           1     -23.520  -4.257  -9.173  0.00  0.00     0.332 C 
BRANCH  18  19
HETATM   19  N           1     -24.624  -3.246  -9.073  0.00  0.00    -0.071 N 
HETATM   20  H           1     -24.394  -2.418  -9.668  0.00  0.00     0.274 HD
HETATM   21  H           1     -25.518  -3.674  -9.403  0.00  0.00     0.274 HD
HETATM   22  H           1     -24.729  -2.942  -8.079  0.00  0.00     0.274 HD
ENDBRANCH  18  19
ENDBRANCH  15  18
ENDBRANCH   1  14
TORSDOF 7
ENDMDL
