MODEL 1
REMARK VINA RESULT:      -5.7      0.000      0.000
REMARK  5 active torsions:
REMARK  status: ('A' for Active; 'I' for Inactive)
REMARK    1  A    between atoms: C_1  and  C_3 
REMARK    2  A    between atoms: C_1  and  C_4 
REMARK    3  A    between atoms: C_1  and  N_13 
REMARK       I    between atoms: C_3  and  N_11 
REMARK    4  A    between atoms: C_7  and  C_12 
REMARK    5  A    between atoms: N_11  and  C_12 
ROOT
HETATM    1  C           1     -28.865  -5.768 -17.891  0.00  0.00     0.278 C 
ENDROOT
BRANCH   1   2
HETATM    2  C           1     -27.635  -5.704 -17.017  0.00  0.00     0.249 C 
HETATM    3  N           1     -26.972  -6.853 -16.684  0.00  0.00    -0.349 N 
HETATM    4  H           1     -27.305  -7.747 -17.022  0.00  0.00     0.163 HD
HETATM    5  O           1     -27.237  -4.637 -16.612  0.00  0.00    -0.271 OA
BRANCH   3   6
HETATM    6  C           1     -25.790  -6.791 -15.844  0.00  0.00     0.235 C 
BRANCH   6   7
HETATM    7  C           1     -24.611  -7.363 -16.591  0.00  0.00     0.191 C 
HETATM    8  O           1     -24.060  -8.408 -16.183  0.00  0.00    -0.647 OA
HETATM    9  O           1     -24.184  -6.793 -17.618  0.00  0.00    -0.647 OA
ENDBRANCH   6   7
ENDBRANCH   3   6
ENDBRANCH   1   2
BRANCH   1  10
HETATM   10  C           1     -30.086  -5.353 -17.080  0.00  0.00     0.017 C 
HETATM   11  C           1     -30.594  -4.007 -17.580  0.00  0.00     0.012 C 
HETATM   12  C           1     -31.181  -6.401 -17.242  0.00  0.00     0.012 C 
ENDBRANCH   1  10
BRANCH   1  13
HETATM   13  N           1     -29.049  -7.170 -18.390  0.00  0.00    -0.066 N 
HETATM   14  H           1     -30.024  -7.288 -18.747  0.00  0.00     0.275 HD
HETATM   15  H           1     -28.371  -7.358 -19.162  0.00  0.00     0.275 HD
HETATM   16  H           1     -28.881  -7.843 -17.608  0.00  0.00     0.275 HD
ENDBRANCH   1  13
TORSDOF 5
ENDMDL
MODEL 2
REMARK VINA RESULT:      -5.3      9.150     11.210
REMARK  5 active torsions:
REMARK  status: ('A' for Active; 'I' for Inactive)
REMARK    1  A    between atoms: C_1  and  C_3 
REMARK    2  A    between atoms: C_1  and  C_4 
REMARK    3  A    between atoms: C_1  and  N_13 
REMARK       I    between atoms: C_3  and  N_11 
REMARK    4  A    between atoms: C_7  and  C_12 
REMARK    5  A    between atoms: N_11  and  C_12 
ROOT
HETATM    1  C           1     -22.384  -4.525  -6.694  0.00  0.00     0.278 C 
ENDROOT
BRANCH   1   2
HETATM    2  C           1     -22.194  -4.397  -8.186  0.00  0.00     0.249 C 
HETATM    3  N           1     -22.879  -3.438  -8.883  0.00  0.00    -0.349 N 
HETATM    4  H           1     -23.513  -2.815  -8.398  0.00  0.00     0.163 HD
HETATM    5  O           1     -21.438  -5.140  -8.765  0.00  0.00    -0.271 OA
BRANCH   3   6
HETATM    6  C           1     -22.697  -3.315 -10.316  0.00  0.00     0.235 C 
BRANCH   6   7
HETATM    7  C           1     -23.922  -3.835 -11.027  0.00  0.00     0.191 C 
HETATM    8  O           1     -25.029  -3.283 -10.848  0.00  0.00    -0.647 OA
HETATM    9  O           1     -23.830  -4.816 -11.795  0.00  0.00    -0.647 OA
ENDBRANCH   6   7
ENDBRANCH   3   6
ENDBRANCH   1   2
BRANCH   1  10
HETATM   10  C           1     -21.402  -5.551  -6.143  0.00  0.00     0.017 C 
HETATM   11  C           1     -20.228  -4.833  -5.491  0.00  0.00     0.012 C 
HETATM   12  C           1     -22.104  -6.420  -5.107  0.00  0.00     0.012 C 
ENDBRANCH   1  10
BRANCH   1  13
HETATM   13  N           1     -23.786  -4.972  -6.406  0.00  0.00    -0.066 N 
HETATM   14  H           1     -24.418  -4.140  -6.376  0.00  0.00     0.275 HD
HETATM   15  H           1     -24.105  -5.625  -7.156  0.00  0.00     0.275 HD
HETATM   16  H           1     -23.812  -5.462  -5.483  0.00  0.00     0.275 HD
ENDBRANCH   1  13
TORSDOF 5
ENDMDL
MODEL 3
REMARK VINA RESULT:      -5.3      9.397     11.542
REMARK  5 active torsions:
REMARK  status: ('A' for Active; 'I' for Inactive)
REMARK    1  A    between atoms: C_1  and  C_3 
REMARK    2  A    between atoms: C_1  and  C_4 
REMARK    3  A    between atoms: C_1  and  N_13 
REMARK       I    between atoms: C_3  and  N_11 
REMARK    4  A    between atoms: C_7  and  C_12 
REMARK    5  A    between atoms: N_11  and  C_12 
ROOT
HETATM    1  C           1     -21.164  -5.918  -7.277  0.00  0.00     0.278 C 
ENDROOT
BRANCH   1   2
HETATM    2  C           1     -21.445  -4.891  -8.347  0.00  0.00     0.249 C 
HETATM    3  N           1     -22.717  -4.417  -8.524  0.00  0.00    -0.349 N 
HETATM    4  H           1     -23.469  -4.755  -7.938  0.00  0.00     0.163 HD
HETATM    5  O           1     -20.547  -4.487  -9.048  0.00  0.00    -0.271 OA
BRANCH   3   6
HETATM    6  C           1     -22.987  -3.431  -9.553  0.00  0.00     0.235 C 
BRANCH   6   7
HETATM    7  C           1     -24.032  -3.964 -10.501  0.00  0.00     0.191 C 
HETATM    8  O           1     -23.912  -5.111 -10.983  0.00  0.00    -0.647 OA
HETATM    9  O           1     -25.018  -3.259 -10.804  0.00  0.00    -0.647 OA
ENDBRANCH   6   7
ENDBRANCH   3   6
ENDBRANCH   1   2
BRANCH   1  10
HETATM   10  C           1     -21.433  -5.310  -5.907  0.00  0.00     0.017 C 
HETATM   11  C           1     -21.941  -6.391  -4.962  0.00  0.00     0.012 C 
HETATM   12  C           1     -20.144  -4.718  -5.352  0.00  0.00     0.012 C 
ENDBRANCH   1  10
BRANCH   1  13
HETATM   13  N           1     -19.729  -6.345  -7.360  0.00  0.00    -0.066 N 
HETATM   14  H           1     -19.679  -7.339  -7.679  0.00  0.00     0.275 HD
HETATM   15  H           1     -19.222  -5.735  -8.041  0.00  0.00     0.275 HD
HETATM   16  H           1     -19.285  -6.258  -6.418  0.00  0.00     0.275 HD
ENDBRANCH   1  13
TORSDOF 5
ENDMDL
MODEL 4
REMARK VINA RESULT:      -5.1      2.952      3.338
REMARK  5 active torsions:
REMARK  status: ('A' for Active; 'I' for Inactive)
REMARK    1  A    between atoms: C_1  and  C_3 
REMARK    2  A    between atoms: C_1  and  C_4 
REMARK    3  A    between atoms: C_1  and  N_13 
REMARK       I    between atoms: C_3  and  N_11 
REMARK    4  A    between atoms: C_7  and  C_12 
REMARK    5  A    between atoms: N_11  and  C_12 
ROOT
HETATM    1  C           1     -28.009  -5.570 -17.653  0.00  0.00     0.278 C 
ENDROOT
BRANCH   1   2
HETATM    2  C           1     -26.725  -6.188 -18.152  0.00  0.00     0.249 C 
HETATM    3  N           1     -26.631  -6.617 -19.448  0.00  0.00    -0.349 N 
HETATM    4  H           1     -27.422  -6.519 -20.073  0.00  0.00     0.163 HD
HETATM    5  O           1     -25.781  -6.305 -17.407  0.00  0.00    -0.271 OA
BRANCH   3   6
HETATM    6  C           1     -25.398  -7.211 -19.928  0.00  0.00     0.235 C 
BRANCH   6   7
HETATM    7  C           1     -25.677  -8.014 -21.175  0.00  0.00     0.191 C 
HETATM    8  O           1     -24.812  -8.092 -22.074  0.00  0.00    -0.647 OA
HETATM    9  O           1     -26.772  -8.600 -21.309  0.00  0.00    -0.647 OA
ENDBRANCH   6   7
ENDBRANCH   3   6
ENDBRANCH   1   2
BRANCH   1  10
HETATM   10  C           1     -28.729  -6.557 -16.745  0.00  0.00     0.017 C 
HETATM   11  C           1     -29.485  -5.796 -15.663  0.00  0.00     0.012 C 
HETATM   12  C           1     -29.713  -7.378 -17.569  0.00  0.00     0.012 C 
ENDBRANCH   1  10
BRANCH   1  13
HETATM   13  N           1     -28.887  -5.232 -18.820  0.00  0.00    -0.066 N 
HETATM   14  H           1     -28.339  -4.687 -19.523  0.00  0.00     0.275 HD
HETATM   15  H           1     -29.237  -6.113 -19.259  0.00  0.00     0.275 HD
HETATM   16  H           1     -29.698  -4.661 -18.491  0.00  0.00     0.275 HD
ENDBRANCH   1  13
TORSDOF 5
ENDMDL
MODEL 5
REMARK VINA RESULT:      -4.8      9.530     10.330
REMARK  5 active torsions:
REMARK  status: ('A' for Active; 'I' for Inactive)
REMARK    1  A    between atoms: C_1  and  C_3 
REMARK    2  A    between atoms: C_1  and  C_4 
REMARK    3  A    between atoms: C_1  and  N_13 
REMARK       I    between atoms: C_3  and  N_11 
REMARK    4  A    between atoms: C_7  and  C_12 
REMARK    5  A    between atoms: N_11  and  C_12 
ROOT
HETATM    1  C           1     -31.385 -15.117 -21.702  0.00  0.00     0.278 C 
ENDROOT
BRANCH   1   2
HETATM    2  C           1     -30.244 -14.553 -20.891  0.00  0.00     0.249 C 
HETATM    3  N           1     -30.296 -14.581 -19.524  0.00  0.00    -0.349 N 
HETATM    4  H           1     -31.100 -14.980 -19.056  0.00  0.00     0.163 HD
HETATM    5  O           1     -29.283 -14.077 -21.449  0.00  0.00    -0.271 OA
BRANCH   3   6
HETATM    6  C           1     -29.199 -14.039 -18.744  0.00  0.00     0.235 C 
BRANCH   6   7
HETATM    7  C           1     -29.049 -14.829 -17.468  0.00  0.00     0.191 C 
HETATM    8  O           1     -28.117 -15.654 -17.350  0.00  0.00    -0.647 OA
HETATM    9  O           1     -29.856 -14.660 -16.529  0.00  0.00    -0.647 OA
ENDBRANCH   6   7
ENDBRANCH   3   6
ENDBRANCH   1   2
BRANCH   1  10
HETATM   10  C           1     -30.894 -16.312 -22.508  0.00  0.00     0.017 C 
HETATM   11  C           1     -29.922 -17.128 -21.666  0.00  0.00     0.012 C 
HETATM   12  C           1     -32.082 -17.183 -22.898  0.00  0.00     0.012 C 
ENDBRANCH   1  10
BRANCH   1  13
HETATM   13  N           1     -31.901 -14.063 -22.636  0.00  0.00    -0.066 N 
HETATM   14  H           1     -32.692 -14.452 -23.198  0.00  0.00     0.275 HD
HETATM   15  H           1     -32.237 -13.242 -22.085  0.00  0.00     0.275 HD
HETATM   16  H           1     -31.134 -13.761 -23.278  0.00  0.00     0.275 HD
ENDBRANCH   1  13
TORSDOF 5
ENDMDL
MODEL 6
REMARK VINA RESULT:      -4.7     10.203     11.912
REMARK  5 active torsions:
REMARK  status: ('A' for Active; 'I' for Inactive)
REMARK    1  A    between atoms: C_1  and  C_3 
REMARK    2  A    between atoms: C_1  and  C_4 
REMARK    3  A    between atoms: C_1  and  N_13 
REMARK       I    between atoms: C_3  and  N_11 
REMARK    4  A    between atoms: C_7  and  C_12 
REMARK    5  A    between atoms: N_11  and  C_12 
ROOT
HETATM    1  C           1     -22.203  -4.474  -8.749  0.00  0.00     0.278 C 
ENDROOT
BRANCH   1   2
HETATM    2  C           1     -21.596  -4.531  -7.368  0.00  0.00     0.249 C 
HETATM    3  N           1     -21.679  -5.681  -6.631  0.00  0.00    -0.349 N 
HETATM    4  H           1     -22.147  -6.494  -7.011  0.00  0.00     0.163 HD
HETATM    5  O           1     -21.037  -3.561  -6.914  0.00  0.00    -0.271 OA
BRANCH   3   6
HETATM    6  C           1     -21.095  -5.736  -5.305  0.00  0.00     0.235 C 
BRANCH   6   7
HETATM    7  C           1     -20.474  -7.093  -5.082  0.00  0.00     0.191 C 
HETATM    8  O           1     -19.775  -7.614  -5.978  0.00  0.00    -0.647 OA
HETATM    9  O           1     -20.658  -7.695  -4.003  0.00  0.00    -0.647 OA
ENDBRANCH   6   7
ENDBRANCH   3   6
ENDBRANCH   1   2
BRANCH   1  10
HETATM   10  C           1     -21.221  -3.818  -9.710  0.00  0.00     0.017 C 
HETATM   11  C           1     -20.124  -4.810 -10.073  0.00  0.00     0.012 C 
HETATM   12  C           1     -21.957  -3.390 -10.974  0.00  0.00     0.012 C 
ENDBRANCH   1  10
BRANCH   1  13
HETATM   13  N           1     -23.470  -3.673  -8.705  0.00  0.00    -0.066 N 
HETATM   14  H           1     -23.856  -3.577  -9.671  0.00  0.00     0.275 HD
HETATM   15  H           1     -24.168  -4.157  -8.097  0.00  0.00     0.275 HD
HETATM   16  H           1     -23.267  -2.724  -8.315  0.00  0.00     0.275 HD
ENDBRANCH   1  13
TORSDOF 5
ENDMDL
MODEL 7
REMARK VINA RESULT:      -4.7      2.874      5.313
REMARK  5 active torsions:
REMARK  status: ('A' for Active; 'I' for Inactive)
REMARK    1  A    between atoms: C_1  and  C_3 
REMARK    2  A    between atoms: C_1  and  C_4 
REMARK    3  A    between atoms: C_1  and  N_13 
REMARK       I    between atoms: C_3  and  N_11 
REMARK    4  A    between atoms: C_7  and  C_12 
REMARK    5  A    between atoms: N_11  and  C_12 
ROOT
HETATM    1  C           1     -27.589  -5.891 -17.683  0.00  0.00     0.278 C 
ENDROOT
BRANCH   1   2
HETATM    2  C           1     -28.423  -4.701 -17.275  0.00  0.00     0.249 C 
HETATM    3  N           1     -29.624  -4.466 -17.886  0.00  0.00    -0.349 N 
HETATM    4  H           1     -29.954  -5.089 -18.612  0.00  0.00     0.163 HD
HETATM    5  O           1     -28.030  -3.957 -16.408  0.00  0.00    -0.271 OA
BRANCH   3   6
HETATM    6  C           1     -30.426  -3.322 -17.494  0.00  0.00     0.235 C 
BRANCH   6   7
HETATM    7  C           1     -31.861  -3.751 -17.312  0.00  0.00     0.191 C 
HETATM    8  O           1     -32.122  -4.890 -16.868  0.00  0.00    -0.647 OA
HETATM    9  O           1     -32.789  -2.967 -17.606  0.00  0.00    -0.647 OA
ENDBRANCH   6   7
ENDBRANCH   3   6
ENDBRANCH   1   2
BRANCH   1  10
HETATM   10  C           1     -27.976  -6.325 -19.091  0.00  0.00     0.017 C 
HETATM   11  C           1     -26.716  -6.556 -19.915  0.00  0.00     0.012 C 
HETATM   12  C           1     -28.781  -7.616 -19.020  0.00  0.00     0.012 C 
ENDBRANCH   1  10
BRANCH   1  13
HETATM   13  N           1     -27.832  -7.022 -16.728  0.00  0.00    -0.066 N 
HETATM   14  H           1     -28.843  -7.045 -16.465  0.00  0.00     0.275 HD
HETATM   15  H           1     -27.570  -7.925 -17.183  0.00  0.00     0.275 HD
HETATM   16  H           1     -27.252  -6.883 -15.870  0.00  0.00     0.275 HD
ENDBRANCH   1  13
TORSDOF 5
ENDMDL
MODEL 8
REMARK VINA RESULT:      -4.7     14.924     16.674
REMARK  5 active torsions:
REMARK  status: ('A' for Active; 'I' for Inactive)
REMARK    1  A    between atoms: C_1  and  C_3 
REMARK    2  A    between atoms: C_1  and  C_4 
REMARK    3  A    between atoms: C_1  and  N_13 
REMARK       I    between atoms: C_3  and  N_11 
REMARK    4  A    between atoms: C_7  and  C_12 
REMARK    5  A    between atoms: N_11  and  C_12 
ROOT
HETATM    1  C           1     -22.262  -8.328  -0.032  0.00  0.00     0.278 C 
ENDROOT
BRANCH   1   2
HETATM    2  C           1     -22.061  -7.322  -1.139  0.00  0.00     0.249 C 
HETATM    3  N           1     -21.276  -7.636  -2.215  0.00  0.00    -0.349 N 
HETATM    4  H           1     -20.830  -8.543  -2.269  0.00  0.00     0.163 HD
HETATM    5  O           1     -22.593  -6.239  -1.075  0.00  0.00    -0.271 OA
BRANCH   3   6
HETATM    6  C           1     -21.082  -6.669  -3.279  0.00  0.00     0.235 C 
BRANCH   6   7
HETATM    7  C           1     -21.924  -7.055  -4.470  0.00  0.00     0.191 C 
HETATM    8  O           1     -21.752  -8.163  -5.024  0.00  0.00    -0.647 OA
HETATM    9  O           1     -22.792  -6.267  -4.904  0.00  0.00    -0.647 OA
ENDBRANCH   6   7
ENDBRANCH   3   6
ENDBRANCH   1   2
BRANCH   1  10
HETATM   10  C           1     -22.292  -9.732  -0.621  0.00  0.00     0.017 C 
HETATM   11  C           1     -21.148 -10.552  -0.039  0.00  0.00     0.012 C 
HETATM   12  C           1     -23.619 -10.397  -0.277  0.00  0.00     0.012 C 
ENDBRANCH   1  10
BRANCH   1  13
HETATM   13  N           1     -23.561  -8.050   0.664  0.00  0.00    -0.066 N 
HETATM   14  H           1     -24.230  -8.831   0.478  0.00  0.00     0.275 HD
HETATM   15  H           1     -23.396  -7.971   1.692  0.00  0.00     0.275 HD
HETATM   16  H           1     -23.963  -7.154   0.306  0.00  0.00     0.275 HD
ENDBRANCH   1  13
TORSDOF 5
ENDMDL
MODEL 9
REMARK VINA RESULT:      -4.6     12.966     14.796
REMARK  5 active torsions:
REMARK  status: ('A' for Active; 'I' for Inactive)
REMARK    1  A    between atoms: C_1  and  C_3 
REMARK    2  A    between atoms: C_1  and  C_4 
REMARK    3  A    between atoms: C_1  and  N_13 
REMARK       I    between atoms: C_3  and  N_11 
REMARK    4  A    between atoms: C_7  and  C_12 
REMARK    5  A    between atoms: N_11  and  C_12 
ROOT
HETATM    1  C           1     -21.295  -6.514  -2.802  0.00  0.00     0.278 C 
ENDROOT
BRANCH   1   2
HETATM    2  C           1     -21.562  -6.322  -4.276  0.00  0.00     0.249 C 
HETATM    3  N           1     -20.519  -6.282  -5.161  0.00  0.00    -0.349 N 
HETATM    4  H           1     -19.568  -6.381  -4.828  0.00  0.00     0.163 HD
HETATM    5  O           1     -22.696  -6.204  -4.673  0.00  0.00    -0.271 OA
BRANCH   3   6
HETATM    6  C           1     -20.775  -6.098  -6.576  0.00  0.00     0.235 C 
BRANCH   6   7
HETATM    7  C           1     -20.337  -4.716  -6.993  0.00  0.00     0.191 C 
HETATM    8  O           1     -19.186  -4.536  -7.446  0.00  0.00    -0.647 OA
HETATM    9  O           1     -21.124  -3.751  -6.884  0.00  0.00    -0.647 OA
ENDBRANCH   6   7
ENDBRANCH   3   6
ENDBRANCH   1   2
BRANCH   1  10
HETATM   10  C           1     -21.367  -7.997  -2.461  0.00  0.00     0.017 C 
HETATM   11  C           1     -19.963  -8.587  -2.460  0.00  0.00     0.012 C 
HETATM   12  C           1     -21.991  -8.170  -1.082  0.00  0.00     0.012 C 
ENDBRANCH   1  10
BRANCH   1  13
HETATM   13  N           1     -22.325  -5.769  -2.008  0.00  0.00    -0.066 N 
HETATM   14  H           1     -21.979  -4.803  -1.807  0.00  0.00     0.275 HD
HETATM   15  H           1     -23.214  -5.714  -2.553  0.00  0.00     0.275 HD
HETATM   16  H           1     -22.500  -6.270  -1.107  0.00  0.00     0.275 HD
ENDBRANCH   1  13
TORSDOF 5
ENDMDL
