MODEL 1
REMARK VINA RESULT:      -5.6      0.000      0.000
REMARK  7 active torsions:
REMARK  status: ('A' for Active; 'I' for Inactive)
REMARK    1  A    between atoms: N_1  and  C_8 
REMARK    2  A    between atoms: C_3  and  C_4 
REMARK    3  A    between atoms: C_4  and  C_5 
REMARK    4  A    between atoms: C_4  and  N_9 
REMARK    5  A    between atoms: C_5  and  Se_6 
REMARK       I    between atoms: C_7  and  N_9 
REMARK    6  A    between atoms: C_7  and  C_8 
REMARK    7  A    between atoms: C_8  and  C_15 
ROOT
HETATM    1  C           1     -34.634  -2.167 -12.525  0.00  0.00     0.249 C 
HETATM    2  N           1     -35.258  -1.556 -13.580  0.00  0.00    -0.345 N 
HETATM    3  H           1     -35.508  -2.094 -14.400  0.00  0.00     0.163 HD
HETATM    4  O           1     -34.336  -1.525 -11.547  0.00  0.00    -0.271 OA
ENDROOT
BRANCH   1   5
HETATM    5  C           1     -34.316  -3.640 -12.587  0.00  0.00     0.278 C 
BRANCH   5   6
HETATM    6  N           1     -33.733  -3.970 -13.929  0.00  0.00    -0.066 N 
HETATM    7  H           1     -34.354  -3.594 -14.681  0.00  0.00     0.275 HD
HETATM    8  H           1     -32.786  -3.537 -14.012  0.00  0.00     0.275 HD
HETATM    9  H           1     -33.654  -5.007 -14.029  0.00  0.00     0.275 HD
ENDBRANCH   5   6
BRANCH   5  10
HETATM   10  C           1     -33.310  -3.988 -11.498  0.00  0.00     0.017 C 
HETATM   11  C           1     -33.949  -4.944 -10.501  0.00  0.00     0.012 C 
HETATM   12  C           1     -32.091  -4.652 -12.126  0.00  0.00     0.012 C 
ENDBRANCH   5  10
ENDBRANCH   1   5
BRANCH   2  13
HETATM   13  C           1     -35.564  -0.140 -13.521  0.00  0.00     0.185 C 
BRANCH  13  14
HETATM   14  C           1     -36.976   0.049 -13.025  0.00  0.00     0.196 C 
HETATM   15  O           1     -37.199   0.163 -11.800  0.00  0.00    -0.646 OA
HETATM   16  O           1     -37.925   0.091 -13.838  0.00  0.00    -0.646 OA
ENDBRANCH  13  14
BRANCH  13  17
HETATM   17  C           1     -35.429   0.466 -14.911  0.00  0.00     0.039 C 
BRANCH  17  18
HETATM   18 Se           1     -35.618  -0.935 -16.252  0.00  0.00     0.000 Se
HETATM   19  H           1     -36.217  -1.907 -15.322  0.00  0.00     0.000 HD
ENDBRANCH  17  18
ENDBRANCH  13  17
ENDBRANCH   2  13
TORSDOF 7
ENDMDL
MODEL 2
REMARK VINA RESULT:      -5.4     12.169     14.094
REMARK  7 active torsions:
REMARK  status: ('A' for Active; 'I' for Inactive)
REMARK    1  A    between atoms: N_1  and  C_8 
REMARK    2  A    between atoms: C_3  and  C_4 
REMARK    3  A    between atoms: C_4  and  C_5 
REMARK    4  A    between atoms: C_4  and  N_9 
REMARK    5  A    between atoms: C_5  and  Se_6 
REMARK       I    between atoms: C_7  and  N_9 
REMARK    6  A    between atoms: C_7  and  C_8 
REMARK    7  A    between atoms: C_8  and  C_15 
ROOT
HETATM    1  C           1     -21.870  -4.621  -7.875  0.00  0.00     0.249 C 
HETATM    2  N           1     -22.347  -4.796  -9.147  0.00  0.00    -0.345 N 
HETATM    3  H           1     -22.338  -5.716  -9.569  0.00  0.00     0.163 HD
HETATM    4  O           1     -21.881  -3.523  -7.373  0.00  0.00    -0.271 OA
ENDROOT
BRANCH   1   5
HETATM    5  C           1     -21.329  -5.800  -7.104  0.00  0.00     0.278 C 
BRANCH   5   6
HETATM    6  N           1     -19.892  -6.021  -7.473  0.00  0.00    -0.066 N 
HETATM    7  H           1     -19.741  -5.745  -8.469  0.00  0.00     0.275 HD
HETATM    8  H           1     -19.281  -5.440  -6.855  0.00  0.00     0.275 HD
HETATM    9  H           1     -19.653  -7.031  -7.350  0.00  0.00     0.275 HD
ENDBRANCH   5   6
BRANCH   5  10
HETATM   10  C           1     -21.432  -5.519  -5.611  0.00  0.00     0.017 C 
HETATM   11  C           1     -21.726  -6.815  -4.869  0.00  0.00     0.012 C 
HETATM   12  C           1     -20.116  -4.937  -5.112  0.00  0.00     0.012 C 
ENDBRANCH   5  10
ENDBRANCH   1   5
BRANCH   2  13
HETATM   13  C           1     -22.867  -3.664  -9.889  0.00  0.00     0.185 C 
BRANCH  13  14
HETATM   14  C           1     -24.320  -3.901 -10.215  0.00  0.00     0.196 C 
HETATM   15  O           1     -24.903  -4.916  -9.774  0.00  0.00    -0.646 OA
HETATM   16  O           1     -24.943  -3.085 -10.929  0.00  0.00    -0.646 OA
ENDBRANCH  13  14
BRANCH  13  17
HETATM   17  C           1     -22.077  -3.497 -11.179  0.00  0.00     0.039 C 
BRANCH  17  18
HETATM   18 Se           1     -20.288  -4.234 -10.946  0.00  0.00     0.000 Se
HETATM   19  H           1     -20.327  -4.173  -9.476  0.00  0.00     0.000 HD
ENDBRANCH  17  18
ENDBRANCH  13  17
ENDBRANCH   2  13
TORSDOF 7
ENDMDL
MODEL 3
REMARK VINA RESULT:      -5.2     10.415     12.426
REMARK  7 active torsions:
REMARK  status: ('A' for Active; 'I' for Inactive)
REMARK    1  A    between atoms: N_1  and  C_8 
REMARK    2  A    between atoms: C_3  and  C_4 
REMARK    3  A    between atoms: C_4  and  C_5 
REMARK    4  A    between atoms: C_4  and  N_9 
REMARK    5  A    between atoms: C_5  and  Se_6 
REMARK       I    between atoms: C_7  and  N_9 
REMARK    6  A    between atoms: C_7  and  C_8 
REMARK    7  A    between atoms: C_8  and  C_15 
ROOT
HETATM    1  C           1     -25.107  -6.961 -18.869  0.00  0.00     0.249 C 
HETATM    2  N           1     -26.288  -6.722 -18.218  0.00  0.00    -0.345 N 
HETATM    3  H           1     -27.159  -7.054 -18.612  0.00  0.00     0.163 HD
HETATM    4  O           1     -24.068  -6.565 -18.398  0.00  0.00    -0.271 OA
ENDROOT
BRANCH   1   5
HETATM    5  C           1     -25.105  -7.718 -20.175  0.00  0.00     0.278 C 
BRANCH   5   6
HETATM    6  N           1     -26.519  -7.969 -20.609  0.00  0.00    -0.066 N 
HETATM    7  H           1     -26.784  -7.279 -21.348  0.00  0.00     0.275 HD
HETATM    8  H           1     -26.597  -8.937 -20.994  0.00  0.00     0.275 HD
HETATM    9  H           1     -27.159  -7.866 -19.790  0.00  0.00     0.275 HD
ENDBRANCH   5   6
BRANCH   5  10
HETATM   10  C           1     -24.387  -6.896 -21.236  0.00  0.00     0.017 C 
HETATM   11  C           1     -24.074  -7.777 -22.437  0.00  0.00     0.012 C 
HETATM   12  C           1     -25.278  -5.740 -21.673  0.00  0.00     0.012 C 
ENDBRANCH   5  10
ENDBRANCH   1   5
BRANCH   2  13
HETATM   13  C           1     -26.291  -5.995 -16.964  0.00  0.00     0.185 C 
BRANCH  13  14
HETATM   14  C           1     -26.292  -6.974 -15.816  0.00  0.00     0.196 C 
HETATM   15  O           1     -27.374  -7.402 -15.359  0.00  0.00    -0.646 OA
HETATM   16  O           1     -25.210  -7.357 -15.320  0.00  0.00    -0.646 OA
ENDBRANCH  13  14
BRANCH  13  17
HETATM   17  C           1     -27.535  -5.121 -16.887  0.00  0.00     0.039 C 
BRANCH  17  18
HETATM   18 Se           1     -28.693  -5.503 -18.407  0.00  0.00     0.000 Se
HETATM   19  H           1     -29.921  -5.044 -17.736  0.00  0.00     0.000 HD
ENDBRANCH  17  18
ENDBRANCH  13  17
ENDBRANCH   2  13
TORSDOF 7
ENDMDL
MODEL 4
REMARK VINA RESULT:      -5.1      9.594     11.251
REMARK  7 active torsions:
REMARK  status: ('A' for Active; 'I' for Inactive)
REMARK    1  A    between atoms: N_1  and  C_8 
REMARK    2  A    between atoms: C_3  and  C_4 
REMARK    3  A    between atoms: C_4  and  C_5 
REMARK    4  A    between atoms: C_4  and  N_9 
REMARK    5  A    between atoms: C_5  and  Se_6 
REMARK       I    between atoms: C_7  and  N_9 
REMARK    6  A    between atoms: C_7  and  C_8 
REMARK    7  A    between atoms: C_8  and  C_15 
ROOT
HETATM    1  C           1     -26.291  -6.335 -18.219  0.00  0.00     0.249 C 
HETATM    2  N           1     -27.522  -6.565 -18.772  0.00  0.00    -0.345 N 
HETATM    3  H           1     -27.594  -6.939 -19.709  0.00  0.00     0.163 HD
HETATM    4  O           1     -26.206  -5.889 -17.100  0.00  0.00    -0.271 OA
ENDROOT
BRANCH   1   5
HETATM    5  C           1     -25.041  -6.638 -19.009  0.00  0.00     0.278 C 
BRANCH   5   6
HETATM    6  N           1     -24.236  -7.680 -18.291  0.00  0.00    -0.066 N 
HETATM    7  H           1     -23.296  -7.765 -18.739  0.00  0.00     0.275 HD
HETATM    8  H           1     -24.120  -7.402 -17.291  0.00  0.00     0.275 HD
HETATM    9  H           1     -24.731  -8.599 -18.343  0.00  0.00     0.275 HD
ENDBRANCH   5   6
BRANCH   5  10
HETATM   10  C           1     -25.425  -7.154 -20.388  0.00  0.00     0.017 C 
HETATM   11  C           1     -25.486  -5.991 -21.368  0.00  0.00     0.012 C 
HETATM   12  C           1     -24.386  -8.162 -20.861  0.00  0.00     0.012 C 
ENDBRANCH   5  10
ENDBRANCH   1   5
BRANCH   2  13
HETATM   13  C           1     -28.723  -6.275 -18.014  0.00  0.00     0.185 C 
BRANCH  13  14
HETATM   14  C           1     -29.726  -7.383 -18.217  0.00  0.00     0.196 C 
HETATM   15  O           1     -29.464  -8.329 -18.991  0.00  0.00    -0.646 OA
HETATM   16  O           1     -30.819  -7.357 -17.611  0.00  0.00    -0.646 OA
ENDBRANCH  13  14
BRANCH  13  17
HETATM   17  C           1     -29.319  -4.958 -18.491  0.00  0.00     0.039 C 
BRANCH  17  18
HETATM   18 Se           1     -28.902  -3.552 -17.207  0.00  0.00     0.000 Se
HETATM   19  H           1     -29.300  -4.346 -16.033  0.00  0.00     0.000 HD
ENDBRANCH  17  18
ENDBRANCH  13  17
ENDBRANCH   2  13
TORSDOF 7
ENDMDL
MODEL 5
REMARK VINA RESULT:      -4.7     14.396     16.242
REMARK  7 active torsions:
REMARK  status: ('A' for Active; 'I' for Inactive)
REMARK    1  A    between atoms: N_1  and  C_8 
REMARK    2  A    between atoms: C_3  and  C_4 
REMARK    3  A    between atoms: C_4  and  C_5 
REMARK    4  A    between atoms: C_4  and  N_9 
REMARK    5  A    between atoms: C_5  and  Se_6 
REMARK       I    between atoms: C_7  and  N_9 
REMARK    6  A    between atoms: C_7  and  C_8 
REMARK    7  A    between atoms: C_8  and  C_15 
ROOT
HETATM    1  C           1     -21.719  -4.662  -7.426  0.00  0.00     0.249 C 
HETATM    2  N           1     -21.733  -5.914  -6.873  0.00  0.00    -0.345 N 
HETATM    3  H           1     -22.162  -6.683  -7.372  0.00  0.00     0.163 HD
HETATM    4  O           1     -21.207  -3.745  -6.830  0.00  0.00    -0.271 OA
ENDROOT
BRANCH   1   5
HETATM    5  C           1     -22.345  -4.428  -8.779  0.00  0.00     0.278 C 
BRANCH   5   6
HETATM    6  N           1     -23.488  -3.466  -8.641  0.00  0.00    -0.066 N 
HETATM    7  H           1     -24.372  -3.929  -8.953  0.00  0.00     0.275 HD
HETATM    8  H           1     -23.581  -3.179  -7.641  0.00  0.00     0.275 HD
HETATM    9  H           1     -23.308  -2.623  -9.232  0.00  0.00     0.275 HD
ENDBRANCH   5   6
BRANCH   5  10
HETATM   10  C           1     -21.304  -3.845  -9.725  0.00  0.00     0.017 C 
HETATM   11  C           1     -20.087  -4.759  -9.768  0.00  0.00     0.012 C 
HETATM   12  C           1     -21.898  -3.727 -11.123  0.00  0.00     0.012 C 
ENDBRANCH   5  10
ENDBRANCH   1   5
BRANCH   2  13
HETATM   13  C           1     -21.132  -6.140  -5.573  0.00  0.00     0.185 C 
BRANCH  13  14
HETATM   14  C           1     -20.021  -7.153  -5.702  0.00  0.00     0.196 C 
HETATM   15  O           1     -19.304  -7.167  -6.726  0.00  0.00    -0.646 OA
HETATM   16  O           1     -19.818  -7.979  -4.786  0.00  0.00    -0.646 OA
ENDBRANCH  13  14
BRANCH  13  17
HETATM   17  C           1     -22.188  -6.664  -4.610  0.00  0.00     0.039 C 
BRANCH  17  18
HETATM   18 Se           1     -21.692  -6.198  -2.784  0.00  0.00     0.000 Se
HETATM   19  H           1     -22.888  -5.373  -2.546  0.00  0.00     0.000 HD
ENDBRANCH  17  18
ENDBRANCH  13  17
ENDBRANCH   2  13
TORSDOF 7
ENDMDL
MODEL 6
REMARK VINA RESULT:      -4.6     15.058     17.030
REMARK  7 active torsions:
REMARK  status: ('A' for Active; 'I' for Inactive)
REMARK    1  A    between atoms: N_1  and  C_8 
REMARK    2  A    between atoms: C_3  and  C_4 
REMARK    3  A    between atoms: C_4  and  C_5 
REMARK    4  A    between atoms: C_4  and  N_9 
REMARK    5  A    between atoms: C_5  and  Se_6 
REMARK       I    between atoms: C_7  and  N_9 
REMARK    6  A    between atoms: C_7  and  C_8 
REMARK    7  A    between atoms: C_8  and  C_15 
ROOT
HETATM    1  C           1     -21.651  -5.621  -5.699  0.00  0.00     0.249 C 
HETATM    2  N           1     -20.884  -6.419  -4.894  0.00  0.00    -0.345 N 
HETATM    3  H           1     -19.877  -6.320  -4.895  0.00  0.00     0.163 HD
HETATM    4  O           1     -22.853  -5.738  -5.697  0.00  0.00    -0.271 OA
ENDROOT
BRANCH   1   5
HETATM    5  C           1     -20.995  -4.596  -6.591  0.00  0.00     0.278 C 
BRANCH   5   6
HETATM    6  N           1     -19.505  -4.684  -6.442  0.00  0.00    -0.066 N 
HETATM    7  H           1     -19.143  -5.479  -7.016  0.00  0.00     0.275 HD
HETATM    8  H           1     -19.069  -3.792  -6.769  0.00  0.00     0.275 HD
HETATM    9  H           1     -19.264  -4.842  -5.437  0.00  0.00     0.275 HD
ENDBRANCH   5   6
BRANCH   5  10
HETATM   10  C           1     -21.376  -4.866  -8.041  0.00  0.00     0.017 C 
HETATM   11  C           1     -22.369  -3.813  -8.511  0.00  0.00     0.012 C 
HETATM   12  C           1     -20.128  -4.811  -8.912  0.00  0.00     0.012 C 
ENDBRANCH   5  10
ENDBRANCH   1   5
BRANCH   2  13
HETATM   13  C           1     -21.515  -7.404  -4.036  0.00  0.00     0.185 C 
BRANCH  13  14
HETATM   14  C           1     -21.581  -6.874  -2.626  0.00  0.00     0.196 C 
HETATM   15  O           1     -22.384  -5.960  -2.338  0.00  0.00    -0.646 OA
HETATM   16  O           1     -20.832  -7.347  -1.744  0.00  0.00    -0.646 OA
ENDBRANCH  13  14
BRANCH  13  17
HETATM   17  C           1     -20.701  -8.690  -4.059  0.00  0.00     0.039 C 
BRANCH  17  18
HETATM   18 Se           1     -21.882 -10.212  -3.764  0.00  0.00     0.000 Se
HETATM   19  H           1     -23.035  -9.388  -3.364  0.00  0.00     0.000 HD
ENDBRANCH  17  18
ENDBRANCH  13  17
ENDBRANCH   2  13
TORSDOF 7
ENDMDL
MODEL 7
REMARK VINA RESULT:      -4.6     17.089     18.620
REMARK  7 active torsions:
REMARK  status: ('A' for Active; 'I' for Inactive)
REMARK    1  A    between atoms: N_1  and  C_8 
REMARK    2  A    between atoms: C_3  and  C_4 
REMARK    3  A    between atoms: C_4  and  C_5 
REMARK    4  A    between atoms: C_4  and  N_9 
REMARK    5  A    between atoms: C_5  and  Se_6 
REMARK       I    between atoms: C_7  and  N_9 
REMARK    6  A    between atoms: C_7  and  C_8 
REMARK    7  A    between atoms: C_8  and  C_15 
ROOT
HETATM    1  C           1     -21.050  -8.919  -1.586  0.00  0.00     0.249 C 
HETATM    2  N           1     -21.528  -8.687  -2.847  0.00  0.00    -0.345 N 
HETATM    3  H           1     -22.277  -9.258  -3.218  0.00  0.00     0.163 HD
HETATM    4  O           1     -20.156  -8.238  -1.144  0.00  0.00    -0.271 OA
ENDROOT
BRANCH   1   5
HETATM    5  C           1     -21.639 -10.028  -0.748  0.00  0.00     0.278 C 
BRANCH   5   6
HETATM    6  N           1     -20.942 -10.076   0.579  0.00  0.00    -0.066 N 
HETATM    7  H           1     -19.918  -9.926   0.441  0.00  0.00     0.275 HD
HETATM    8  H           1     -21.322  -9.324   1.198  0.00  0.00     0.275 HD
HETATM    9  H           1     -21.102 -11.008   1.023  0.00  0.00     0.275 HD
ENDBRANCH   5   6
BRANCH   5  10
HETATM   10  C           1     -23.124  -9.766  -0.532  0.00  0.00     0.017 C 
HETATM   11  C           1     -23.794 -11.032  -0.018  0.00  0.00     0.012 C 
HETATM   12  C           1     -23.300  -8.649   0.488  0.00  0.00     0.012 C 
ENDBRANCH   5  10
ENDBRANCH   1   5
BRANCH   2  13
HETATM   13  C           1     -20.963  -7.622  -3.653  0.00  0.00     0.185 C 
BRANCH  13  14
HETATM   14  C           1     -21.949  -6.485  -3.746  0.00  0.00     0.196 C 
HETATM   15  O           1     -22.384  -5.947  -2.704  0.00  0.00    -0.646 OA
HETATM   16  O           1     -22.332  -6.079  -4.865  0.00  0.00    -0.646 OA
ENDBRANCH  13  14
BRANCH  13  17
HETATM   17  C           1     -20.660  -8.148  -5.049  0.00  0.00     0.039 C 
BRANCH  17  18
HETATM   18 Se           1     -19.052  -9.249  -4.995  0.00  0.00     0.000 Se
HETATM   19  H           1     -19.402  -9.903  -3.723  0.00  0.00     0.000 HD
ENDBRANCH  17  18
ENDBRANCH  13  17
ENDBRANCH   2  13
TORSDOF 7
ENDMDL
MODEL 8
REMARK VINA RESULT:      -4.5     17.570     19.007
REMARK  7 active torsions:
REMARK  status: ('A' for Active; 'I' for Inactive)
REMARK    1  A    between atoms: N_1  and  C_8 
REMARK    2  A    between atoms: C_3  and  C_4 
REMARK    3  A    between atoms: C_4  and  C_5 
REMARK    4  A    between atoms: C_4  and  N_9 
REMARK    5  A    between atoms: C_5  and  Se_6 
REMARK       I    between atoms: C_7  and  N_9 
REMARK    6  A    between atoms: C_7  and  C_8 
REMARK    7  A    between atoms: C_8  and  C_15 
ROOT
HETATM    1  C           1     -21.364  -8.517  -2.199  0.00  0.00     0.249 C 
HETATM    2  N           1     -20.647  -7.999  -3.244  0.00  0.00    -0.345 N 
HETATM    3  H           1     -20.162  -7.118  -3.138  0.00  0.00     0.163 HD
HETATM    4  O           1     -21.943  -9.569  -2.326  0.00  0.00    -0.271 OA
ENDROOT
BRANCH   1   5
HETATM    5  C           1     -21.431  -7.771  -0.888  0.00  0.00     0.278 C 
BRANCH   5   6
HETATM    6  N           1     -22.320  -6.573  -1.040  0.00  0.00    -0.066 N 
HETATM    7  H           1     -21.889  -5.902  -1.715  0.00  0.00     0.275 HD
HETATM    8  H           1     -23.253  -6.876  -1.400  0.00  0.00     0.275 HD
HETATM    9  H           1     -22.438  -6.107  -0.112  0.00  0.00     0.275 HD
ENDBRANCH   5   6
BRANCH   5  10
HETATM   10  C           1     -21.996  -8.688   0.188  0.00  0.00     0.017 C 
HETATM   11  C           1     -21.038  -8.735   1.370  0.00  0.00     0.012 C 
HETATM   12  C           1     -23.346  -8.157   0.651  0.00  0.00     0.012 C 
ENDBRANCH   5  10
ENDBRANCH   1   5
BRANCH   2  13
HETATM   13  C           1     -20.582  -8.715  -4.504  0.00  0.00     0.185 C 
BRANCH  13  14
HETATM   14  C           1     -19.139  -8.963  -4.866  0.00  0.00     0.196 C 
HETATM   15  O           1     -18.777  -8.916  -6.062  0.00  0.00    -0.646 OA
HETATM   16  O           1     -18.304  -9.218  -3.971  0.00  0.00    -0.646 OA
ENDBRANCH  13  14
BRANCH  13  17
HETATM   17  C           1     -21.244  -7.884  -5.594  0.00  0.00     0.039 C 
BRANCH  17  18
HETATM   18 Se           1     -21.125  -5.994  -5.134  0.00  0.00     0.000 Se
HETATM   19  H           1     -21.589  -6.181  -3.750  0.00  0.00     0.000 HD
ENDBRANCH  17  18
ENDBRANCH  13  17
ENDBRANCH   2  13
TORSDOF 7
ENDMDL
MODEL 9
REMARK VINA RESULT:      -4.4      9.385     11.191
REMARK  7 active torsions:
REMARK  status: ('A' for Active; 'I' for Inactive)
REMARK    1  A    between atoms: N_1  and  C_8 
REMARK    2  A    between atoms: C_3  and  C_4 
REMARK    3  A    between atoms: C_4  and  C_5 
REMARK    4  A    between atoms: C_4  and  N_9 
REMARK    5  A    between atoms: C_5  and  Se_6 
REMARK       I    between atoms: C_7  and  N_9 
REMARK    6  A    between atoms: C_7  and  C_8 
REMARK    7  A    between atoms: C_8  and  C_15 
ROOT
HETATM    1  C           1     -26.738  -6.337 -18.850  0.00  0.00     0.249 C 
HETATM    2  N           1     -27.990  -6.229 -18.305  0.00  0.00    -0.345 N 
HETATM    3  H           1     -28.806  -6.276 -18.900  0.00  0.00     0.163 HD
HETATM    4  O           1     -25.764  -6.281 -18.139  0.00  0.00    -0.271 OA
ENDROOT
BRANCH   1   5
HETATM    5  C           1     -26.577  -6.522 -20.339  0.00  0.00     0.278 C 
BRANCH   5   6
HETATM    6  N           1     -25.497  -5.612 -20.842  0.00  0.00    -0.066 N 
HETATM    7  H           1     -25.666  -5.395 -21.850  0.00  0.00     0.275 HD
HETATM    8  H           1     -25.505  -4.724 -20.290  0.00  0.00     0.275 HD
HETATM    9  H           1     -24.569  -6.080 -20.737  0.00  0.00     0.275 HD
ENDBRANCH   5   6
BRANCH   5  10
HETATM   10  C           1     -26.199  -7.968 -20.631  0.00  0.00     0.017 C 
HETATM   11  C           1     -27.377  -8.681 -21.281  0.00  0.00     0.012 C 
HETATM   12  C           1     -25.004  -7.999 -21.576  0.00  0.00     0.012 C 
ENDBRANCH   5  10
ENDBRANCH   1   5
BRANCH   2  13
HETATM   13  C           1     -28.145  -6.051 -16.874  0.00  0.00     0.185 C 
BRANCH  13  14
HETATM   14  C           1     -28.425  -7.385 -16.229  0.00  0.00     0.196 C 
HETATM   15  O           1     -27.899  -7.672 -15.131  0.00  0.00    -0.646 OA
HETATM   16  O           1     -29.182  -8.205 -16.791  0.00  0.00    -0.646 OA
ENDBRANCH  13  14
BRANCH  13  17
HETATM   17  C           1     -29.305  -5.103 -16.605  0.00  0.00     0.039 C 
BRANCH  17  18
HETATM   18 Se           1     -28.857  -3.323 -17.261  0.00  0.00     0.000 Se
HETATM   19  H           1     -27.944  -3.015 -16.148  0.00  0.00     0.000 HD
ENDBRANCH  17  18
ENDBRANCH  13  17
ENDBRANCH   2  13
TORSDOF 7
ENDMDL
