MODEL 1
REMARK VINA RESULT:      -4.8      0.000      0.000
REMARK  8 active torsions:
REMARK  status: ('A' for Active; 'I' for Inactive)
REMARK    1  A    between atoms: S_5  and  C_6 
REMARK    2  A    between atoms: C_6  and  C_7 
REMARK    3  A    between atoms: C_7  and  C_8 
REMARK    4  A    between atoms: C_7  and  N_11 
REMARK       I    between atoms: N_11  and  C_12 
REMARK    5  A    between atoms: C_12  and  C_13 
REMARK    6  A    between atoms: C_13  and  C_14 
REMARK    7  A    between atoms: C_13  and  N_16 
REMARK    8  A    between atoms: C_14  and  Se_15 
ROOT
HETATM    1  H           1     -35.420  -1.920 -13.957  0.00  0.00     0.163 HD
HETATM    2  N           1     -34.986  -1.595 -13.102  0.00  0.00    -0.344 N 
HETATM    3  C           1     -34.332  -2.479 -12.286  0.00  0.00     0.249 C 
HETATM    4  O           1     -33.815  -2.090 -11.266  0.00  0.00    -0.271 OA
ENDROOT
BRANCH   3   5
HETATM    5  C           1     -34.259  -3.939 -12.661  0.00  0.00     0.274 C 
BRANCH   5   6
HETATM    6  C           1     -33.268  -4.648 -11.748  0.00  0.00     0.045 C 
BRANCH   6   7
HETATM    7 Se           1     -34.194  -6.023 -10.724  0.00  0.00     0.000 Se
HETATM    8  H           1     -34.402  -5.168  -9.544  0.00  0.00     0.000 HD
ENDBRANCH   6   7
ENDBRANCH   5   6
BRANCH   5   9
HETATM    9  N           1     -33.807  -4.067 -14.085  0.00  0.00    -0.067 N 
HETATM   10  H           1     -32.790  -3.834 -14.150  0.00  0.00     0.275 HD
HETATM   11  H           1     -33.960  -5.047 -14.412  0.00  0.00     0.275 HD
HETATM   12  H           1     -34.354  -3.408 -14.685  0.00  0.00     0.275 HD
ENDBRANCH   5   9
ENDBRANCH   3   5
BRANCH   2  13
HETATM   13  C           1     -35.056  -0.192 -12.743  0.00  0.00     0.194 C 
BRANCH  13  14
HETATM   14  C           1     -35.131   0.652 -14.008  0.00  0.00     0.106 C 
BRANCH  14  15
HETATM   15  S           1     -35.639  -0.391 -15.403  0.00  0.00    -0.180 SA
HETATM   16  H           1     -34.510  -0.232 -16.117  0.00  0.00     0.101 HD
ENDBRANCH  14  15
ENDBRANCH  13  14
BRANCH  13  17
HETATM   17  C           1     -36.286   0.050 -11.902  0.00  0.00     0.197 C 
HETATM   18  O           1     -37.423  -0.102 -12.399  0.00  0.00    -0.646 OA
HETATM   19  O           1     -36.167   0.401 -10.709  0.00  0.00    -0.646 OA
ENDBRANCH  13  17
ENDBRANCH   2  13
TORSDOF 8
ENDMDL
MODEL 2
REMARK VINA RESULT:      -4.8     12.387     13.954
REMARK  8 active torsions:
REMARK  status: ('A' for Active; 'I' for Inactive)
REMARK    1  A    between atoms: S_5  and  C_6 
REMARK    2  A    between atoms: C_6  and  C_7 
REMARK    3  A    between atoms: C_7  and  C_8 
REMARK    4  A    between atoms: C_7  and  N_11 
REMARK       I    between atoms: N_11  and  C_12 
REMARK    5  A    between atoms: C_12  and  C_13 
REMARK    6  A    between atoms: C_13  and  C_14 
REMARK    7  A    between atoms: C_13  and  N_16 
REMARK    8  A    between atoms: C_14  and  Se_15 
ROOT
HETATM    1  H           1     -22.300  -5.744  -9.163  0.00  0.00     0.163 HD
HETATM    2  N           1     -22.240  -4.796  -8.816  0.00  0.00    -0.344 N 
HETATM    3  C           1     -21.671  -4.548  -7.595  0.00  0.00     0.249 C 
HETATM    4  O           1     -21.601  -3.415  -7.180  0.00  0.00    -0.271 OA
ENDROOT
BRANCH   3   5
HETATM    5  C           1     -21.133  -5.689  -6.768  0.00  0.00     0.274 C 
BRANCH   5   6
HETATM    6  C           1     -20.739  -5.176  -5.389  0.00  0.00     0.045 C 
BRANCH   6   7
HETATM    7 Se           1     -21.448  -6.371  -4.023  0.00  0.00     0.000 Se
HETATM    8  H           1     -20.291  -6.222  -3.126  0.00  0.00     0.000 HD
ENDBRANCH   6   7
ENDBRANCH   5   6
BRANCH   5   9
HETATM    9  N           1     -19.930  -6.273  -7.446  0.00  0.00    -0.067 N 
HETATM   10  H           1     -20.207  -7.136  -7.967  0.00  0.00     0.275 HD
HETATM   11  H           1     -19.535  -5.575  -8.116  0.00  0.00     0.275 HD
HETATM   12  H           1     -19.209  -6.516  -6.729  0.00  0.00     0.275 HD
ENDBRANCH   5   9
ENDBRANCH   3   5
BRANCH   2  13
HETATM   13  C           1     -22.758  -3.699  -9.611  0.00  0.00     0.194 C 
BRANCH  13  14
HETATM   14  C           1     -22.173  -3.771 -11.015  0.00  0.00     0.106 C 
BRANCH  14  15
HETATM   15  S           1     -20.391  -4.101 -10.912  0.00  0.00    -0.180 SA
HETATM   16  H           1     -20.110  -3.094 -10.066  0.00  0.00     0.101 HD
ENDBRANCH  14  15
ENDBRANCH  13  14
BRANCH  13  17
HETATM   17  C           1     -24.262  -3.799  -9.685  0.00  0.00     0.197 C 
HETATM   18  O           1     -24.965  -2.778  -9.532  0.00  0.00    -0.646 OA
HETATM   19  O           1     -24.804  -4.905  -9.900  0.00  0.00    -0.646 OA
ENDBRANCH  13  17
ENDBRANCH   2  13
TORSDOF 8
ENDMDL
MODEL 3
REMARK VINA RESULT:      -4.8      1.555      4.645
REMARK  8 active torsions:
REMARK  status: ('A' for Active; 'I' for Inactive)
REMARK    1  A    between atoms: S_5  and  C_6 
REMARK    2  A    between atoms: C_6  and  C_7 
REMARK    3  A    between atoms: C_7  and  C_8 
REMARK    4  A    between atoms: C_7  and  N_11 
REMARK       I    between atoms: N_11  and  C_12 
REMARK    5  A    between atoms: C_12  and  C_13 
REMARK    6  A    between atoms: C_13  and  C_14 
REMARK    7  A    between atoms: C_13  and  N_16 
REMARK    8  A    between atoms: C_14  and  Se_15 
ROOT
HETATM    1  H           1     -34.016  -1.149 -13.664  0.00  0.00     0.163 HD
HETATM    2  N           1     -34.882  -1.359 -13.184  0.00  0.00    -0.344 N 
HETATM    3  C           1     -36.015  -0.648 -13.476  0.00  0.00     0.249 C 
HETATM    4  O           1     -37.049  -0.898 -12.903  0.00  0.00    -0.271 OA
ENDROOT
BRANCH   3   5
HETATM    5  C           1     -35.972   0.448 -14.512  0.00  0.00     0.274 C 
BRANCH   5   6
HETATM    6  C           1     -36.817   0.044 -15.713  0.00  0.00     0.045 C 
BRANCH   6   7
HETATM    7 Se           1     -35.837  -1.246 -16.796  0.00  0.00     0.000 Se
HETATM    8  H           1     -34.857  -1.560 -15.743  0.00  0.00     0.000 HD
ENDBRANCH   6   7
ENDBRANCH   5   6
BRANCH   5   9
HETATM    9  N           1     -34.554   0.665 -14.950  0.00  0.00    -0.067 N 
HETATM   10  H           1     -34.419   1.669 -15.206  0.00  0.00     0.275 HD
HETATM   11  H           1     -33.907   0.416 -14.169  0.00  0.00     0.275 HD
HETATM   12  H           1     -34.350   0.064 -15.780  0.00  0.00     0.275 HD
ENDBRANCH   5   9
ENDBRANCH   3   5
BRANCH   2  13
HETATM   13  C           1     -34.922  -2.413 -12.189  0.00  0.00     0.194 C 
BRANCH  13  14
HETATM   14  C           1     -34.038  -3.568 -12.637  0.00  0.00     0.106 C 
BRANCH  14  15
HETATM   15  S           1     -34.632  -5.111 -11.887  0.00  0.00    -0.180 SA
HETATM   16  H           1     -33.804  -5.925 -12.567  0.00  0.00     0.101 HD
ENDBRANCH  14  15
ENDBRANCH  13  14
BRANCH  13  17
HETATM   17  C           1     -34.421  -1.876 -10.870  0.00  0.00     0.197 C 
HETATM   18  O           1     -35.222  -1.372 -10.055  0.00  0.00    -0.646 OA
HETATM   19  O           1     -33.203  -1.936 -10.594  0.00  0.00    -0.646 OA
ENDBRANCH  13  17
ENDBRANCH   2  13
TORSDOF 8
ENDMDL
MODEL 4
REMARK VINA RESULT:      -4.4     25.012     25.969
REMARK  8 active torsions:
REMARK  status: ('A' for Active; 'I' for Inactive)
REMARK    1  A    between atoms: S_5  and  C_6 
REMARK    2  A    between atoms: C_6  and  C_7 
REMARK    3  A    between atoms: C_7  and  C_8 
REMARK    4  A    between atoms: C_7  and  N_11 
REMARK       I    between atoms: N_11  and  C_12 
REMARK    5  A    between atoms: C_12  and  C_13 
REMARK    6  A    between atoms: C_13  and  C_14 
REMARK    7  A    between atoms: C_13  and  N_16 
REMARK    8  A    between atoms: C_14  and  Se_15 
ROOT
HETATM    1  H           1     -10.698   4.610 -21.306  0.00  0.00     0.163 HD
HETATM    2  N           1     -11.551   4.932 -20.867  0.00  0.00    -0.344 N 
HETATM    3  C           1     -11.507   5.946 -19.948  0.00  0.00     0.249 C 
HETATM    4  O           1     -12.526   6.329 -19.423  0.00  0.00    -0.271 OA
ENDROOT
BRANCH   3   5
HETATM    5  C           1     -10.188   6.585 -19.592  0.00  0.00     0.274 C 
BRANCH   5   6
HETATM    6  C           1      -9.423   6.916 -20.866  0.00  0.00     0.045 C 
BRANCH   6   7
HETATM    7 Se           1      -9.292   8.851 -21.063  0.00  0.00     0.000 Se
HETATM    8  H           1      -8.849   8.795 -22.466  0.00  0.00     0.000 HD
ENDBRANCH   6   7
ENDBRANCH   5   6
BRANCH   5   9
HETATM    9  N           1      -9.381   5.633 -18.759  0.00  0.00    -0.067 N 
HETATM   10  H           1      -9.829   4.689 -18.777  0.00  0.00     0.275 HD
HETATM   11  H           1      -8.413   5.566 -19.146  0.00  0.00     0.275 HD
HETATM   12  H           1      -9.341   5.981 -17.774  0.00  0.00     0.275 HD
ENDBRANCH   5   9
ENDBRANCH   3   5
BRANCH   2  13
HETATM   13  C           1     -12.819   4.317 -21.210  0.00  0.00     0.194 C 
BRANCH  13  14
HETATM   14  C           1     -13.221   4.736 -22.617  0.00  0.00     0.106 C 
BRANCH  14  15
HETATM   15  S           1     -14.934   5.335 -22.605  0.00  0.00    -0.180 SA
HETATM   16  H           1     -15.324   4.624 -21.532  0.00  0.00     0.101 HD
ENDBRANCH  14  15
ENDBRANCH  13  14
BRANCH  13  17
HETATM   17  C           1     -12.681   2.815 -21.150  0.00  0.00     0.197 C 
HETATM   18  O           1     -11.579   2.300 -20.867  0.00  0.00    -0.646 OA
HETATM   19  O           1     -13.670   2.088 -21.385  0.00  0.00    -0.646 OA
ENDBRANCH  13  17
ENDBRANCH   2  13
TORSDOF 8
ENDMDL
MODEL 5
REMARK VINA RESULT:      -4.2      2.306      4.896
REMARK  8 active torsions:
REMARK  status: ('A' for Active; 'I' for Inactive)
REMARK    1  A    between atoms: S_5  and  C_6 
REMARK    2  A    between atoms: C_6  and  C_7 
REMARK    3  A    between atoms: C_7  and  C_8 
REMARK    4  A    between atoms: C_7  and  N_11 
REMARK       I    between atoms: N_11  and  C_12 
REMARK    5  A    between atoms: C_12  and  C_13 
REMARK    6  A    between atoms: C_13  and  C_14 
REMARK    7  A    between atoms: C_13  and  N_16 
REMARK    8  A    between atoms: C_14  and  Se_15 
ROOT
HETATM    1  H           1     -34.900  -1.355 -11.304  0.00  0.00     0.163 HD
HETATM    2  N           1     -34.814  -1.962 -12.110  0.00  0.00    -0.344 N 
HETATM    3  C           1     -35.060  -1.471 -13.365  0.00  0.00     0.249 C 
HETATM    4  O           1     -34.959  -2.196 -14.327  0.00  0.00    -0.271 OA
ENDROOT
BRANCH   3   5
HETATM    5  C           1     -35.457  -0.027 -13.546  0.00  0.00     0.274 C 
BRANCH   5   6
HETATM    6  C           1     -36.970   0.069 -13.695  0.00  0.00     0.045 C 
BRANCH   6   7
HETATM    7 Se           1     -37.437   0.107 -15.587  0.00  0.00     0.000 Se
HETATM    8  H           1     -36.625  -1.071 -15.931  0.00  0.00     0.000 HD
ENDBRANCH   6   7
ENDBRANCH   5   6
BRANCH   5   9
HETATM    9  N           1     -34.799   0.521 -14.777  0.00  0.00    -0.067 N 
HETATM   10  H           1     -34.570  -0.263 -15.429  0.00  0.00     0.275 HD
HETATM   11  H           1     -35.448   1.188 -15.252  0.00  0.00     0.275 HD
HETATM   12  H           1     -33.920   1.019 -14.510  0.00  0.00     0.275 HD
ENDBRANCH   5   9
ENDBRANCH   3   5
BRANCH   2  13
HETATM   13  C           1     -34.433  -3.349 -11.935  0.00  0.00     0.194 C 
BRANCH  13  14
HETATM   14  C           1     -33.021  -3.419 -11.370  0.00  0.00     0.106 C 
BRANCH  14  15
HETATM   15  S           1     -32.086  -4.714 -12.234  0.00  0.00    -0.180 SA
HETATM   16  H           1     -31.132  -3.899 -12.718  0.00  0.00     0.101 HD
ENDBRANCH  14  15
ENDBRANCH  13  14
BRANCH  13  17
HETATM   17  C           1     -35.392  -4.017 -10.980  0.00  0.00     0.197 C 
HETATM   18  O           1     -36.453  -3.443 -10.657  0.00  0.00    -0.646 OA
HETATM   19  O           1     -35.124  -5.145 -10.514  0.00  0.00    -0.646 OA
ENDBRANCH  13  17
ENDBRANCH   2  13
TORSDOF 8
ENDMDL
MODEL 6
REMARK VINA RESULT:      -4.2     25.025     26.063
REMARK  8 active torsions:
REMARK  status: ('A' for Active; 'I' for Inactive)
REMARK    1  A    between atoms: S_5  and  C_6 
REMARK    2  A    between atoms: C_6  and  C_7 
REMARK    3  A    between atoms: C_7  and  C_8 
REMARK    4  A    between atoms: C_7  and  N_11 
REMARK       I    between atoms: N_11  and  C_12 
REMARK    5  A    between atoms: C_12  and  C_13 
REMARK    6  A    between atoms: C_13  and  C_14 
REMARK    7  A    between atoms: C_13  and  N_16 
REMARK    8  A    between atoms: C_14  and  Se_15 
ROOT
HETATM    1  H           1     -11.305   6.973 -21.243  0.00  0.00     0.163 HD
HETATM    2  N           1     -12.121   6.973 -20.645  0.00  0.00    -0.344 N 
HETATM    3  C           1     -12.354   8.029 -19.805  0.00  0.00     0.249 C 
HETATM    4  O           1     -13.328   8.028 -19.090  0.00  0.00    -0.271 OA
ENDROOT
BRANCH   3   5
HETATM    5  C           1     -11.394   9.192 -19.771  0.00  0.00     0.274 C 
BRANCH   5   6
HETATM    6  C           1     -10.890   9.476 -21.180  0.00  0.00     0.045 C 
BRANCH   6   7
HETATM    7 Se           1      -8.995   9.038 -21.295  0.00  0.00     0.000 Se
HETATM    8  H           1      -9.164   8.079 -22.398  0.00  0.00     0.000 HD
ENDBRANCH   6   7
ENDBRANCH   5   6
BRANCH   5   9
HETATM    9  N           1     -10.232   8.855 -18.884  0.00  0.00    -0.067 N 
HETATM   10  H           1      -9.358   8.815 -19.456  0.00  0.00     0.275 HD
HETATM   11  H           1     -10.132   9.589 -18.147  0.00  0.00     0.275 HD
HETATM   12  H           1     -10.396   7.926 -18.433  0.00  0.00     0.275 HD
ENDBRANCH   5   9
ENDBRANCH   3   5
BRANCH   2  13
HETATM   13  C           1     -13.043   5.854 -20.678  0.00  0.00     0.194 C 
BRANCH  13  14
HETATM   14  C           1     -13.332   5.478 -22.125  0.00  0.00     0.106 C 
BRANCH  14  15
HETATM   15  S           1     -15.112   5.185 -22.330  0.00  0.00    -0.180 SA
HETATM   16  H           1     -15.354   4.879 -21.043  0.00  0.00     0.101 HD
ENDBRANCH  14  15
ENDBRANCH  13  14
BRANCH  13  17
HETATM   17  C           1     -12.429   4.676 -19.963  0.00  0.00     0.197 C 
HETATM   18  O           1     -12.002   4.806 -18.796  0.00  0.00    -0.646 OA
HETATM   19  O           1     -12.347   3.570 -20.539  0.00  0.00    -0.646 OA
ENDBRANCH  13  17
ENDBRANCH   2  13
TORSDOF 8
ENDMDL
MODEL 7
REMARK VINA RESULT:      -4.1     15.265     16.569
REMARK  8 active torsions:
REMARK  status: ('A' for Active; 'I' for Inactive)
REMARK    1  A    between atoms: S_5  and  C_6 
REMARK    2  A    between atoms: C_6  and  C_7 
REMARK    3  A    between atoms: C_7  and  C_8 
REMARK    4  A    between atoms: C_7  and  N_11 
REMARK       I    between atoms: N_11  and  C_12 
REMARK    5  A    between atoms: C_12  and  C_13 
REMARK    6  A    between atoms: C_13  and  C_14 
REMARK    7  A    between atoms: C_13  and  N_16 
REMARK    8  A    between atoms: C_14  and  Se_15 
ROOT
HETATM    1  H           1     -20.520  -4.532  -4.584  0.00  0.00     0.163 HD
HETATM    2  N           1     -20.969  -5.311  -5.049  0.00  0.00    -0.344 N 
HETATM    3  C           1     -21.423  -6.376  -4.317  0.00  0.00     0.249 C 
HETATM    4  O           1     -21.958  -7.306  -4.872  0.00  0.00    -0.271 OA
ENDROOT
BRANCH   3   5
HETATM    5  C           1     -21.253  -6.388  -2.818  0.00  0.00     0.274 C 
BRANCH   5   6
HETATM    6  C           1     -21.048  -7.820  -2.342  0.00  0.00     0.045 C 
BRANCH   6   7
HETATM    7 Se           1     -22.029  -8.101  -0.681  0.00  0.00     0.000 Se
HETATM    8  H           1     -22.231  -6.666  -0.422  0.00  0.00     0.000 HD
ENDBRANCH   6   7
ENDBRANCH   5   6
BRANCH   5   9
HETATM    9  N           1     -22.480  -5.818  -2.172  0.00  0.00    -0.067 N 
HETATM   10  H           1     -22.205  -5.258  -1.333  0.00  0.00     0.275 HD
HETATM   11  H           1     -22.978  -5.202  -2.853  0.00  0.00     0.275 HD
HETATM   12  H           1     -23.112  -6.596  -1.877  0.00  0.00     0.275 HD
ENDBRANCH   5   9
ENDBRANCH   3   5
BRANCH   2  13
HETATM   13  C           1     -21.132  -5.298  -6.489  0.00  0.00     0.194 C 
BRANCH  13  14
HETATM   14  C           1     -21.627  -3.928  -6.932  0.00  0.00     0.106 C 
BRANCH  14  15
HETATM   15  S           1     -22.644  -4.104  -8.425  0.00  0.00    -0.180 SA
HETATM   16  H           1     -23.811  -4.283  -7.780  0.00  0.00     0.101 HD
ENDBRANCH  14  15
ENDBRANCH  13  14
BRANCH  13  17
HETATM   17  C           1     -19.806  -5.593  -7.147  0.00  0.00     0.197 C 
HETATM   18  O           1     -19.122  -4.660  -7.619  0.00  0.00    -0.646 OA
HETATM   19  O           1     -19.393  -6.770  -7.219  0.00  0.00    -0.646 OA
ENDBRANCH  13  17
ENDBRANCH   2  13
TORSDOF 8
ENDMDL
MODEL 8
REMARK VINA RESULT:      -4.0     14.923     16.897
REMARK  8 active torsions:
REMARK  status: ('A' for Active; 'I' for Inactive)
REMARK    1  A    between atoms: S_5  and  C_6 
REMARK    2  A    between atoms: C_6  and  C_7 
REMARK    3  A    between atoms: C_7  and  C_8 
REMARK    4  A    between atoms: C_7  and  N_11 
REMARK       I    between atoms: N_11  and  C_12 
REMARK    5  A    between atoms: C_12  and  C_13 
REMARK    6  A    between atoms: C_13  and  C_14 
REMARK    7  A    between atoms: C_13  and  N_16 
REMARK    8  A    between atoms: C_14  and  Se_15 
ROOT
HETATM    1  H           1     -19.865  -6.738  -4.768  0.00  0.00     0.163 HD
HETATM    2  N           1     -20.874  -6.662  -4.764  0.00  0.00    -0.344 N 
HETATM    3  C           1     -21.500  -5.798  -5.622  0.00  0.00     0.249 C 
HETATM    4  O           1     -22.704  -5.706  -5.616  0.00  0.00    -0.271 OA
ENDROOT
BRANCH   3   5
HETATM    5  C           1     -20.684  -4.959  -6.575  0.00  0.00     0.274 C 
BRANCH   5   6
HETATM    6  C           1     -21.585  -3.934  -7.249  0.00  0.00     0.045 C 
BRANCH   6   7
HETATM    7 Se           1     -21.556  -4.209  -9.178  0.00  0.00     0.000 Se
HETATM    8  H           1     -20.101  -4.418  -9.244  0.00  0.00     0.000 HD
ENDBRANCH   6   7
ENDBRANCH   5   6
BRANCH   5   9
HETATM    9  N           1     -20.068  -5.844  -7.618  0.00  0.00    -0.067 N 
HETATM   10  H           1     -20.029  -6.826  -7.263  0.00  0.00     0.275 HD
HETATM   11  H           1     -20.647  -5.813  -8.487  0.00  0.00     0.275 HD
HETATM   12  H           1     -19.100  -5.512  -7.829  0.00  0.00     0.275 HD
ENDBRANCH   5   9
ENDBRANCH   3   5
BRANCH   2  13
HETATM   13  C           1     -21.658  -7.469  -3.848  0.00  0.00     0.194 C 
BRANCH  13  14
HETATM   14  C           1     -21.090  -8.880  -3.803  0.00  0.00     0.106 C 
BRANCH  14  15
HETATM   15  S           1     -19.468  -8.907  -4.617  0.00  0.00    -0.180 SA
HETATM   16  H           1     -19.927  -9.245  -5.835  0.00  0.00     0.101 HD
ENDBRANCH  14  15
ENDBRANCH  13  14
BRANCH  13  17
HETATM   17  C           1     -21.602  -6.858  -2.469  0.00  0.00     0.197 C 
HETATM   18  O           1     -22.267  -5.831  -2.213  0.00  0.00    -0.646 OA
HETATM   19  O           1     -20.891  -7.380  -1.583  0.00  0.00    -0.646 OA
ENDBRANCH  13  17
ENDBRANCH   2  13
TORSDOF 8
ENDMDL
MODEL 9
REMARK VINA RESULT:      -4.0     25.187     25.968
REMARK  8 active torsions:
REMARK  status: ('A' for Active; 'I' for Inactive)
REMARK    1  A    between atoms: S_5  and  C_6 
REMARK    2  A    between atoms: C_6  and  C_7 
REMARK    3  A    between atoms: C_7  and  C_8 
REMARK    4  A    between atoms: C_7  and  N_11 
REMARK       I    between atoms: N_11  and  C_12 
REMARK    5  A    between atoms: C_12  and  C_13 
REMARK    6  A    between atoms: C_13  and  C_14 
REMARK    7  A    between atoms: C_13  and  N_16 
REMARK    8  A    between atoms: C_14  and  Se_15 
ROOT
HETATM    1  H           1     -11.630   6.915 -18.945  0.00  0.00     0.163 HD
HETATM    2  N           1     -12.026   7.344 -19.772  0.00  0.00    -0.344 N 
HETATM    3  C           1     -12.807   6.604 -20.619  0.00  0.00     0.249 C 
HETATM    4  O           1     -13.278   7.115 -21.607  0.00  0.00    -0.271 OA
ENDROOT
BRANCH   3   5
HETATM    5  C           1     -13.079   5.150 -20.318  0.00  0.00     0.274 C 
BRANCH   5   6
HETATM    6  C           1     -12.451   4.282 -21.400  0.00  0.00     0.045 C 
BRANCH   6   7
HETATM    7 Se           1     -11.223   3.009 -20.582  0.00  0.00     0.000 Se
HETATM    8  H           1     -12.203   1.911 -20.542  0.00  0.00     0.000 HD
ENDBRANCH   6   7
ENDBRANCH   5   6
BRANCH   5   9
HETATM    9  N           1     -14.560   4.916 -20.287  0.00  0.00    -0.067 N 
HETATM   10  H           1     -14.752   3.891 -20.356  0.00  0.00     0.275 HD
HETATM   11  H           1     -14.951   5.282 -19.390  0.00  0.00     0.275 HD
HETATM   12  H           1     -15.008   5.409 -21.092  0.00  0.00     0.275 HD
ENDBRANCH   5   9
ENDBRANCH   3   5
BRANCH   2  13
HETATM   13  C           1     -11.764   8.741 -20.060  0.00  0.00     0.194 C 
BRANCH  13  14
HETATM   14  C           1     -12.808   9.605 -19.367  0.00  0.00     0.106 C 
BRANCH  14  15
HETATM   15  S           1     -13.282  10.975 -20.460  0.00  0.00    -0.180 SA
HETATM   16  H           1     -13.567  10.209 -21.529  0.00  0.00     0.101 HD
ENDBRANCH  14  15
ENDBRANCH  13  14
BRANCH  13  17
HETATM   17  C           1     -10.389   9.108 -19.557  0.00  0.00     0.197 C 
HETATM   18  O           1      -9.571   9.661 -20.321  0.00  0.00    -0.646 OA
HETATM   19  O           1     -10.070   8.858 -18.374  0.00  0.00    -0.646 OA
ENDBRANCH  13  17
ENDBRANCH   2  13
TORSDOF 8
ENDMDL
