MODEL 1
REMARK VINA RESULT:      -6.8      0.000      0.000
REMARK  9 active torsions:
REMARK  status: ('A' for Active; 'I' for Inactive)
REMARK    1  A    between atoms: C_2  and  C_9 
REMARK    2  A    between atoms: N_3  and  C_9 
REMARK       I    between atoms: N_3  and  C_4 
REMARK    3  A    between atoms: C_4  and  C_10 
REMARK    4  A    between atoms: S_5  and  C_11 
REMARK    5  A    between atoms: N_6  and  C_10 
REMARK    6  A    between atoms: C_9  and  C_20 
REMARK    7  A    between atoms: C_10  and  C_11 
REMARK    8  A    between atoms: C_12  and  C_20 
REMARK    9  A    between atoms: O_14  and  C_15 
ROOT
HETATM    1  C           1     -21.064  -5.243  -6.643  0.00  0.00     0.189 C 
ENDROOT
BRANCH   1   2
HETATM    2  C           1     -19.671  -5.503  -7.161  0.00  0.00     0.197 C 
HETATM    3  O           1     -18.865  -4.557  -7.288  0.00  0.00    -0.646 OA
HETATM    4  O           1     -19.324  -6.665  -7.464  0.00  0.00    -0.646 OA
ENDBRANCH   1   2
BRANCH   1   5
HETATM    5  N           1     -21.037  -5.176  -5.196  0.00  0.00    -0.344 N 
HETATM    6  C           1     -21.325  -6.289  -4.453  0.00  0.00     0.249 C 
HETATM    7  O           1     -21.603  -7.327  -5.004  0.00  0.00    -0.271 OA
HETATM    8  H           1     -20.804  -4.305  -4.733  0.00  0.00     0.163 HD
BRANCH   6   9
HETATM    9  C           1     -21.296  -6.219  -2.946  0.00  0.00     0.283 C 
BRANCH   9  10
HETATM   10  N           1     -22.664  -5.876  -2.435  0.00  0.00    -0.066 N 
HETATM   11  H           1     -23.053  -6.689  -1.905  0.00  0.00     0.275 HD
HETATM   12  H           1     -22.603  -5.046  -1.804  0.00  0.00     0.275 HD
HETATM   13  H           1     -23.292  -5.655  -3.243  0.00  0.00     0.275 HD
ENDBRANCH   9  10
BRANCH   9  14
HETATM   14  C           1     -20.868  -7.569  -2.383  0.00  0.00     0.113 C 
BRANCH  14  15
HETATM   15  S           1     -21.768  -7.895  -0.842  0.00  0.00    -0.180 SA
HETATM   16  H           1     -22.916  -7.302  -1.221  0.00  0.00     0.101 HD
ENDBRANCH  14  15
ENDBRANCH   9  14
ENDBRANCH   6   9
ENDBRANCH   1   5
BRANCH   1  17
HETATM   17  C           1     -21.577  -3.922  -7.202  0.00  0.00     0.074 C 
BRANCH  17  18
HETATM   18  C           1     -22.120  -4.139  -8.581  0.00  0.00    -0.056 A 
HETATM   19  C           1     -21.264  -4.106  -9.681  0.00  0.00     0.010 A 
HETATM   20  C           1     -21.770  -4.308 -10.965  0.00  0.00     0.037 A 
HETATM   21  C           1     -23.133  -4.543 -11.148  0.00  0.00     0.065 A 
HETATM   22  C           1     -23.989  -4.576 -10.047  0.00  0.00     0.037 A 
HETATM   23  C           1     -23.482  -4.374  -8.763  0.00  0.00     0.010 A 
BRANCH  21  24
HETATM   24  O           1     -23.625  -4.740 -12.396  0.00  0.00    -0.361 OA
HETATM   25  H           1     -23.734  -3.869 -12.815  0.00  0.00     0.217 HD
ENDBRANCH  21  24
ENDBRANCH  17  18
ENDBRANCH   1  17
TORSDOF 9
ENDMDL
MODEL 2
REMARK VINA RESULT:      -6.2      1.803      2.235
REMARK  9 active torsions:
REMARK  status: ('A' for Active; 'I' for Inactive)
REMARK    1  A    between atoms: C_2  and  C_9 
REMARK    2  A    between atoms: N_3  and  C_9 
REMARK       I    between atoms: N_3  and  C_4 
REMARK    3  A    between atoms: C_4  and  C_10 
REMARK    4  A    between atoms: S_5  and  C_11 
REMARK    5  A    between atoms: N_6  and  C_10 
REMARK    6  A    between atoms: C_9  and  C_20 
REMARK    7  A    between atoms: C_10  and  C_11 
REMARK    8  A    between atoms: C_12  and  C_20 
REMARK    9  A    between atoms: O_14  and  C_15 
ROOT
HETATM    1  C           1     -21.064  -5.552  -6.810  0.00  0.00     0.189 C 
ENDROOT
BRANCH   1   2
HETATM    2  C           1     -19.903  -4.813  -6.192  0.00  0.00     0.197 C 
HETATM    3  O           1     -18.848  -4.650  -6.842  0.00  0.00    -0.646 OA
HETATM    4  O           1     -19.996  -4.365  -5.028  0.00  0.00    -0.646 OA
ENDBRANCH   1   2
BRANCH   1   5
HETATM    5  N           1     -21.648  -6.443  -5.828  0.00  0.00    -0.344 N 
HETATM    6  C           1     -21.016  -7.614  -5.504  0.00  0.00     0.249 C 
HETATM    7  O           1     -19.972  -7.904  -6.037  0.00  0.00    -0.271 OA
HETATM    8  H           1     -22.523  -6.200  -5.380  0.00  0.00     0.163 HD
BRANCH   6   9
HETATM    9  C           1     -21.624  -8.541  -4.480  0.00  0.00     0.283 C 
BRANCH   9  10
HETATM   10  N           1     -21.203  -9.951  -4.771  0.00  0.00    -0.066 N 
HETATM   11  H           1     -20.506 -10.262  -4.057  0.00  0.00     0.275 HD
HETATM   12  H           1     -22.038 -10.579  -4.738  0.00  0.00     0.275 HD
HETATM   13  H           1     -20.770  -9.996  -5.722  0.00  0.00     0.275 HD
ENDBRANCH   9  10
BRANCH   9  14
HETATM   14  C           1     -21.146  -8.146  -3.089  0.00  0.00     0.113 C 
BRANCH  14  15
HETATM   15  S           1     -20.241  -9.530  -2.343  0.00  0.00    -0.180 SA
HETATM   16  H           1     -19.151  -9.423  -3.126  0.00  0.00     0.101 HD
ENDBRANCH  14  15
ENDBRANCH   9  14
ENDBRANCH   6   9
ENDBRANCH   1   5
BRANCH   1  17
HETATM   17  C           1     -22.114  -4.551  -7.275  0.00  0.00     0.074 C 
BRANCH  17  18
HETATM   18  C           1     -22.026  -4.388  -8.761  0.00  0.00    -0.056 A 
HETATM   19  C           1     -23.173  -4.514  -9.545  0.00  0.00     0.010 A 
HETATM   20  C           1     -23.091  -4.362 -10.929  0.00  0.00     0.037 A 
HETATM   21  C           1     -21.862  -4.084 -11.529  0.00  0.00     0.065 A 
HETATM   22  C           1     -20.716  -3.959 -10.744  0.00  0.00     0.037 A 
HETATM   23  C           1     -20.798  -4.111  -9.360  0.00  0.00     0.010 A 
BRANCH  21  24
HETATM   24  O           1     -21.783  -3.937 -12.874  0.00  0.00    -0.361 OA
HETATM   25  H           1     -22.422  -4.546 -13.280  0.00  0.00     0.217 HD
ENDBRANCH  21  24
ENDBRANCH  17  18
ENDBRANCH   1  17
TORSDOF 9
ENDMDL
MODEL 3
REMARK VINA RESULT:      -5.9      3.806      7.416
REMARK  9 active torsions:
REMARK  status: ('A' for Active; 'I' for Inactive)
REMARK    1  A    between atoms: C_2  and  C_9 
REMARK    2  A    between atoms: N_3  and  C_9 
REMARK       I    between atoms: N_3  and  C_4 
REMARK    3  A    between atoms: C_4  and  C_10 
REMARK    4  A    between atoms: S_5  and  C_11 
REMARK    5  A    between atoms: N_6  and  C_10 
REMARK    6  A    between atoms: C_9  and  C_20 
REMARK    7  A    between atoms: C_10  and  C_11 
REMARK    8  A    between atoms: C_12  and  C_20 
REMARK    9  A    between atoms: O_14  and  C_15 
ROOT
HETATM    1  C           1     -20.242  -8.103  -4.782  0.00  0.00     0.189 C 
ENDROOT
BRANCH   1   2
HETATM    2  C           1     -18.961  -8.873  -4.988  0.00  0.00     0.197 C 
HETATM    3  O           1     -18.306  -9.272  -4.002  0.00  0.00    -0.646 OA
HETATM    4  O           1     -18.556  -9.112  -6.147  0.00  0.00    -0.646 OA
ENDBRANCH   1   2
BRANCH   1   5
HETATM    5  N           1     -20.657  -7.511  -6.038  0.00  0.00    -0.344 N 
HETATM    6  C           1     -20.799  -6.152  -6.141  0.00  0.00     0.249 C 
HETATM    7  O           1     -20.579  -5.449  -5.185  0.00  0.00    -0.271 OA
HETATM    8  H           1     -20.842  -8.101  -6.840  0.00  0.00     0.163 HD
BRANCH   6   9
HETATM    9  C           1     -21.231  -5.536  -7.449  0.00  0.00     0.283 C 
BRANCH   9  10
HETATM   10  N           1     -22.338  -4.555  -7.197  0.00  0.00    -0.066 N 
HETATM   11  H           1     -23.249  -4.975  -7.491  0.00  0.00     0.275 HD
HETATM   12  H           1     -22.374  -4.324  -6.179  0.00  0.00     0.275 HD
HETATM   13  H           1     -22.163  -3.684  -7.748  0.00  0.00     0.275 HD
ENDBRANCH   9  10
BRANCH   9  14
HETATM   14  C           1     -20.049  -4.815  -8.085  0.00  0.00     0.113 C 
BRANCH  14  15
HETATM   15  S           1     -20.482  -4.315  -9.774  0.00  0.00    -0.180 SA
HETATM   16  H           1     -20.931  -3.089  -9.447  0.00  0.00     0.101 HD
ENDBRANCH  14  15
ENDBRANCH   9  14
ENDBRANCH   6   9
ENDBRANCH   1   5
BRANCH   1  17
HETATM   17  C           1     -21.329  -9.046  -4.283  0.00  0.00     0.074 C 
BRANCH  17  18
HETATM   18  C           1     -21.641  -8.737  -2.851  0.00  0.00    -0.056 A 
HETATM   19  C           1     -21.643  -7.414  -2.409  0.00  0.00     0.010 A 
HETATM   20  C           1     -21.934  -7.126  -1.075  0.00  0.00     0.037 A 
HETATM   21  C           1     -22.222  -8.161  -0.185  0.00  0.00     0.065 A 
HETATM   22  C           1     -22.221  -9.483  -0.629  0.00  0.00     0.037 A 
HETATM   23  C           1     -21.930  -9.771  -1.962  0.00  0.00     0.010 A 
BRANCH  21  24
HETATM   24  O           1     -22.505  -7.880   1.111  0.00  0.00    -0.361 OA
HETATM   25  H           1     -23.445  -7.636   1.166  0.00  0.00     0.217 HD
ENDBRANCH  21  24
ENDBRANCH  17  18
ENDBRANCH   1  17
TORSDOF 9
ENDMDL
MODEL 4
REMARK VINA RESULT:      -5.7      2.756      3.929
REMARK  9 active torsions:
REMARK  status: ('A' for Active; 'I' for Inactive)
REMARK    1  A    between atoms: C_2  and  C_9 
REMARK    2  A    between atoms: N_3  and  C_9 
REMARK       I    between atoms: N_3  and  C_4 
REMARK    3  A    between atoms: C_4  and  C_10 
REMARK    4  A    between atoms: S_5  and  C_11 
REMARK    5  A    between atoms: N_6  and  C_10 
REMARK    6  A    between atoms: C_9  and  C_20 
REMARK    7  A    between atoms: C_10  and  C_11 
REMARK    8  A    between atoms: C_12  and  C_20 
REMARK    9  A    between atoms: O_14  and  C_15 
ROOT
HETATM    1  C           1     -21.571  -7.837  -3.969  0.00  0.00     0.189 C 
ENDROOT
BRANCH   1   2
HETATM    2  C           1     -21.412  -9.156  -4.683  0.00  0.00     0.197 C 
HETATM    3  O           1     -20.776  -9.213  -5.757  0.00  0.00    -0.646 OA
HETATM    4  O           1     -21.917 -10.193  -4.198  0.00  0.00    -0.646 OA
ENDBRANCH   1   2
BRANCH   1   5
HETATM    5  N           1     -21.517  -8.052  -2.537  0.00  0.00    -0.344 N 
HETATM    6  C           1     -22.133  -7.172  -1.688  0.00  0.00     0.249 C 
HETATM    7  O           1     -22.721  -6.216  -2.133  0.00  0.00    -0.271 OA
HETATM    8  H           1     -21.023  -8.854  -2.163  0.00  0.00     0.163 HD
BRANCH   6   9
HETATM    9  C           1     -22.077  -7.397  -0.197  0.00  0.00     0.283 C 
BRANCH   9  10
HETATM   10  N           1     -23.424  -7.841   0.292  0.00  0.00    -0.066 N 
HETATM   11  H           1     -24.114  -7.065   0.167  0.00  0.00     0.275 HD
HETATM   12  H           1     -23.736  -8.675  -0.254  0.00  0.00     0.275 HD
HETATM   13  H           1     -23.362  -8.090   1.306  0.00  0.00     0.275 HD
ENDBRANCH   9  10
BRANCH   9  14
HETATM   14  C           1     -21.044  -8.472   0.116  0.00  0.00     0.113 C 
BRANCH  14  15
HETATM   15  S           1     -21.868 -10.083   0.247  0.00  0.00    -0.180 SA
HETATM   16  H           1     -21.737 -10.413  -1.052  0.00  0.00     0.101 HD
ENDBRANCH  14  15
ENDBRANCH   9  14
ENDBRANCH   6   9
ENDBRANCH   1   5
BRANCH   1  17
HETATM   17  C           1     -20.447  -6.895  -4.383  0.00  0.00     0.074 C 
BRANCH  17  18
HETATM   18  C           1     -20.957  -5.925  -5.404  0.00  0.00    -0.056 A 
HETATM   19  C           1     -20.078  -5.034  -6.018  0.00  0.00     0.010 A 
HETATM   20  C           1     -20.553  -4.131  -6.969  0.00  0.00     0.037 A 
HETATM   21  C           1     -21.907  -4.118  -7.304  0.00  0.00     0.065 A 
HETATM   22  C           1     -22.786  -5.010  -6.688  0.00  0.00     0.037 A 
HETATM   23  C           1     -22.311  -5.913  -5.738  0.00  0.00     0.010 A 
BRANCH  21  24
HETATM   24  O           1     -22.369  -3.240  -8.228  0.00  0.00    -0.361 OA
HETATM   25  H           1     -23.069  -3.682  -8.737  0.00  0.00     0.217 HD
ENDBRANCH  21  24
ENDBRANCH  17  18
ENDBRANCH   1  17
TORSDOF 9
ENDMDL
MODEL 5
REMARK VINA RESULT:      -5.7      4.453      7.593
REMARK  9 active torsions:
REMARK  status: ('A' for Active; 'I' for Inactive)
REMARK    1  A    between atoms: C_2  and  C_9 
REMARK    2  A    between atoms: N_3  and  C_9 
REMARK       I    between atoms: N_3  and  C_4 
REMARK    3  A    between atoms: C_4  and  C_10 
REMARK    4  A    between atoms: S_5  and  C_11 
REMARK    5  A    between atoms: N_6  and  C_10 
REMARK    6  A    between atoms: C_9  and  C_20 
REMARK    7  A    between atoms: C_10  and  C_11 
REMARK    8  A    between atoms: C_12  and  C_20 
REMARK    9  A    between atoms: O_14  and  C_15 
ROOT
HETATM    1  C           1     -21.172  -8.630  -4.829  0.00  0.00     0.189 C 
ENDROOT
BRANCH   1   2
HETATM    2  C           1     -21.350  -7.354  -5.614  0.00  0.00     0.197 C 
HETATM    3  O           1     -20.592  -7.099  -6.574  0.00  0.00    -0.646 OA
HETATM    4  O           1     -22.257  -6.550  -5.303  0.00  0.00    -0.646 OA
ENDBRANCH   1   2
BRANCH   1   5
HETATM    5  N           1     -20.520  -9.621  -5.661  0.00  0.00    -0.344 N 
HETATM    6  C           1     -20.949 -10.921  -5.642  0.00  0.00     0.249 C 
HETATM    7  O           1     -21.871 -11.241  -4.931  0.00  0.00    -0.271 OA
HETATM    8  H           1     -19.746  -9.353  -6.257  0.00  0.00     0.163 HD
BRANCH   6   9
HETATM    9  C           1     -20.270 -11.953  -6.508  0.00  0.00     0.283 C 
BRANCH   9  10
HETATM   10  N           1     -19.029 -11.362  -7.110  0.00  0.00    -0.066 N 
HETATM   11  H           1     -18.946 -11.665  -8.107  0.00  0.00     0.275 HD
HETATM   12  H           1     -19.084 -10.319  -7.068  0.00  0.00     0.275 HD
HETATM   13  H           1     -18.192 -11.690  -6.576  0.00  0.00     0.275 HD
ENDBRANCH   9  10
BRANCH   9  14
HETATM   14  C           1     -19.895 -13.162  -5.660  0.00  0.00     0.113 C 
BRANCH  14  15
HETATM   15  S           1     -18.535 -12.720  -4.544  0.00  0.00    -0.180 SA
HETATM   16  H           1     -18.073 -11.695  -5.284  0.00  0.00     0.101 HD
ENDBRANCH  14  15
ENDBRANCH   9  14
ENDBRANCH   6   9
ENDBRANCH   1   5
BRANCH   1  17
HETATM   17  C           1     -20.315  -8.356  -3.600  0.00  0.00     0.074 C 
BRANCH  17  18
HETATM   18  C           1     -21.193  -8.255  -2.391  0.00  0.00    -0.056 A 
HETATM   19  C           1     -21.644  -9.413  -1.758  0.00  0.00     0.010 A 
HETATM   20  C           1     -22.462  -9.318  -0.632  0.00  0.00     0.037 A 
HETATM   21  C           1     -22.829  -8.065  -0.140  0.00  0.00     0.065 A 
HETATM   22  C           1     -22.377  -6.908  -0.773  0.00  0.00     0.037 A 
HETATM   23  C           1     -21.560  -7.002  -1.899  0.00  0.00     0.010 A 
BRANCH  21  24
HETATM   24  O           1     -23.623  -7.974   0.955  0.00  0.00    -0.361 OA
HETATM   25  H           1     -23.460  -7.111   1.372  0.00  0.00     0.217 HD
ENDBRANCH  21  24
ENDBRANCH  17  18
ENDBRANCH   1  17
TORSDOF 9
ENDMDL
MODEL 6
REMARK VINA RESULT:      -5.6      3.266      4.543
REMARK  9 active torsions:
REMARK  status: ('A' for Active; 'I' for Inactive)
REMARK    1  A    between atoms: C_2  and  C_9 
REMARK    2  A    between atoms: N_3  and  C_9 
REMARK       I    between atoms: N_3  and  C_4 
REMARK    3  A    between atoms: C_4  and  C_10 
REMARK    4  A    between atoms: S_5  and  C_11 
REMARK    5  A    between atoms: N_6  and  C_10 
REMARK    6  A    between atoms: C_9  and  C_20 
REMARK    7  A    between atoms: C_10  and  C_11 
REMARK    8  A    between atoms: C_12  and  C_20 
REMARK    9  A    between atoms: O_14  and  C_15 
ROOT
HETATM    1  C           1     -21.288  -7.070  -4.205  0.00  0.00     0.189 C 
ENDROOT
BRANCH   1   2
HETATM    2  C           1     -21.478  -6.826  -2.728  0.00  0.00     0.197 C 
HETATM    3  O           1     -22.336  -6.007  -2.336  0.00  0.00    -0.646 OA
HETATM    4  O           1     -20.776  -7.443  -1.898  0.00  0.00    -0.646 OA
ENDBRANCH   1   2
BRANCH   1   5
HETATM    5  N           1     -21.388  -8.491  -4.476  0.00  0.00    -0.344 N 
HETATM    6  C           1     -20.270  -9.203  -4.819  0.00  0.00     0.249 C 
HETATM    7  O           1     -19.201  -8.647  -4.897  0.00  0.00    -0.271 OA
HETATM    8  H           1     -22.285  -8.957  -4.411  0.00  0.00     0.163 HD
BRANCH   6   9
HETATM    9  C           1     -20.375 -10.682  -5.101  0.00  0.00     0.283 C 
BRANCH   9  10
HETATM   10  N           1     -21.176 -10.897  -6.351  0.00  0.00    -0.066 N 
HETATM   11  H           1     -20.908 -10.182  -7.065  0.00  0.00     0.275 HD
HETATM   12  H           1     -20.986 -11.853  -6.727  0.00  0.00     0.275 HD
HETATM   13  H           1     -22.195 -10.804  -6.131  0.00  0.00     0.275 HD
ENDBRANCH   9  10
BRANCH   9  14
HETATM   14  C           1     -18.979 -11.263  -5.287  0.00  0.00     0.113 C 
BRANCH  14  15
HETATM   15  S           1     -18.971 -12.370  -6.725  0.00  0.00    -0.180 SA
HETATM   16  H           1     -18.046 -11.685  -7.423  0.00  0.00     0.101 HD
ENDBRANCH  14  15
ENDBRANCH   9  14
ENDBRANCH   6   9
ENDBRANCH   1   5
BRANCH   1  17
HETATM   17  C           1     -22.364  -6.328  -4.987  0.00  0.00     0.074 C 
BRANCH  17  18
HETATM   18  C           1     -21.741  -5.629  -6.155  0.00  0.00    -0.056 A 
HETATM   19  C           1     -20.383  -5.797  -6.425  0.00  0.00     0.010 A 
HETATM   20  C           1     -19.803  -5.146  -7.513  0.00  0.00     0.037 A 
HETATM   21  C           1     -20.581  -4.326  -8.331  0.00  0.00     0.065 A 
HETATM   22  C           1     -21.939  -4.160  -8.061  0.00  0.00     0.037 A 
HETATM   23  C           1     -22.519  -4.811  -6.973  0.00  0.00     0.010 A 
BRANCH  21  24
HETATM   24  O           1     -20.017  -3.694  -9.389  0.00  0.00    -0.361 OA
HETATM   25  H           1     -20.525  -2.883  -9.559  0.00  0.00     0.217 HD
ENDBRANCH  21  24
ENDBRANCH  17  18
ENDBRANCH   1  17
TORSDOF 9
ENDMDL
MODEL 7
REMARK VINA RESULT:      -5.6      6.235      8.996
REMARK  9 active torsions:
REMARK  status: ('A' for Active; 'I' for Inactive)
REMARK    1  A    between atoms: C_2  and  C_9 
REMARK    2  A    between atoms: N_3  and  C_9 
REMARK       I    between atoms: N_3  and  C_4 
REMARK    3  A    between atoms: C_4  and  C_10 
REMARK    4  A    between atoms: S_5  and  C_11 
REMARK    5  A    between atoms: N_6  and  C_10 
REMARK    6  A    between atoms: C_9  and  C_20 
REMARK    7  A    between atoms: C_10  and  C_11 
REMARK    8  A    between atoms: C_12  and  C_20 
REMARK    9  A    between atoms: O_14  and  C_15 
ROOT
HETATM    1  C           1     -21.475  -8.100  -1.716  0.00  0.00     0.189 C 
ENDROOT
BRANCH   1   2
HETATM    2  C           1     -21.996  -6.725  -2.053  0.00  0.00     0.197 C 
HETATM    3  O           1     -22.418  -5.977  -1.146  0.00  0.00    -0.646 OA
HETATM    4  O           1     -22.005  -6.335  -3.241  0.00  0.00    -0.646 OA
ENDBRANCH   1   2
BRANCH   1   5
HETATM    5  N           1     -20.073  -8.187  -2.075  0.00  0.00    -0.344 N 
HETATM    6  C           1     -19.605  -9.283  -2.749  0.00  0.00     0.249 C 
HETATM    7  O           1     -20.361 -10.178  -3.043  0.00  0.00    -0.271 OA
HETATM    8  H           1     -19.439  -7.436  -1.828  0.00  0.00     0.163 HD
BRANCH   6   9
HETATM    9  C           1     -18.146  -9.373  -3.123  0.00  0.00     0.283 C 
BRANCH   9  10
HETATM   10  N           1     -17.491 -10.459  -2.321  0.00  0.00    -0.066 N 
HETATM   11  H           1     -16.821 -10.984  -2.927  0.00  0.00     0.275 HD
HETATM   12  H           1     -16.976 -10.036  -1.517  0.00  0.00     0.275 HD
HETATM   13  H           1     -18.222 -11.115  -1.962  0.00  0.00     0.275 HD
ENDBRANCH   9  10
BRANCH   9  14
HETATM   14  C           1     -18.021  -9.693  -4.607  0.00  0.00     0.113 C 
BRANCH  14  15
HETATM   15  S           1     -16.291 -10.068  -5.003  0.00  0.00    -0.180 SA
HETATM   16  H           1     -15.793  -8.890  -4.582  0.00  0.00     0.101 HD
ENDBRANCH  14  15
ENDBRANCH   9  14
ENDBRANCH   6   9
ENDBRANCH   1   5
BRANCH   1  17
HETATM   17  C           1     -21.631  -8.351  -0.222  0.00  0.00     0.074 C 
BRANCH  17  18
HETATM   18  C           1     -22.123  -9.748   0.002  0.00  0.00    -0.056 A 
HETATM   19  C           1     -21.255 -10.723   0.494  0.00  0.00     0.010 A 
HETATM   20  C           1     -21.714 -12.023   0.702  0.00  0.00     0.037 A 
HETATM   21  C           1     -23.040 -12.349   0.417  0.00  0.00     0.065 A 
HETATM   22  C           1     -23.908 -11.374  -0.075  0.00  0.00     0.037 A 
HETATM   23  C           1     -23.449 -10.073  -0.283  0.00  0.00     0.010 A 
BRANCH  21  24
HETATM   24  O           1     -23.486 -13.613   0.619  0.00  0.00    -0.361 OA
HETATM   25  H           1     -22.753 -14.132   0.994  0.00  0.00     0.217 HD
ENDBRANCH  21  24
ENDBRANCH  17  18
ENDBRANCH   1  17
TORSDOF 9
ENDMDL
MODEL 8
REMARK VINA RESULT:      -5.5     19.768     21.488
REMARK  9 active torsions:
REMARK  status: ('A' for Active; 'I' for Inactive)
REMARK    1  A    between atoms: C_2  and  C_9 
REMARK    2  A    between atoms: N_3  and  C_9 
REMARK       I    between atoms: N_3  and  C_4 
REMARK    3  A    between atoms: C_4  and  C_10 
REMARK    4  A    between atoms: S_5  and  C_11 
REMARK    5  A    between atoms: N_6  and  C_10 
REMARK    6  A    between atoms: C_9  and  C_20 
REMARK    7  A    between atoms: C_10  and  C_11 
REMARK    8  A    between atoms: C_12  and  C_20 
REMARK    9  A    between atoms: O_14  and  C_15 
ROOT
HETATM    1  C           1     -11.865   8.664 -19.891  0.00  0.00     0.189 C 
ENDROOT
BRANCH   1   2
HETATM    2  C           1     -10.466   9.058 -19.485  0.00  0.00     0.197 C 
HETATM    3  O           1     -10.067   8.836 -18.322  0.00  0.00    -0.646 OA
HETATM    4  O           1      -9.707   9.608 -20.313  0.00  0.00    -0.646 OA
ENDBRANCH   1   2
BRANCH   1   5
HETATM    5  N           1     -12.700   9.846 -19.956  0.00  0.00    -0.344 N 
HETATM    6  C           1     -13.455  10.212 -18.874  0.00  0.00     0.249 C 
HETATM    7  O           1     -13.424   9.550 -17.865  0.00  0.00    -0.271 OA
HETATM    8  H           1     -12.726  10.402 -20.803  0.00  0.00     0.163 HD
BRANCH   6   9
HETATM    9  C           1     -14.324  11.444 -18.942  0.00  0.00     0.283 C 
BRANCH   9  10
HETATM   10  N           1     -14.865  11.597 -20.333  0.00  0.00    -0.066 N 
HETATM   11  H           1     -15.083  12.602 -20.515  0.00  0.00     0.275 HD
HETATM   12  H           1     -14.154  11.264 -21.023  0.00  0.00     0.275 HD
HETATM   13  H           1     -15.738  11.029 -20.431  0.00  0.00     0.275 HD
ENDBRANCH   9  10
BRANCH   9  14
HETATM   14  C           1     -15.480  11.304 -17.960  0.00  0.00     0.113 C 
BRANCH  14  15
HETATM   15  S           1     -15.550  12.771 -16.895  0.00  0.00    -0.180 SA
HETATM   16  H           1     -16.872  12.983 -17.034  0.00  0.00     0.101 HD
ENDBRANCH  14  15
ENDBRANCH   9  14
ENDBRANCH   6   9
ENDBRANCH   1   5
BRANCH   1  17
HETATM   17  C           1     -11.828   7.993 -21.258  0.00  0.00     0.074 C 
BRANCH  17  18
HETATM   18  C           1     -11.647   6.516 -21.085  0.00  0.00    -0.056 A 
HETATM   19  C           1     -11.044   5.765 -22.095  0.00  0.00     0.010 A 
HETATM   20  C           1     -10.876   4.390 -21.934  0.00  0.00     0.037 A 
HETATM   21  C           1     -11.312   3.766 -20.765  0.00  0.00     0.065 A 
HETATM   22  C           1     -11.914   4.518 -19.756  0.00  0.00     0.037 A 
HETATM   23  C           1     -12.082   5.893 -19.916  0.00  0.00     0.010 A 
BRANCH  21  24
HETATM   24  O           1     -11.148   2.429 -20.609  0.00  0.00    -0.361 OA
HETATM   25  H           1     -10.472   2.135 -21.242  0.00  0.00     0.217 HD
ENDBRANCH  21  24
ENDBRANCH  17  18
ENDBRANCH   1  17
TORSDOF 9
ENDMDL
MODEL 9
REMARK VINA RESULT:      -5.5      5.707      8.788
REMARK  9 active torsions:
REMARK  status: ('A' for Active; 'I' for Inactive)
REMARK    1  A    between atoms: C_2  and  C_9 
REMARK    2  A    between atoms: N_3  and  C_9 
REMARK       I    between atoms: N_3  and  C_4 
REMARK    3  A    between atoms: C_4  and  C_10 
REMARK    4  A    between atoms: S_5  and  C_11 
REMARK    5  A    between atoms: N_6  and  C_10 
REMARK    6  A    between atoms: C_9  and  C_20 
REMARK    7  A    between atoms: C_10  and  C_11 
REMARK    8  A    between atoms: C_12  and  C_20 
REMARK    9  A    between atoms: O_14  and  C_15 
ROOT
HETATM    1  C           1     -21.815  -7.980  -2.248  0.00  0.00     0.189 C 
ENDROOT
BRANCH   1   2
HETATM    2  C           1     -21.964  -6.505  -2.524  0.00  0.00     0.197 C 
HETATM    3  O           1     -21.682  -6.049  -3.652  0.00  0.00    -0.646 OA
HETATM    4  O           1     -22.369  -5.739  -1.622  0.00  0.00    -0.646 OA
ENDBRANCH   1   2
BRANCH   1   5
HETATM    5  N           1     -20.807  -8.537  -3.128  0.00  0.00    -0.344 N 
HETATM    6  C           1     -21.109  -9.611  -3.922  0.00  0.00     0.249 C 
HETATM    7  O           1     -22.215 -10.094  -3.889  0.00  0.00    -0.271 OA
HETATM    8  H           1     -19.879  -8.132  -3.156  0.00  0.00     0.163 HD
BRANCH   6   9
HETATM    9  C           1     -20.059 -10.190  -4.839  0.00  0.00     0.283 C 
BRANCH   9  10
HETATM   10  N           1     -20.691 -10.572  -6.144  0.00  0.00    -0.066 N 
HETATM   11  H           1     -20.246 -11.445  -6.506  0.00  0.00     0.275 HD
HETATM   12  H           1     -21.714 -10.735  -6.002  0.00  0.00     0.275 HD
HETATM   13  H           1     -20.554  -9.800  -6.836  0.00  0.00     0.275 HD
ENDBRANCH   9  10
BRANCH   9  14
HETATM   14  C           1     -18.971  -9.152  -5.085  0.00  0.00     0.113 C 
BRANCH  14  15
HETATM   15  S           1     -17.425  -9.990  -5.530  0.00  0.00    -0.180 SA
HETATM   16  H           1     -17.491 -10.928  -4.567  0.00  0.00     0.101 HD
ENDBRANCH  14  15
ENDBRANCH   9  14
ENDBRANCH   6   9
ENDBRANCH   1   5
BRANCH   1  17
HETATM   17  C           1     -21.394  -8.187  -0.799  0.00  0.00     0.074 C 
BRANCH  17  18
HETATM   18  C           1     -21.851  -9.535  -0.332  0.00  0.00    -0.056 A 
HETATM   19  C           1     -23.192  -9.897  -0.456  0.00  0.00     0.010 A 
HETATM   20  C           1     -23.618 -11.152  -0.021  0.00  0.00     0.037 A 
HETATM   21  C           1     -22.703 -12.044   0.538  0.00  0.00     0.065 A 
HETATM   22  C           1     -21.362 -11.681   0.661  0.00  0.00     0.037 A 
HETATM   23  C           1     -20.936 -10.426   0.226  0.00  0.00     0.010 A 
BRANCH  21  24
HETATM   24  O           1     -23.117 -13.264   0.960  0.00  0.00    -0.361 OA
HETATM   25  H           1     -22.979 -13.895   0.234  0.00  0.00     0.217 HD
ENDBRANCH  21  24
ENDBRANCH  17  18
ENDBRANCH   1  17
TORSDOF 9
ENDMDL
