MODEL 1
REMARK VINA RESULT:      -7.1      0.000      0.000
REMARK  9 active torsions:
REMARK  status: ('A' for Active; 'I' for Inactive)
REMARK    1  A    between atoms: C_3  and  Se_16 
REMARK    2  A    between atoms: C_3  and  C_10 
REMARK    3  A    between atoms: C_7  and  C_8 
REMARK    4  A    between atoms: C_8  and  C_9 
REMARK    5  A    between atoms: C_9  and  C_11 
REMARK    6  A    between atoms: C_9  and  N_24 
REMARK    7  A    between atoms: C_10  and  C_20 
REMARK       I    between atoms: C_11  and  N_15 
REMARK    8  A    between atoms: N_15  and  C_20 
REMARK    9  A    between atoms: C_20  and  C_26 
ROOT
HETATM    1  C           1     -21.449  -6.256  -5.446  0.00  0.00     0.278 C 
ENDROOT
BRANCH   1   2
HETATM    2  C           1     -20.921  -5.010  -6.144  0.00  0.00     0.083 C 
BRANCH   2   3
HETATM    3  C           1     -21.848  -4.632  -7.258  0.00  0.00    -0.028 A 
HETATM    4  C           1     -23.197  -4.384  -7.142  0.00  0.00     0.096 A 
HETATM    5  N           1     -23.673  -4.072  -8.388  0.00  0.00    -0.365 N 
HETATM    6  H           1     -24.672  -3.836  -8.608  0.00  0.00     0.165 HD
HETATM    7  C           1     -22.653  -4.114  -9.313  0.00  0.00     0.042 A 
HETATM    8  C           1     -22.670  -3.870 -10.691  0.00  0.00     0.030 A 
HETATM    9  C           1     -21.491  -4.465  -8.624  0.00  0.00    -0.002 A 
HETATM   10  C           1     -21.461  -3.989 -11.383  0.00  0.00     0.002 A 
HETATM   11  C           1     -20.285  -4.338 -10.723  0.00  0.00     0.001 A 
HETATM   12  C           1     -20.285  -4.578  -9.344  0.00  0.00     0.014 A 
ENDBRANCH   2   3
ENDBRANCH   1   2
BRANCH   1  13
HETATM   13  C           1     -20.427  -7.363  -5.550  0.00  0.00     0.249 C 
HETATM   14  N           1     -20.439  -8.394  -4.650  0.00  0.00    -0.345 N 
HETATM   15  H           1     -21.135  -8.415  -3.915  0.00  0.00     0.163 HD
HETATM   16  O           1     -19.597  -7.337  -6.428  0.00  0.00    -0.271 OA
BRANCH  14  17
HETATM   17  C           1     -19.458  -9.456  -4.750  0.00  0.00     0.185 C 
BRANCH  17  18
HETATM   18  C           1     -18.996  -9.854  -3.355  0.00  0.00     0.036 C 
BRANCH  18  19
HETATM   19  C           1     -19.533  -8.857  -2.336  0.00  0.00     0.003 C 
BRANCH  19  20
HETATM   20 Se           1     -20.911  -9.712  -1.254  0.00  0.00     0.000 Se
HETATM   21  C           1     -21.790  -8.043  -0.762  0.00  0.00     0.000 C 
ENDBRANCH  19  20
ENDBRANCH  18  19
ENDBRANCH  17  18
BRANCH  17  22
HETATM   22  C           1     -20.077 -10.650  -5.433  0.00  0.00     0.196 C 
HETATM   23  O           1     -21.069 -11.217  -4.925  0.00  0.00    -0.646 OA
HETATM   24  O           1     -19.599 -11.075  -6.507  0.00  0.00    -0.646 OA
ENDBRANCH  17  22
ENDBRANCH  14  17
ENDBRANCH   1  13
BRANCH   1  25
HETATM   25  N           1     -21.705  -5.949  -4.001  0.00  0.00    -0.066 N 
HETATM   26  H           1     -21.231  -5.052  -3.746  0.00  0.00     0.275 HD
HETATM   27  H           1     -21.328  -6.722  -3.407  0.00  0.00     0.275 HD
HETATM   28  H           1     -22.734  -5.856  -3.841  0.00  0.00     0.275 HD
ENDBRANCH   1  25
TORSDOF 9
ENDMDL
MODEL 2
REMARK VINA RESULT:      -7.0      1.401      2.128
REMARK  9 active torsions:
REMARK  status: ('A' for Active; 'I' for Inactive)
REMARK    1  A    between atoms: C_3  and  Se_16 
REMARK    2  A    between atoms: C_3  and  C_10 
REMARK    3  A    between atoms: C_7  and  C_8 
REMARK    4  A    between atoms: C_8  and  C_9 
REMARK    5  A    between atoms: C_9  and  C_11 
REMARK    6  A    between atoms: C_9  and  N_24 
REMARK    7  A    between atoms: C_10  and  C_20 
REMARK       I    between atoms: C_11  and  N_15 
REMARK    8  A    between atoms: N_15  and  C_20 
REMARK    9  A    between atoms: C_20  and  C_26 
ROOT
HETATM    1  C           1     -21.439  -6.316  -5.481  0.00  0.00     0.278 C 
ENDROOT
BRANCH   1   2
HETATM    2  C           1     -20.921  -5.049  -6.149  0.00  0.00     0.083 C 
BRANCH   2   3
HETATM    3  C           1     -21.847  -4.655  -7.258  0.00  0.00    -0.028 A 
HETATM    4  C           1     -23.198  -4.416  -7.140  0.00  0.00     0.096 A 
HETATM    5  N           1     -23.673  -4.084  -8.381  0.00  0.00    -0.365 N 
HETATM    6  H           1     -24.673  -3.849  -8.598  0.00  0.00     0.165 HD
HETATM    7  C           1     -22.652  -4.104  -9.304  0.00  0.00     0.042 A 
HETATM    8  C           1     -22.668  -3.835 -10.678  0.00  0.00     0.030 A 
HETATM    9  C           1     -21.489  -4.461  -8.620  0.00  0.00    -0.002 A 
HETATM   10  C           1     -21.457  -3.935 -11.370  0.00  0.00     0.002 A 
HETATM   11  C           1     -20.281  -4.290 -10.714  0.00  0.00     0.001 A 
HETATM   12  C           1     -20.282  -4.555  -9.340  0.00  0.00     0.014 A 
ENDBRANCH   2   3
ENDBRANCH   1   2
BRANCH   1  13
HETATM   13  C           1     -20.344  -7.356  -5.457  0.00  0.00     0.249 C 
HETATM   14  N           1     -20.277  -8.256  -4.429  0.00  0.00    -0.345 N 
HETATM   15  H           1     -20.962  -8.225  -3.684  0.00  0.00     0.163 HD
HETATM   16  O           1     -19.528  -7.393  -6.347  0.00  0.00    -0.271 OA
BRANCH  14  17
HETATM   17  C           1     -19.226  -9.255  -4.406  0.00  0.00     0.185 C 
BRANCH  17  18
HETATM   18  C           1     -18.940  -9.658  -2.966  0.00  0.00     0.036 C 
BRANCH  18  19
HETATM   19  C           1     -17.757 -10.616  -2.930  0.00  0.00     0.003 C 
BRANCH  19  20
HETATM   20 Se           1     -16.100  -9.612  -3.136  0.00  0.00     0.000 Se
HETATM   21  C           1     -15.645 -10.401  -4.859  0.00  0.00     0.000 C 
ENDBRANCH  19  20
ENDBRANCH  18  19
ENDBRANCH  17  18
BRANCH  17  22
HETATM   22  C           1     -19.667 -10.466  -5.188  0.00  0.00     0.196 C 
HETATM   23  O           1     -19.094 -10.761  -6.260  0.00  0.00    -0.646 OA
HETATM   24  O           1     -20.606 -11.176  -4.767  0.00  0.00    -0.646 OA
ENDBRANCH  17  22
ENDBRANCH  14  17
ENDBRANCH   1  13
BRANCH   1  25
HETATM   25  N           1     -21.859  -6.003  -4.077  0.00  0.00    -0.066 N 
HETATM   26  H           1     -22.647  -5.316  -4.093  0.00  0.00     0.275 HD
HETATM   27  H           1     -21.053  -5.595  -3.553  0.00  0.00     0.275 HD
HETATM   28  H           1     -22.174  -6.881  -3.603  0.00  0.00     0.275 HD
ENDBRANCH   1  25
TORSDOF 9
ENDMDL
MODEL 3
REMARK VINA RESULT:      -6.8      2.263      2.926
REMARK  9 active torsions:
REMARK  status: ('A' for Active; 'I' for Inactive)
REMARK    1  A    between atoms: C_3  and  Se_16 
REMARK    2  A    between atoms: C_3  and  C_10 
REMARK    3  A    between atoms: C_7  and  C_8 
REMARK    4  A    between atoms: C_8  and  C_9 
REMARK    5  A    between atoms: C_9  and  C_11 
REMARK    6  A    between atoms: C_9  and  N_24 
REMARK    7  A    between atoms: C_10  and  C_20 
REMARK       I    between atoms: C_11  and  N_15 
REMARK    8  A    between atoms: N_15  and  C_20 
REMARK    9  A    between atoms: C_20  and  C_26 
ROOT
HETATM    1  C           1     -20.271  -6.099  -5.822  0.00  0.00     0.278 C 
ENDROOT
BRANCH   1   2
HETATM    2  C           1     -20.743  -4.652  -5.854  0.00  0.00     0.083 C 
BRANCH   2   3
HETATM    3  C           1     -21.737  -4.476  -6.961  0.00  0.00    -0.028 A 
HETATM    4  C           1     -23.107  -4.537  -6.837  0.00  0.00     0.096 A 
HETATM    5  N           1     -23.648  -4.323  -8.077  0.00  0.00    -0.365 N 
HETATM    6  H           1     -24.676  -4.313  -8.291  0.00  0.00     0.165 HD
HETATM    7  C           1     -22.650  -4.123  -9.005  0.00  0.00     0.042 A 
HETATM    8  C           1     -22.729  -3.871 -10.380  0.00  0.00     0.030 A 
HETATM    9  C           1     -21.435  -4.215  -8.325  0.00  0.00    -0.002 A 
HETATM   10  C           1     -21.529  -3.708 -11.077  0.00  0.00     0.002 A 
HETATM   11  C           1     -20.301  -3.795 -10.425  0.00  0.00     0.001 A 
HETATM   12  C           1     -20.239  -4.047  -9.050  0.00  0.00     0.014 A 
ENDBRANCH   2   3
ENDBRANCH   1   2
BRANCH   1  13
HETATM   13  C           1     -21.050  -6.860  -4.776  0.00  0.00     0.249 C 
HETATM   14  N           1     -20.597  -6.908  -3.485  0.00  0.00    -0.345 N 
HETATM   15  H           1     -19.740  -6.432  -3.232  0.00  0.00     0.163 HD
HETATM   16  O           1     -22.074  -7.426  -5.078  0.00  0.00    -0.271 OA
BRANCH  14  17
HETATM   17  C           1     -21.345  -7.637  -2.480  0.00  0.00     0.185 C 
BRANCH  17  18
HETATM   18  C           1     -20.379  -8.378  -1.566  0.00  0.00     0.036 C 
BRANCH  18  19
HETATM   19  C           1     -20.538  -9.880  -1.764  0.00  0.00     0.003 C 
BRANCH  19  20
HETATM   20 Se           1     -22.061 -10.224  -2.930  0.00  0.00     0.000 Se
HETATM   21  C           1     -23.189 -10.949  -1.515  0.00  0.00     0.000 C 
ENDBRANCH  19  20
ENDBRANCH  18  19
ENDBRANCH  17  18
BRANCH  17  22
HETATM   22  C           1     -22.167  -6.671  -1.665  0.00  0.00     0.196 C 
HETATM   23  O           1     -22.769  -7.069  -0.643  0.00  0.00    -0.646 OA
HETATM   24  O           1     -22.249  -5.472  -2.010  0.00  0.00    -0.646 OA
ENDBRANCH  17  22
ENDBRANCH  14  17
ENDBRANCH   1  13
BRANCH   1  25
HETATM   25  N           1     -20.496  -6.727  -7.165  0.00  0.00    -0.066 N 
HETATM   26  H           1     -21.219  -7.477  -7.083  0.00  0.00     0.275 HD
HETATM   27  H           1     -19.602  -7.143  -7.510  0.00  0.00     0.275 HD
HETATM   28  H           1     -20.825  -5.999  -7.839  0.00  0.00     0.275 HD
ENDBRANCH   1  25
TORSDOF 9
ENDMDL
MODEL 4
REMARK VINA RESULT:      -6.7      1.999      2.812
REMARK  9 active torsions:
REMARK  status: ('A' for Active; 'I' for Inactive)
REMARK    1  A    between atoms: C_3  and  Se_16 
REMARK    2  A    between atoms: C_3  and  C_10 
REMARK    3  A    between atoms: C_7  and  C_8 
REMARK    4  A    between atoms: C_8  and  C_9 
REMARK    5  A    between atoms: C_9  and  C_11 
REMARK    6  A    between atoms: C_9  and  N_24 
REMARK    7  A    between atoms: C_10  and  C_20 
REMARK       I    between atoms: C_11  and  N_15 
REMARK    8  A    between atoms: N_15  and  C_20 
REMARK    9  A    between atoms: C_20  and  C_26 
ROOT
HETATM    1  C           1     -21.501  -6.127  -5.128  0.00  0.00     0.278 C 
ENDROOT
BRANCH   1   2
HETATM    2  C           1     -20.771  -5.254  -6.141  0.00  0.00     0.083 C 
BRANCH   2   3
HETATM    3  C           1     -21.737  -4.789  -7.187  0.00  0.00    -0.028 A 
HETATM    4  C           1     -23.078  -4.542  -7.000  0.00  0.00     0.096 A 
HETATM    5  N           1     -23.600  -4.137  -8.200  0.00  0.00    -0.365 N 
HETATM    6  H           1     -24.605  -3.880  -8.362  0.00  0.00     0.165 HD
HETATM    7  C           1     -22.618  -4.117  -9.165  0.00  0.00     0.042 A 
HETATM    8  C           1     -22.686  -3.773 -10.519  0.00  0.00     0.030 A 
HETATM    9  C           1     -21.433  -4.524  -8.550  0.00  0.00    -0.002 A 
HETATM   10  C           1     -21.507  -3.848 -11.266  0.00  0.00     0.002 A 
HETATM   11  C           1     -20.309  -4.252 -10.680  0.00  0.00     0.001 A 
HETATM   12  C           1     -20.257  -4.592  -9.324  0.00  0.00     0.014 A 
ENDBRANCH   2   3
ENDBRANCH   1   2
BRANCH   1  13
HETATM   13  C           1     -21.002  -7.548  -5.238  0.00  0.00     0.249 C 
HETATM   14  N           1     -20.298  -8.108  -4.207  0.00  0.00    -0.345 N 
HETATM   15  H           1     -20.111  -7.570  -3.371  0.00  0.00     0.163 HD
HETATM   16  O           1     -21.226  -8.191  -6.236  0.00  0.00    -0.271 OA
BRANCH  14  17
HETATM   17  C           1     -19.820  -9.473  -4.312  0.00  0.00     0.185 C 
BRANCH  17  18
HETATM   18  C           1     -18.299  -9.474  -4.393  0.00  0.00     0.036 C 
BRANCH  18  19
HETATM   19  C           1     -17.860 -10.026  -5.743  0.00  0.00     0.003 C 
BRANCH  19  20
HETATM   20 Se           1     -15.942 -10.369  -5.713  0.00  0.00     0.000 Se
HETATM   21  C           1     -16.069 -12.083  -6.632  0.00  0.00     0.000 C 
ENDBRANCH  19  20
ENDBRANCH  18  19
ENDBRANCH  17  18
BRANCH  17  22
HETATM   22  C           1     -20.259 -10.254  -3.099  0.00  0.00     0.196 C 
HETATM   23  O           1     -19.789  -9.979  -1.974  0.00  0.00    -0.646 OA
HETATM   24  O           1     -21.092 -11.179  -3.218  0.00  0.00    -0.646 OA
ENDBRANCH  17  22
ENDBRANCH  14  17
ENDBRANCH   1  13
BRANCH   1  25
HETATM   25  N           1     -21.238  -5.612  -3.745  0.00  0.00    -0.066 N 
HETATM   26  H           1     -21.973  -5.972  -3.094  0.00  0.00     0.275 HD
HETATM   27  H           1     -21.260  -4.568  -3.751  0.00  0.00     0.275 HD
HETATM   28  H           1     -20.299  -5.940  -3.424  0.00  0.00     0.275 HD
ENDBRANCH   1  25
TORSDOF 9
ENDMDL
MODEL 5
REMARK VINA RESULT:      -6.6      1.362      1.976
REMARK  9 active torsions:
REMARK  status: ('A' for Active; 'I' for Inactive)
REMARK    1  A    between atoms: C_3  and  Se_16 
REMARK    2  A    between atoms: C_3  and  C_10 
REMARK    3  A    between atoms: C_7  and  C_8 
REMARK    4  A    between atoms: C_8  and  C_9 
REMARK    5  A    between atoms: C_9  and  C_11 
REMARK    6  A    between atoms: C_9  and  N_24 
REMARK    7  A    between atoms: C_10  and  C_20 
REMARK       I    between atoms: C_11  and  N_15 
REMARK    8  A    between atoms: N_15  and  C_20 
REMARK    9  A    between atoms: C_20  and  C_26 
ROOT
HETATM    1  C           1     -21.794  -6.353  -5.950  0.00  0.00     0.278 C 
ENDROOT
BRANCH   1   2
HETATM    2  C           1     -20.963  -5.088  -6.126  0.00  0.00     0.083 C 
BRANCH   2   3
HETATM    3  C           1     -20.883  -4.742  -7.581  0.00  0.00    -0.028 A 
HETATM    4  C           1     -19.746  -4.759  -8.357  0.00  0.00     0.096 A 
HETATM    5  N           1     -20.100  -4.380  -9.624  0.00  0.00    -0.365 N 
HETATM    6  H           1     -19.437  -4.300 -10.435  0.00  0.00     0.165 HD
HETATM    7  C           1     -21.450  -4.117  -9.685  0.00  0.00     0.042 A 
HETATM    8  C           1     -22.245  -3.705 -10.760  0.00  0.00     0.030 A 
HETATM    9  C           1     -21.967  -4.339  -8.407  0.00  0.00    -0.002 A 
HETATM   10  C           1     -23.609  -3.515 -10.520  0.00  0.00     0.002 A 
HETATM   11  C           1     -24.154  -3.728  -9.256  0.00  0.00     0.001 A 
HETATM   12  C           1     -23.345  -4.140  -8.190  0.00  0.00     0.014 A 
ENDBRANCH   2   3
ENDBRANCH   1   2
BRANCH   1  13
HETATM   13  C           1     -20.902  -7.481  -5.489  0.00  0.00     0.249 C 
HETATM   14  N           1     -21.416  -8.488  -4.718  0.00  0.00    -0.345 N 
HETATM   15  H           1     -22.395  -8.477  -4.458  0.00  0.00     0.163 HD
HETATM   16  O           1     -19.735  -7.494  -5.800  0.00  0.00    -0.271 OA
BRANCH  14  17
HETATM   17  C           1     -20.561  -9.571  -4.275  0.00  0.00     0.185 C 
BRANCH  17  18
HETATM   18  C           1     -20.813  -9.847  -2.799  0.00  0.00     0.036 C 
BRANCH  18  19
HETATM   19  C           1     -20.278  -8.690  -1.965  0.00  0.00     0.003 C 
BRANCH  19  20
HETATM   20 Se           1     -21.551  -8.262  -0.553  0.00  0.00     0.000 Se
HETATM   21  C           1     -22.218  -6.648  -1.419  0.00  0.00     0.000 C 
ENDBRANCH  19  20
ENDBRANCH  18  19
ENDBRANCH  17  18
BRANCH  17  22
HETATM   22  C           1     -20.864 -10.812  -5.077  0.00  0.00     0.196 C 
HETATM   23  O           1     -21.124 -10.720  -6.297  0.00  0.00    -0.646 OA
HETATM   24  O           1     -20.857 -11.933  -4.523  0.00  0.00    -0.646 OA
ENDBRANCH  17  22
ENDBRANCH  14  17
ENDBRANCH   1  13
BRANCH   1  25
HETATM   25  N           1     -22.862  -6.110  -4.926  0.00  0.00    -0.066 N 
HETATM   26  H           1     -22.637  -5.244  -4.386  0.00  0.00     0.275 HD
HETATM   27  H           1     -22.910  -6.924  -4.273  0.00  0.00     0.275 HD
HETATM   28  H           1     -23.783  -5.991  -5.405  0.00  0.00     0.275 HD
ENDBRANCH   1  25
TORSDOF 9
ENDMDL
MODEL 6
REMARK VINA RESULT:      -6.5      2.481      3.395
REMARK  9 active torsions:
REMARK  status: ('A' for Active; 'I' for Inactive)
REMARK    1  A    between atoms: C_3  and  Se_16 
REMARK    2  A    between atoms: C_3  and  C_10 
REMARK    3  A    between atoms: C_7  and  C_8 
REMARK    4  A    between atoms: C_8  and  C_9 
REMARK    5  A    between atoms: C_9  and  C_11 
REMARK    6  A    between atoms: C_9  and  N_24 
REMARK    7  A    between atoms: C_10  and  C_20 
REMARK       I    between atoms: C_11  and  N_15 
REMARK    8  A    between atoms: N_15  and  C_20 
REMARK    9  A    between atoms: C_20  and  C_26 
ROOT
HETATM    1  C           1     -20.558  -6.139  -5.558  0.00  0.00     0.278 C 
ENDROOT
BRANCH   1   2
HETATM    2  C           1     -21.526  -5.251  -6.328  0.00  0.00     0.083 C 
BRANCH   2   3
HETATM    3  C           1     -20.842  -4.703  -7.543  0.00  0.00    -0.028 A 
HETATM    4  C           1     -19.549  -4.233  -7.603  0.00  0.00     0.096 A 
HETATM    5  N           1     -19.313  -3.826  -8.889  0.00  0.00    -0.365 N 
HETATM    6  H           1     -18.408  -3.420  -9.234  0.00  0.00     0.165 HD
HETATM    7  C           1     -20.433  -4.023  -9.666  0.00  0.00     0.042 A 
HETATM    8  C           1     -20.651  -3.757 -11.022  0.00  0.00     0.030 A 
HETATM    9  C           1     -21.412  -4.576  -8.839  0.00  0.00    -0.002 A 
HETATM   10  C           1     -21.910  -4.067 -11.547  0.00  0.00     0.002 A 
HETATM   11  C           1     -22.907  -4.620 -10.746  0.00  0.00     0.001 A 
HETATM   12  C           1     -22.671  -4.880  -9.391  0.00  0.00     0.014 A 
ENDBRANCH   2   3
ENDBRANCH   1   2
BRANCH   1  13
HETATM   13  C           1     -21.317  -6.931  -4.521  0.00  0.00     0.249 C 
HETATM   14  N           1     -20.856  -6.993  -3.234  0.00  0.00    -0.345 N 
HETATM   15  H           1     -20.006  -6.507  -2.977  0.00  0.00     0.163 HD
HETATM   16  O           1     -22.332  -7.509  -4.827  0.00  0.00    -0.271 OA
BRANCH  14  17
HETATM   17  C           1     -21.585  -7.753  -2.238  0.00  0.00     0.185 C 
BRANCH  17  18
HETATM   18  C           1     -20.608  -8.577  -1.411  0.00  0.00     0.036 C 
BRANCH  18  19
HETATM   19  C           1     -20.709 -10.043  -1.812  0.00  0.00     0.003 C 
BRANCH  19  20
HETATM   20 Se           1     -21.500 -11.064  -0.353  0.00  0.00     0.000 Se
HETATM   21  C           1     -20.878  -9.857   1.046  0.00  0.00     0.000 C 
ENDBRANCH  19  20
ENDBRANCH  18  19
ENDBRANCH  17  18
BRANCH  17  22
HETATM   22  C           1     -22.336  -6.808  -1.333  0.00  0.00     0.196 C 
HETATM   23  O           1     -22.342  -5.581  -1.577  0.00  0.00    -0.646 OA
HETATM   24  O           1     -22.952  -7.249  -0.339  0.00  0.00    -0.646 OA
ENDBRANCH  17  22
ENDBRANCH  14  17
ENDBRANCH   1  13
BRANCH   1  25
HETATM   25  N           1     -19.882  -7.081  -6.508  0.00  0.00    -0.066 N 
HETATM   26  H           1     -20.351  -7.033  -7.441  0.00  0.00     0.275 HD
HETATM   27  H           1     -19.945  -8.056  -6.137  0.00  0.00     0.275 HD
HETATM   28  H           1     -18.877  -6.811  -6.610  0.00  0.00     0.275 HD
ENDBRANCH   1  25
TORSDOF 9
ENDMDL
MODEL 7
REMARK VINA RESULT:      -6.4      2.842      4.423
REMARK  9 active torsions:
REMARK  status: ('A' for Active; 'I' for Inactive)
REMARK    1  A    between atoms: C_3  and  Se_16 
REMARK    2  A    between atoms: C_3  and  C_10 
REMARK    3  A    between atoms: C_7  and  C_8 
REMARK    4  A    between atoms: C_8  and  C_9 
REMARK    5  A    between atoms: C_9  and  C_11 
REMARK    6  A    between atoms: C_9  and  N_24 
REMARK    7  A    between atoms: C_10  and  C_20 
REMARK       I    between atoms: C_11  and  N_15 
REMARK    8  A    between atoms: N_15  and  C_20 
REMARK    9  A    between atoms: C_20  and  C_26 
ROOT
HETATM    1  C           1     -19.630  -8.458  -3.666  0.00  0.00     0.278 C 
ENDROOT
BRANCH   1   2
HETATM    2  C           1     -20.240  -8.581  -5.056  0.00  0.00     0.083 C 
BRANCH   2   3
HETATM    3  C           1     -21.052  -7.359  -5.354  0.00  0.00    -0.028 A 
HETATM    4  C           1     -22.312  -7.084  -4.871  0.00  0.00     0.096 A 
HETATM    5  N           1     -22.699  -5.873  -5.379  0.00  0.00    -0.365 N 
HETATM    6  H           1     -23.619  -5.405  -5.183  0.00  0.00     0.165 HD
HETATM    7  C           1     -21.710  -5.355  -6.186  0.00  0.00     0.042 A 
HETATM    8  C           1     -21.665  -4.157  -6.907  0.00  0.00     0.030 A 
HETATM    9  C           1     -20.660  -6.275  -6.186  0.00  0.00    -0.002 A 
HETATM   10  C           1     -20.511  -3.893  -7.650  0.00  0.00     0.002 A 
HETATM   11  C           1     -19.447  -4.792  -7.670  0.00  0.00     0.001 A 
HETATM   12  C           1     -19.507  -5.986  -6.942  0.00  0.00     0.014 A 
ENDBRANCH   2   3
ENDBRANCH   1   2
BRANCH   1  13
HETATM   13  C           1     -20.610  -8.971  -2.638  0.00  0.00     0.249 C 
HETATM   14  N           1     -20.701  -8.364  -1.415  0.00  0.00    -0.345 N 
HETATM   15  H           1     -20.111  -7.569  -1.200  0.00  0.00     0.163 HD
HETATM   16  O           1     -21.314  -9.918  -2.896  0.00  0.00    -0.271 OA
BRANCH  14  17
HETATM   17  C           1     -21.642  -8.856  -0.429  0.00  0.00     0.185 C 
BRANCH  17  18
HETATM   18  C           1     -20.904  -9.169   0.866  0.00  0.00     0.036 C 
BRANCH  18  19
HETATM   19  C           1     -20.613 -10.662   0.939  0.00  0.00     0.003 C 
BRANCH  19  20
HETATM   20 Se           1     -22.118 -11.655   0.200  0.00  0.00     0.000 Se
HETATM   21  C           1     -21.162 -13.352   0.103  0.00  0.00     0.000 C 
ENDBRANCH  19  20
ENDBRANCH  18  19
ENDBRANCH  17  18
BRANCH  17  22
HETATM   22  C           1     -22.692  -7.805  -0.167  0.00  0.00     0.196 C 
HETATM   23  O           1     -23.534  -7.975   0.742  0.00  0.00    -0.646 OA
HETATM   24  O           1     -22.722  -6.765  -0.859  0.00  0.00    -0.646 OA
ENDBRANCH  17  22
ENDBRANCH  14  17
ENDBRANCH   1  13
BRANCH   1  25
HETATM   25  N           1     -18.370  -9.268  -3.601  0.00  0.00    -0.066 N 
HETATM   26  H           1     -18.007  -9.427  -4.568  0.00  0.00     0.275 HD
HETATM   27  H           1     -18.569 -10.188  -3.148  0.00  0.00     0.275 HD
HETATM   28  H           1     -17.653  -8.752  -3.042  0.00  0.00     0.275 HD
ENDBRANCH   1  25
TORSDOF 9
ENDMDL
MODEL 8
REMARK VINA RESULT:      -6.3      1.741      2.287
REMARK  9 active torsions:
REMARK  status: ('A' for Active; 'I' for Inactive)
REMARK    1  A    between atoms: C_3  and  Se_16 
REMARK    2  A    between atoms: C_3  and  C_10 
REMARK    3  A    between atoms: C_7  and  C_8 
REMARK    4  A    between atoms: C_8  and  C_9 
REMARK    5  A    between atoms: C_9  and  C_11 
REMARK    6  A    between atoms: C_9  and  N_24 
REMARK    7  A    between atoms: C_10  and  C_20 
REMARK       I    between atoms: C_11  and  N_15 
REMARK    8  A    between atoms: N_15  and  C_20 
REMARK    9  A    between atoms: C_20  and  C_26 
ROOT
HETATM    1  C           1     -21.553  -6.513  -5.031  0.00  0.00     0.278 C 
ENDROOT
BRANCH   1   2
HETATM    2  C           1     -20.793  -6.067  -6.274  0.00  0.00     0.083 C 
BRANCH   2   3
HETATM    3  C           1     -21.700  -5.260  -7.150  0.00  0.00    -0.028 A 
HETATM    4  C           1     -22.972  -4.839  -6.833  0.00  0.00     0.096 A 
HETATM    5  N           1     -23.457  -4.132  -7.900  0.00  0.00    -0.365 N 
HETATM    6  H           1     -24.408  -3.688  -7.945  0.00  0.00     0.165 HD
HETATM    7  C           1     -22.519  -4.085  -8.908  0.00  0.00     0.042 A 
HETATM    8  C           1     -22.574  -3.480 -10.168  0.00  0.00     0.030 A 
HETATM    9  C           1     -21.401  -4.790  -8.458  0.00  0.00    -0.002 A 
HETATM   10  C           1     -21.451  -3.600 -10.992  0.00  0.00     0.002 A 
HETATM   11  C           1     -20.321  -4.298 -10.571  0.00  0.00     0.001 A 
HETATM   12  C           1     -20.282  -4.897  -9.307  0.00  0.00     0.014 A 
ENDBRANCH   2   3
ENDBRANCH   1   2
BRANCH   1  13
HETATM   13  C           1     -21.117  -7.907  -4.648  0.00  0.00     0.249 C 
HETATM   14  N           1     -20.817  -8.823  -5.620  0.00  0.00    -0.345 N 
HETATM   15  H           1     -20.887  -8.565  -6.596  0.00  0.00     0.163 HD
HETATM   16  O           1     -21.033  -8.214  -3.482  0.00  0.00    -0.271 OA
BRANCH  14  17
HETATM   17  C           1     -20.398 -10.161  -5.252  0.00  0.00     0.185 C 
BRANCH  17  18
HETATM   18  C           1     -21.158 -11.180  -6.090  0.00  0.00     0.036 C 
BRANCH  18  19
HETATM   19  C           1     -21.470 -12.406  -5.243  0.00  0.00     0.003 C 
BRANCH  19  20
HETATM   20 Se           1     -21.557 -11.895  -3.364  0.00  0.00     0.000 Se
HETATM   21  C           1     -22.739 -13.358  -2.852  0.00  0.00     0.000 C 
ENDBRANCH  19  20
ENDBRANCH  18  19
ENDBRANCH  17  18
BRANCH  17  22
HETATM   22  C           1     -18.918 -10.310  -5.500  0.00  0.00     0.196 C 
HETATM   23  O           1     -18.488 -10.420  -6.669  0.00  0.00    -0.646 OA
HETATM   24  O           1     -18.121 -10.326  -4.537  0.00  0.00    -0.646 OA
ENDBRANCH  17  22
ENDBRANCH  14  17
ENDBRANCH   1  13
BRANCH   1  25
HETATM   25  N           1     -21.260  -5.571  -3.902  0.00  0.00    -0.066 N 
HETATM   26  H           1     -20.921  -6.112  -3.075  0.00  0.00     0.275 HD
HETATM   27  H           1     -22.130  -5.052  -3.646  0.00  0.00     0.275 HD
HETATM   28  H           1     -20.523  -4.891  -4.198  0.00  0.00     0.275 HD
ENDBRANCH   1  25
TORSDOF 9
ENDMDL
MODEL 9
REMARK VINA RESULT:      -6.2      3.409      8.109
REMARK  9 active torsions:
REMARK  status: ('A' for Active; 'I' for Inactive)
REMARK    1  A    between atoms: C_3  and  Se_16 
REMARK    2  A    between atoms: C_3  and  C_10 
REMARK    3  A    between atoms: C_7  and  C_8 
REMARK    4  A    between atoms: C_8  and  C_9 
REMARK    5  A    between atoms: C_9  and  C_11 
REMARK    6  A    between atoms: C_9  and  N_24 
REMARK    7  A    between atoms: C_10  and  C_20 
REMARK       I    between atoms: C_11  and  N_15 
REMARK    8  A    between atoms: N_15  and  C_20 
REMARK    9  A    between atoms: C_20  and  C_26 
ROOT
HETATM    1  C           1     -21.094  -7.828  -4.968  0.00  0.00     0.278 C 
ENDROOT
BRANCH   1   2
HETATM    2  C           1     -19.979  -8.189  -3.996  0.00  0.00     0.083 C 
BRANCH   2   3
HETATM    3  C           1     -20.545  -8.982  -2.859  0.00  0.00    -0.028 A 
HETATM    4  C           1     -20.358 -10.327  -2.636  0.00  0.00     0.096 A 
HETATM    5  N           1     -21.041 -10.661  -1.496  0.00  0.00    -0.365 N 
HETATM    6  H           1     -21.080 -11.624  -1.079  0.00  0.00     0.165 HD
HETATM    7  C           1     -21.669  -9.552  -0.975  0.00  0.00     0.042 A 
HETATM    8  C           1     -22.470  -9.417   0.165  0.00  0.00     0.030 A 
HETATM    9  C           1     -21.372  -8.479  -1.817  0.00  0.00    -0.002 A 
HETATM   10  C           1     -22.980  -8.148   0.450  0.00  0.00     0.002 A 
HETATM   11  C           1     -22.700  -7.058  -0.372  0.00  0.00     0.001 A 
HETATM   12  C           1     -21.897  -7.210  -1.508  0.00  0.00     0.014 A 
ENDBRANCH   2   3
ENDBRANCH   1   2
BRANCH   1  13
HETATM   13  C           1     -20.785  -6.501  -5.619  0.00  0.00     0.249 C 
HETATM   14  N           1     -20.984  -6.334  -6.963  0.00  0.00    -0.345 N 
HETATM   15  H           1     -21.339  -7.101  -7.520  0.00  0.00     0.163 HD
HETATM   16  O           1     -20.361  -5.586  -4.953  0.00  0.00    -0.271 OA
BRANCH  14  17
HETATM   17  C           1     -20.687  -5.060  -7.588  0.00  0.00     0.185 C 
BRANCH  17  18
HETATM   18  C           1     -20.519  -5.257  -9.088  0.00  0.00     0.036 C 
BRANCH  18  19
HETATM   19  C           1     -20.456  -3.900  -9.777  0.00  0.00     0.003 C 
BRANCH  19  20
HETATM   20 Se           1     -21.247  -4.034 -11.552  0.00  0.00     0.000 Se
HETATM   21  C           1     -23.041  -4.432 -10.901  0.00  0.00     0.000 C 
ENDBRANCH  19  20
ENDBRANCH  18  19
ENDBRANCH  17  18
BRANCH  17  22
HETATM   22  C           1     -21.820  -4.098  -7.331  0.00  0.00     0.196 C 
HETATM   23  O           1     -21.575  -2.925  -6.972  0.00  0.00    -0.646 OA
HETATM   24  O           1     -23.003  -4.472  -7.476  0.00  0.00    -0.646 OA
ENDBRANCH  17  22
ENDBRANCH  14  17
ENDBRANCH   1  13
BRANCH   1  25
HETATM   25  N           1     -21.200  -8.888  -6.023  0.00  0.00    -0.066 N 
HETATM   26  H           1     -22.049  -8.715  -6.608  0.00  0.00     0.275 HD
HETATM   27  H           1     -21.275  -9.826  -5.570  0.00  0.00     0.275 HD
HETATM   28  H           1     -20.349  -8.861  -6.630  0.00  0.00     0.275 HD
ENDBRANCH   1  25
TORSDOF 9
ENDMDL
