MODEL 1
REMARK VINA RESULT:      -7.3      0.000      0.000
REMARK  15 active torsions:
REMARK  status: ('A' for Active; 'I' for Inactive)
REMARK    1  A    between atoms: N_4  and  C_12 
REMARK       I    between atoms: N_5  and  C_7 
REMARK       I    between atoms: N_6  and  C_7 
REMARK    2  A    between atoms: N_8  and  C_9 
REMARK    3  A    between atoms: C_9  and  C_10 
REMARK    4  A    between atoms: C_10  and  C_11 
REMARK    5  A    between atoms: C_11  and  C_12 
REMARK    6  A    between atoms: C_12  and  C_13 
REMARK       I    between atoms: C_13  and  N_14 
REMARK    7  A    between atoms: N_14  and  C_18 
REMARK    8  A    between atoms: C_17  and  C_18 
REMARK    9  A    between atoms: C_18  and  C_19 
REMARK   10  A    between atoms: C_19  and  C_20 
REMARK   11  A    between atoms: C_20  and  N_21 
REMARK   12  A    between atoms: N_21  and  C_25 
REMARK   13  A    between atoms: C_24  and  C_25 
REMARK   14  A    between atoms: C_25  and  C_26 
REMARK   15  A    between atoms: C_26  and  C_28 
REMARK       I    between atoms: N_27  and  C_28 
ROOT
HETATM    1  O           1     -22.409  -7.193  -4.770  0.00  0.00    -0.271 OA
HETATM    2  C           1     -21.576  -6.479  -4.266  0.00  0.00     0.249 C 
HETATM    3  N           1     -20.873  -5.596  -5.041  0.00  0.00    -0.345 N 
HETATM    4  H           1     -20.175  -4.997  -4.618  0.00  0.00     0.163 HD
ENDROOT
BRANCH   3   5
HETATM    5  C           1     -21.128  -5.516  -6.465  0.00  0.00     0.187 C 
BRANCH   5   6
HETATM    6  C           1     -19.816  -5.528  -7.212  0.00  0.00     0.196 C 
HETATM    7  O           1     -19.270  -4.451  -7.531  0.00  0.00    -0.646 OA
HETATM    8  O           1     -19.277  -6.616  -7.510  0.00  0.00    -0.646 OA
ENDBRANCH   5   6
BRANCH   5   9
HETATM    9  C           1     -21.879  -4.228  -6.776  0.00  0.00     0.066 C 
BRANCH   9  10
HETATM   10  C           1     -22.808  -4.454  -7.962  0.00  0.00     0.273 C 
BRANCH  10  11
HETATM   11  N           1     -23.132  -3.190  -8.566  0.00  0.00     0.099 N 
HETATM   12  H           1     -22.453  -2.488  -8.271  0.00  0.00     0.317 HD
BRANCH  11  13
HETATM   13  C           1     -23.060  -3.356  -9.992  0.00  0.00     0.328 C 
BRANCH  13  14
HETATM   14  C           1     -24.451  -3.538 -10.548  0.00  0.00     0.207 C 
HETATM   15  O           1     -25.438  -3.104  -9.915  0.00  0.00    -0.646 OA
HETATM   16  O           1     -24.616  -4.121 -11.641  0.00  0.00    -0.646 OA
ENDBRANCH  13  14
BRANCH  13  17
HETATM   17  C           1     -22.219  -4.583 -10.317  0.00  0.00     0.149 C 
BRANCH  17  18
HETATM   18  C           1     -20.905  -4.148 -10.920  0.00  0.00     0.217 C 
HETATM   19  N           1     -20.842  -3.002 -11.669  0.00  0.00    -0.370 N 
HETATM   20  H           1     -19.962  -2.711 -12.073  0.00  0.00     0.159 HD
HETATM   21  H           1     -21.676  -2.448 -11.817  0.00  0.00     0.159 HD
HETATM   22  O           1     -19.910  -4.809 -10.743  0.00  0.00    -0.274 OA
ENDBRANCH  17  18
ENDBRANCH  13  17
ENDBRANCH  11  13
ENDBRANCH  10  11
ENDBRANCH   9  10
ENDBRANCH   5   9
ENDBRANCH   3   5
BRANCH   2  23
HETATM   23  C           1     -21.309  -6.561  -2.784  0.00  0.00     0.274 C 
BRANCH  23  24
HETATM   24  N           1     -22.380  -5.817  -2.041  0.00  0.00    -0.067 N 
HETATM   25  H           1     -21.989  -5.441  -1.149  0.00  0.00     0.275 HD
HETATM   26  H           1     -22.727  -5.028  -2.631  0.00  0.00     0.275 HD
HETATM   27  H           1     -23.171  -6.467  -1.828  0.00  0.00     0.275 HD
ENDBRANCH  23  24
BRANCH  23  28
HETATM   28  C           1     -21.310  -8.020  -2.347  0.00  0.00     0.044 C 
BRANCH  28  29
HETATM   29  C           1     -20.350  -8.203  -1.179  0.00  0.00     0.023 C 
BRANCH  29  30
HETATM   30  C           1     -21.144  -8.459   0.095  0.00  0.00     0.138 C 
BRANCH  30  31
HETATM   31  N           1     -22.027  -9.618  -0.101  0.00  0.00    -0.227 N 
HETATM   32  C           1     -23.267  -9.517   0.134  0.00  0.00     0.665 C 
HETATM   33  N           1     -23.758  -8.387   0.548  0.00  0.00    -0.235 N 
HETATM   34  N           1     -24.026 -10.514  -0.035  0.00  0.00    -0.235 N 
HETATM   35  H           1     -24.782  -8.302   0.743  0.00  0.00     0.174 HD
HETATM   36  H           1     -23.131  -7.563   0.688  0.00  0.00     0.174 HD
HETATM   37  H           1     -25.055 -10.430   0.159  0.00  0.00     0.174 HD
HETATM   38  H           1     -23.630 -11.427  -0.370  0.00  0.00     0.174 HD
HETATM   39  H           1     -21.629 -10.530  -0.436  0.00  0.00     0.177 HD
ENDBRANCH  30  31
ENDBRANCH  29  30
ENDBRANCH  28  29
ENDBRANCH  23  28
ENDBRANCH   2  23
TORSDOF 15
ENDMDL
MODEL 2
REMARK VINA RESULT:      -6.8      3.617      8.775
REMARK  15 active torsions:
REMARK  status: ('A' for Active; 'I' for Inactive)
REMARK    1  A    between atoms: N_4  and  C_12 
REMARK       I    between atoms: N_5  and  C_7 
REMARK       I    between atoms: N_6  and  C_7 
REMARK    2  A    between atoms: N_8  and  C_9 
REMARK    3  A    between atoms: C_9  and  C_10 
REMARK    4  A    between atoms: C_10  and  C_11 
REMARK    5  A    between atoms: C_11  and  C_12 
REMARK    6  A    between atoms: C_12  and  C_13 
REMARK       I    between atoms: C_13  and  N_14 
REMARK    7  A    between atoms: N_14  and  C_18 
REMARK    8  A    between atoms: C_17  and  C_18 
REMARK    9  A    between atoms: C_18  and  C_19 
REMARK   10  A    between atoms: C_19  and  C_20 
REMARK   11  A    between atoms: C_20  and  N_21 
REMARK   12  A    between atoms: N_21  and  C_25 
REMARK   13  A    between atoms: C_24  and  C_25 
REMARK   14  A    between atoms: C_25  and  C_26 
REMARK   15  A    between atoms: C_26  and  C_28 
REMARK       I    between atoms: N_27  and  C_28 
ROOT
HETATM    1  O           1     -21.119  -8.056  -5.247  0.00  0.00    -0.271 OA
HETATM    2  C           1     -20.877  -6.919  -4.917  0.00  0.00     0.249 C 
HETATM    3  N           1     -20.917  -6.569  -3.594  0.00  0.00    -0.345 N 
HETATM    4  H           1     -20.715  -5.616  -3.317  0.00  0.00     0.163 HD
ENDROOT
BRANCH   3   5
HETATM    5  C           1     -21.248  -7.560  -2.590  0.00  0.00     0.187 C 
BRANCH   5   6
HETATM    6  C           1     -22.174  -6.948  -1.566  0.00  0.00     0.196 C 
HETATM    7  O           1     -22.527  -7.612  -0.569  0.00  0.00    -0.646 OA
HETATM    8  O           1     -22.586  -5.778  -1.717  0.00  0.00    -0.646 OA
ENDBRANCH   5   6
BRANCH   5   9
HETATM    9  C           1     -19.973  -8.034  -1.904  0.00  0.00     0.066 C 
BRANCH   9  10
HETATM   10  C           1     -19.585  -9.404  -2.443  0.00  0.00     0.273 C 
BRANCH  10  11
HETATM   11  N           1     -18.616  -9.249  -3.496  0.00  0.00     0.099 N 
HETATM   12  H           1     -18.038  -8.430  -3.308  0.00  0.00     0.317 HD
BRANCH  11  13
HETATM   13  C           1     -17.791 -10.426  -3.507  0.00  0.00     0.328 C 
BRANCH  13  14
HETATM   14  C           1     -16.572 -10.192  -2.648  0.00  0.00     0.207 C 
HETATM   15  O           1     -15.859  -9.184  -2.836  0.00  0.00    -0.646 OA
HETATM   16  O           1     -16.277 -11.008  -1.748  0.00  0.00    -0.646 OA
ENDBRANCH  13  14
BRANCH  13  17
HETATM   17  C           1     -17.356 -10.727  -4.935  0.00  0.00     0.149 C 
BRANCH  17  18
HETATM   18  C           1     -18.340 -10.113  -5.901  0.00  0.00     0.217 C 
HETATM   19  N           1     -19.508 -10.766  -6.194  0.00  0.00    -0.370 N 
HETATM   20  H           1     -20.168 -10.354  -6.841  0.00  0.00     0.159 HD
HETATM   21  H           1     -19.711 -11.658  -5.763  0.00  0.00     0.159 HD
HETATM   22  O           1     -18.098  -9.047  -6.415  0.00  0.00    -0.274 OA
ENDBRANCH  17  18
ENDBRANCH  13  17
ENDBRANCH  11  13
ENDBRANCH  10  11
ENDBRANCH   9  10
ENDBRANCH   5   9
ENDBRANCH   3   5
BRANCH   2  23
HETATM   23  C           1     -20.534  -5.886  -5.962  0.00  0.00     0.274 C 
BRANCH  23  24
HETATM   24  N           1     -19.771  -6.539  -7.077  0.00  0.00    -0.067 N 
HETATM   25  H           1     -19.303  -5.806  -7.655  0.00  0.00     0.275 HD
HETATM   26  H           1     -19.051  -7.181  -6.676  0.00  0.00     0.275 HD
HETATM   27  H           1     -20.431  -7.086  -7.677  0.00  0.00     0.275 HD
ENDBRANCH  23  24
BRANCH  23  28
HETATM   28  C           1     -21.816  -5.276  -6.514  0.00  0.00     0.044 C 
BRANCH  28  29
HETATM   29  C           1     -21.491  -3.974  -7.233  0.00  0.00     0.023 C 
BRANCH  29  30
HETATM   30  C           1     -22.012  -4.039  -8.662  0.00  0.00     0.138 C 
BRANCH  30  31
HETATM   31  N           1     -23.403  -3.563  -8.700  0.00  0.00    -0.227 N 
HETATM   32  C           1     -24.190  -3.977  -9.601  0.00  0.00     0.665 C 
HETATM   33  N           1     -23.768  -4.824 -10.493  0.00  0.00    -0.235 N 
HETATM   34  N           1     -25.387  -3.567  -9.632  0.00  0.00    -0.235 N 
HETATM   35  H           1     -24.417  -5.166 -11.237  0.00  0.00     0.174 HD
HETATM   36  H           1     -22.780  -5.162 -10.467  0.00  0.00     0.174 HD
HETATM   37  H           1     -26.040  -3.911 -10.380  0.00  0.00     0.174 HD
HETATM   38  H           1     -25.728  -2.884  -8.912  0.00  0.00     0.174 HD
HETATM   39  H           1     -23.744  -2.880  -7.979  0.00  0.00     0.177 HD
ENDBRANCH  30  31
ENDBRANCH  29  30
ENDBRANCH  28  29
ENDBRANCH  23  28
ENDBRANCH   2  23
TORSDOF 15
ENDMDL
MODEL 3
REMARK VINA RESULT:      -6.8      3.117      8.916
REMARK  15 active torsions:
REMARK  status: ('A' for Active; 'I' for Inactive)
REMARK    1  A    between atoms: N_4  and  C_12 
REMARK       I    between atoms: N_5  and  C_7 
REMARK       I    between atoms: N_6  and  C_7 
REMARK    2  A    between atoms: N_8  and  C_9 
REMARK    3  A    between atoms: C_9  and  C_10 
REMARK    4  A    between atoms: C_10  and  C_11 
REMARK    5  A    between atoms: C_11  and  C_12 
REMARK    6  A    between atoms: C_12  and  C_13 
REMARK       I    between atoms: C_13  and  N_14 
REMARK    7  A    between atoms: N_14  and  C_18 
REMARK    8  A    between atoms: C_17  and  C_18 
REMARK    9  A    between atoms: C_18  and  C_19 
REMARK   10  A    between atoms: C_19  and  C_20 
REMARK   11  A    between atoms: C_20  and  N_21 
REMARK   12  A    between atoms: N_21  and  C_25 
REMARK   13  A    between atoms: C_24  and  C_25 
REMARK   14  A    between atoms: C_25  and  C_26 
REMARK   15  A    between atoms: C_26  and  C_28 
REMARK       I    between atoms: N_27  and  C_28 
ROOT
HETATM    1  O           1     -19.673  -7.436  -6.355  0.00  0.00    -0.271 OA
HETATM    2  C           1     -20.463  -7.254  -5.460  0.00  0.00     0.249 C 
HETATM    3  N           1     -20.554  -8.157  -4.435  0.00  0.00    -0.345 N 
HETATM    4  H           1     -21.217  -8.004  -3.684  0.00  0.00     0.163 HD
ENDROOT
BRANCH   3   5
HETATM    5  C           1     -19.703  -9.329  -4.421  0.00  0.00     0.187 C 
BRANCH   5   6
HETATM    6  C           1     -20.497 -10.532  -4.870  0.00  0.00     0.196 C 
HETATM    7  O           1     -21.148 -11.197  -4.036  0.00  0.00    -0.646 OA
HETATM    8  O           1     -20.504 -10.861  -6.076  0.00  0.00    -0.646 OA
ENDBRANCH   5   6
BRANCH   5   9
HETATM    9  C           1     -19.180  -9.562  -3.009  0.00  0.00     0.066 C 
BRANCH   9  10
HETATM   10  C           1     -19.943  -8.676  -2.033  0.00  0.00     0.273 C 
BRANCH  10  11
HETATM   11  N           1     -20.752  -9.497  -1.172  0.00  0.00     0.099 N 
HETATM   12  H           1     -20.426  -9.405  -0.209  0.00  0.00     0.317 HD
BRANCH  11  13
HETATM   13  C           1     -22.107  -9.026  -1.267  0.00  0.00     0.328 C 
BRANCH  13  14
HETATM   14  C           1     -22.239  -7.723  -0.518  0.00  0.00     0.207 C 
HETATM   15  O           1     -22.600  -6.689  -1.121  0.00  0.00    -0.646 OA
HETATM   16  O           1     -21.987  -7.677   0.706  0.00  0.00    -0.646 OA
ENDBRANCH  13  14
BRANCH  13  17
HETATM   17  C           1     -23.046 -10.059  -0.659  0.00  0.00     0.149 C 
BRANCH  17  18
HETATM   18  C           1     -22.362 -11.405  -0.628  0.00  0.00     0.217 C 
HETATM   19  N           1     -22.544 -12.288  -1.659  0.00  0.00    -0.370 N 
HETATM   20  H           1     -22.086 -13.190  -1.638  0.00  0.00     0.159 HD
HETATM   21  H           1     -23.136 -12.039  -2.441  0.00  0.00     0.159 HD
HETATM   22  O           1     -21.656 -11.702   0.306  0.00  0.00    -0.274 OA
ENDBRANCH  17  18
ENDBRANCH  13  17
ENDBRANCH  11  13
ENDBRANCH  10  11
ENDBRANCH   9  10
ENDBRANCH   5   9
ENDBRANCH   3   5
BRANCH   2  23
HETATM   23  C           1     -21.351  -6.034  -5.473  0.00  0.00     0.274 C 
BRANCH  23  24
HETATM   24  N           1     -22.052  -5.912  -4.152  0.00  0.00    -0.067 N 
HETATM   25  H           1     -22.639  -5.048  -4.147  0.00  0.00     0.275 HD
HETATM   26  H           1     -22.660  -6.749  -4.003  0.00  0.00     0.275 HD
HETATM   27  H           1     -21.342  -5.856  -3.385  0.00  0.00     0.275 HD
ENDBRANCH  23  24
BRANCH  23  28
HETATM   28  C           1     -20.503  -4.792  -5.713  0.00  0.00     0.044 C 
BRANCH  28  29
HETATM   29  C           1     -21.144  -3.940  -6.800  0.00  0.00     0.023 C 
BRANCH  29  30
HETATM   30  C           1     -22.110  -4.793  -7.611  0.00  0.00     0.138 C 
BRANCH  30  31
HETATM   31  N           1     -23.354  -4.043  -7.840  0.00  0.00    -0.227 N 
HETATM   32  C           1     -23.818  -3.929  -9.012  0.00  0.00     0.665 C 
HETATM   33  N           1     -23.194  -4.475 -10.013  0.00  0.00    -0.235 N 
HETATM   34  N           1     -24.889  -3.284  -9.209  0.00  0.00    -0.235 N 
HETATM   35  H           1     -23.577  -4.382 -10.982  0.00  0.00     0.174 HD
HETATM   36  H           1     -22.310  -5.008  -9.851  0.00  0.00     0.174 HD
HETATM   37  H           1     -25.274  -3.190 -10.182  0.00  0.00     0.174 HD
HETATM   38  H           1     -25.393  -2.843  -8.401  0.00  0.00     0.174 HD
HETATM   39  H           1     -23.858  -3.602  -7.031  0.00  0.00     0.177 HD
ENDBRANCH  30  31
ENDBRANCH  29  30
ENDBRANCH  28  29
ENDBRANCH  23  28
ENDBRANCH   2  23
TORSDOF 15
ENDMDL
MODEL 4
REMARK VINA RESULT:      -6.8      3.481      8.892
REMARK  15 active torsions:
REMARK  status: ('A' for Active; 'I' for Inactive)
REMARK    1  A    between atoms: N_4  and  C_12 
REMARK       I    between atoms: N_5  and  C_7 
REMARK       I    between atoms: N_6  and  C_7 
REMARK    2  A    between atoms: N_8  and  C_9 
REMARK    3  A    between atoms: C_9  and  C_10 
REMARK    4  A    between atoms: C_10  and  C_11 
REMARK    5  A    between atoms: C_11  and  C_12 
REMARK    6  A    between atoms: C_12  and  C_13 
REMARK       I    between atoms: C_13  and  N_14 
REMARK    7  A    between atoms: N_14  and  C_18 
REMARK    8  A    between atoms: C_17  and  C_18 
REMARK    9  A    between atoms: C_18  and  C_19 
REMARK   10  A    between atoms: C_19  and  C_20 
REMARK   11  A    between atoms: C_20  and  N_21 
REMARK   12  A    between atoms: N_21  and  C_25 
REMARK   13  A    between atoms: C_24  and  C_25 
REMARK   14  A    between atoms: C_25  and  C_26 
REMARK   15  A    between atoms: C_26  and  C_28 
REMARK       I    between atoms: N_27  and  C_28 
ROOT
HETATM    1  O           1     -22.331  -7.396  -5.099  0.00  0.00    -0.271 OA
HETATM    2  C           1     -21.372  -6.701  -4.861  0.00  0.00     0.249 C 
HETATM    3  N           1     -20.744  -6.793  -3.648  0.00  0.00    -0.345 N 
HETATM    4  H           1     -19.941  -6.210  -3.449  0.00  0.00     0.163 HD
ENDROOT
BRANCH   3   5
HETATM    5  C           1     -21.229  -7.724  -2.649  0.00  0.00     0.187 C 
BRANCH   5   6
HETATM    6  C           1     -21.991  -6.969  -1.587  0.00  0.00     0.196 C 
HETATM    7  O           1     -22.520  -5.870  -1.860  0.00  0.00    -0.646 OA
HETATM    8  O           1     -22.093  -7.443  -0.435  0.00  0.00    -0.646 OA
ENDBRANCH   5   6
BRANCH   5   9
HETATM    9  C           1     -20.049  -8.447  -2.012  0.00  0.00     0.066 C 
BRANCH   9  10
HETATM   10  C           1     -20.033  -9.898  -2.472  0.00  0.00     0.273 C 
BRANCH  10  11
HETATM   11  N           1     -18.672 -10.341  -2.617  0.00  0.00     0.099 N 
HETATM   12  H           1     -18.659 -11.264  -3.051  0.00  0.00     0.317 HD
BRANCH  11  13
HETATM   13  C           1     -17.994  -9.401  -3.467  0.00  0.00     0.328 C 
BRANCH  13  14
HETATM   14  C           1     -18.322  -9.701  -4.909  0.00  0.00     0.207 C 
HETATM   15  O           1     -17.962 -10.785  -5.419  0.00  0.00    -0.646 OA
HETATM   16  O           1     -18.952  -8.867  -5.594  0.00  0.00    -0.646 OA
ENDBRANCH  13  14
BRANCH  13  17
HETATM   17  C           1     -16.491  -9.515  -3.252  0.00  0.00     0.149 C 
BRANCH  17  18
HETATM   18  C           1     -16.168 -10.868  -2.666  0.00  0.00     0.217 C 
HETATM   19  N           1     -15.826 -11.907  -3.491  0.00  0.00    -0.370 N 
HETATM   20  H           1     -15.610 -12.814  -3.098  0.00  0.00     0.159 HD
HETATM   21  H           1     -15.791 -11.768  -4.492  0.00  0.00     0.159 HD
HETATM   22  O           1     -16.210 -11.034  -1.470  0.00  0.00    -0.274 OA
ENDBRANCH  17  18
ENDBRANCH  13  17
ENDBRANCH  11  13
ENDBRANCH  10  11
ENDBRANCH   9  10
ENDBRANCH   5   9
ENDBRANCH   3   5
BRANCH   2  23
HETATM   23  C           1     -20.866  -5.731  -5.900  0.00  0.00     0.274 C 
BRANCH  23  24
HETATM   24  N           1     -20.047  -6.470  -6.917  0.00  0.00    -0.067 N 
HETATM   25  H           1     -20.547  -6.468  -7.835  0.00  0.00     0.275 HD
HETATM   26  H           1     -19.120  -6.000  -7.024  0.00  0.00     0.275 HD
HETATM   27  H           1     -19.904  -7.456  -6.600  0.00  0.00     0.275 HD
ENDBRANCH  23  24
BRANCH  23  28
HETATM   28  C           1     -22.050  -5.064  -6.591  0.00  0.00     0.044 C 
BRANCH  28  29
HETATM   29  C           1     -21.563  -3.861  -7.386  0.00  0.00     0.023 C 
BRANCH  29  30
HETATM   30  C           1     -22.154  -3.906  -8.789  0.00  0.00     0.138 C 
BRANCH  30  31
HETATM   31  N           1     -23.579  -3.549  -8.734  0.00  0.00    -0.227 N 
HETATM   32  C           1     -24.333  -3.798  -9.719  0.00  0.00     0.665 C 
HETATM   33  N           1     -23.848  -4.372 -10.780  0.00  0.00    -0.235 N 
HETATM   34  N           1     -25.560  -3.491  -9.670  0.00  0.00    -0.235 N 
HETATM   35  H           1     -24.470  -4.578 -11.594  0.00  0.00     0.174 HD
HETATM   36  H           1     -22.835  -4.626 -10.820  0.00  0.00     0.174 HD
HETATM   37  H           1     -26.186  -3.699 -10.488  0.00  0.00     0.174 HD
HETATM   38  H           1     -25.952  -3.028  -8.814  0.00  0.00     0.174 HD
HETATM   39  H           1     -23.971  -3.086  -7.876  0.00  0.00     0.177 HD
ENDBRANCH  30  31
ENDBRANCH  29  30
ENDBRANCH  28  29
ENDBRANCH  23  28
ENDBRANCH   2  23
TORSDOF 15
ENDMDL
MODEL 5
REMARK VINA RESULT:      -6.5      3.376      9.038
REMARK  15 active torsions:
REMARK  status: ('A' for Active; 'I' for Inactive)
REMARK    1  A    between atoms: N_4  and  C_12 
REMARK       I    between atoms: N_5  and  C_7 
REMARK       I    between atoms: N_6  and  C_7 
REMARK    2  A    between atoms: N_8  and  C_9 
REMARK    3  A    between atoms: C_9  and  C_10 
REMARK    4  A    between atoms: C_10  and  C_11 
REMARK    5  A    between atoms: C_11  and  C_12 
REMARK    6  A    between atoms: C_12  and  C_13 
REMARK       I    between atoms: C_13  and  N_14 
REMARK    7  A    between atoms: N_14  and  C_18 
REMARK    8  A    between atoms: C_17  and  C_18 
REMARK    9  A    between atoms: C_18  and  C_19 
REMARK   10  A    between atoms: C_19  and  C_20 
REMARK   11  A    between atoms: C_20  and  N_21 
REMARK   12  A    between atoms: N_21  and  C_25 
REMARK   13  A    between atoms: C_24  and  C_25 
REMARK   14  A    between atoms: C_25  and  C_26 
REMARK   15  A    between atoms: C_26  and  C_28 
REMARK       I    between atoms: N_27  and  C_28 
ROOT
HETATM    1  O           1     -21.275  -6.694  -3.887  0.00  0.00    -0.271 OA
HETATM    2  C           1     -20.895  -6.691  -5.033  0.00  0.00     0.249 C 
HETATM    3  N           1     -20.217  -7.771  -5.532  0.00  0.00    -0.345 N 
HETATM    4  H           1     -19.898  -7.768  -6.493  0.00  0.00     0.163 HD
ENDROOT
BRANCH   3   5
HETATM    5  C           1     -19.958  -8.918  -4.686  0.00  0.00     0.187 C 
BRANCH   5   6
HETATM    6  C           1     -18.945  -9.816  -5.355  0.00  0.00     0.196 C 
HETATM    7  O           1     -19.315 -10.639  -6.219  0.00  0.00    -0.646 OA
HETATM    8  O           1     -17.737  -9.735  -5.044  0.00  0.00    -0.646 OA
ENDBRANCH   5   6
BRANCH   5   9
HETATM    9  C           1     -21.252  -9.689  -4.463  0.00  0.00     0.066 C 
BRANCH   9  10
HETATM   10  C           1     -21.262 -10.270  -3.055  0.00  0.00     0.273 C 
BRANCH  10  11
HETATM   11  N           1     -21.776  -9.291  -2.135  0.00  0.00     0.099 N 
HETATM   12  H           1     -22.790  -9.384  -2.071  0.00  0.00     0.317 HD
BRANCH  11  13
HETATM   13  C           1     -21.188  -9.548  -0.849  0.00  0.00     0.328 C 
BRANCH  13  14
HETATM   14  C           1     -21.972 -10.628  -0.145  0.00  0.00     0.207 C 
HETATM   15  O           1     -21.423 -11.327   0.733  0.00  0.00    -0.646 OA
HETATM   16  O           1     -23.172 -10.822  -0.441  0.00  0.00    -0.646 OA
ENDBRANCH  13  14
BRANCH  13  17
HETATM   17  C           1     -21.215  -8.274  -0.016  0.00  0.00     0.149 C 
BRANCH  17  18
HETATM   18  C           1     -22.551  -7.591  -0.184  0.00  0.00     0.217 C 
HETATM   19  N           1     -23.621  -7.984   0.575  0.00  0.00    -0.370 N 
HETATM   20  H           1     -24.516  -7.526   0.462  0.00  0.00     0.159 HD
HETATM   21  H           1     -23.516  -8.733   1.248  0.00  0.00     0.159 HD
HETATM   22  O           1     -22.675  -6.698  -0.987  0.00  0.00    -0.274 OA
ENDBRANCH  17  18
ENDBRANCH  13  17
ENDBRANCH  11  13
ENDBRANCH  10  11
ENDBRANCH   9  10
ENDBRANCH   5   9
ENDBRANCH   3   5
BRANCH   2  23
HETATM   23  C           1     -21.164  -5.496  -5.915  0.00  0.00     0.274 C 
BRANCH  23  24
HETATM   24  N           1     -20.129  -4.441  -5.657  0.00  0.00    -0.067 N 
HETATM   25  H           1     -19.428  -4.802  -4.971  0.00  0.00     0.275 HD
HETATM   26  H           1     -19.649  -4.199  -6.553  0.00  0.00     0.275 HD
HETATM   27  H           1     -20.591  -3.588  -5.267  0.00  0.00     0.275 HD
ENDBRANCH  23  24
BRANCH  23  28
HETATM   28  C           1     -21.101  -5.920  -7.377  0.00  0.00     0.044 C 
BRANCH  28  29
HETATM   29  C           1     -20.375  -4.853  -8.185  0.00  0.00     0.023 C 
BRANCH  29  30
HETATM   30  C           1     -21.230  -4.449  -9.379  0.00  0.00     0.138 C 
BRANCH  30  31
HETATM   31  N           1     -22.404  -3.699  -8.910  0.00  0.00    -0.227 N 
HETATM   32  C           1     -23.547  -3.943  -9.395  0.00  0.00     0.665 C 
HETATM   33  N           1     -23.683  -4.858 -10.308  0.00  0.00    -0.235 N 
HETATM   34  N           1     -24.557  -3.297  -8.990  0.00  0.00    -0.235 N 
HETATM   35  H           1     -24.627  -5.060 -10.709  0.00  0.00     0.174 HD
HETATM   36  H           1     -22.849  -5.392 -10.642  0.00  0.00     0.174 HD
HETATM   37  H           1     -25.506  -3.500  -9.392  0.00  0.00     0.174 HD
HETATM   38  H           1     -24.448  -2.558  -8.252  0.00  0.00     0.174 HD
HETATM   39  H           1     -22.294  -2.960  -8.171  0.00  0.00     0.177 HD
ENDBRANCH  30  31
ENDBRANCH  29  30
ENDBRANCH  28  29
ENDBRANCH  23  28
ENDBRANCH   2  23
TORSDOF 15
ENDMDL
MODEL 6
REMARK VINA RESULT:      -6.5      3.240      9.723
REMARK  15 active torsions:
REMARK  status: ('A' for Active; 'I' for Inactive)
REMARK    1  A    between atoms: N_4  and  C_12 
REMARK       I    between atoms: N_5  and  C_7 
REMARK       I    between atoms: N_6  and  C_7 
REMARK    2  A    between atoms: N_8  and  C_9 
REMARK    3  A    between atoms: C_9  and  C_10 
REMARK    4  A    between atoms: C_10  and  C_11 
REMARK    5  A    between atoms: C_11  and  C_12 
REMARK    6  A    between atoms: C_12  and  C_13 
REMARK       I    between atoms: C_13  and  N_14 
REMARK    7  A    between atoms: N_14  and  C_18 
REMARK    8  A    between atoms: C_17  and  C_18 
REMARK    9  A    between atoms: C_18  and  C_19 
REMARK   10  A    between atoms: C_19  and  C_20 
REMARK   11  A    between atoms: C_20  and  N_21 
REMARK   12  A    between atoms: N_21  and  C_25 
REMARK   13  A    between atoms: C_24  and  C_25 
REMARK   14  A    between atoms: C_25  and  C_26 
REMARK   15  A    between atoms: C_26  and  C_28 
REMARK       I    between atoms: N_27  and  C_28 
ROOT
HETATM    1  O           1     -21.285  -8.012  -5.225  0.00  0.00    -0.271 OA
HETATM    2  C           1     -21.018  -6.876  -4.915  0.00  0.00     0.249 C 
HETATM    3  N           1     -21.065  -6.497  -3.601  0.00  0.00    -0.345 N 
HETATM    4  H           1     -20.841  -5.544  -3.341  0.00  0.00     0.163 HD
ENDROOT
BRANCH   3   5
HETATM    5  C           1     -21.434  -7.457  -2.581  0.00  0.00     0.187 C 
BRANCH   5   6
HETATM    6  C           1     -22.209  -6.759  -1.490  0.00  0.00     0.196 C 
HETATM    7  O           1     -22.439  -5.533  -1.575  0.00  0.00    -0.646 OA
HETATM    8  O           1     -22.620  -7.406  -0.503  0.00  0.00    -0.646 OA
ENDBRANCH   5   6
BRANCH   5   9
HETATM    9  C           1     -20.175  -8.082  -1.991  0.00  0.00     0.066 C 
BRANCH   9  10
HETATM   10  C           1     -20.339  -9.594  -1.929  0.00  0.00     0.273 C 
BRANCH  10  11
HETATM   11  N           1     -20.890  -9.965  -0.653  0.00  0.00     0.099 N 
HETATM   12  H           1     -21.537  -9.241  -0.338  0.00  0.00     0.317 HD
BRANCH  11  13
HETATM   13  C           1     -21.603 -11.201  -0.827  0.00  0.00     0.328 C 
BRANCH  13  14
HETATM   14  C           1     -23.072 -10.912  -1.016  0.00  0.00     0.207 C 
HETATM   15  O           1     -23.623 -11.166  -2.109  0.00  0.00    -0.646 OA
HETATM   16  O           1     -23.737 -10.417  -0.080  0.00  0.00    -0.646 OA
ENDBRANCH  13  14
BRANCH  13  17
HETATM   17  C           1     -21.412 -12.075   0.406  0.00  0.00     0.149 C 
BRANCH  17  18
HETATM   18  C           1     -20.200 -12.955   0.216  0.00  0.00     0.217 C 
HETATM   19  N           1     -20.281 -14.296   0.483  0.00  0.00    -0.370 N 
HETATM   20  H           1     -19.469 -14.886   0.355  0.00  0.00     0.159 HD
HETATM   21  H           1     -21.152 -14.696   0.807  0.00  0.00     0.159 HD
HETATM   22  O           1     -19.161 -12.477  -0.171  0.00  0.00    -0.274 OA
ENDBRANCH  17  18
ENDBRANCH  13  17
ENDBRANCH  11  13
ENDBRANCH  10  11
ENDBRANCH   9  10
ENDBRANCH   5   9
ENDBRANCH   3   5
BRANCH   2  23
HETATM   23  C           1     -20.634  -5.874  -5.977  0.00  0.00     0.274 C 
BRANCH  23  24
HETATM   24  N           1     -19.874  -6.570  -7.068  0.00  0.00    -0.067 N 
HETATM   25  H           1     -20.398  -7.422  -7.369  0.00  0.00     0.275 HD
HETATM   26  H           1     -19.763  -5.922  -7.881  0.00  0.00     0.275 HD
HETATM   27  H           1     -18.930  -6.848  -6.713  0.00  0.00     0.275 HD
ENDBRANCH  23  24
BRANCH  23  28
HETATM   28  C           1     -21.893  -5.244  -6.559  0.00  0.00     0.044 C 
BRANCH  28  29
HETATM   29  C           1     -21.535  -3.932  -7.244  0.00  0.00     0.023 C 
BRANCH  29  30
HETATM   30  C           1     -22.024  -3.962  -8.686  0.00  0.00     0.138 C 
BRANCH  30  31
HETATM   31  N           1     -23.421  -3.510  -8.740  0.00  0.00    -0.227 N 
HETATM   32  C           1     -24.212  -3.998  -9.599  0.00  0.00     0.665 C 
HETATM   33  N           1     -23.788  -4.900 -10.434  0.00  0.00    -0.235 N 
HETATM   34  N           1     -25.416  -3.609  -9.645  0.00  0.00    -0.235 N 
HETATM   35  H           1     -24.441  -5.304 -11.144  0.00  0.00     0.174 HD
HETATM   36  H           1     -22.795  -5.222 -10.396  0.00  0.00     0.174 HD
HETATM   37  H           1     -26.072  -4.014 -10.357  0.00  0.00     0.174 HD
HETATM   38  H           1     -25.759  -2.881  -8.971  0.00  0.00     0.174 HD
HETATM   39  H           1     -23.764  -2.782  -8.065  0.00  0.00     0.177 HD
ENDBRANCH  30  31
ENDBRANCH  29  30
ENDBRANCH  28  29
ENDBRANCH  23  28
ENDBRANCH   2  23
TORSDOF 15
ENDMDL
MODEL 7
REMARK VINA RESULT:      -6.5      3.633      8.987
REMARK  15 active torsions:
REMARK  status: ('A' for Active; 'I' for Inactive)
REMARK    1  A    between atoms: N_4  and  C_12 
REMARK       I    between atoms: N_5  and  C_7 
REMARK       I    between atoms: N_6  and  C_7 
REMARK    2  A    between atoms: N_8  and  C_9 
REMARK    3  A    between atoms: C_9  and  C_10 
REMARK    4  A    between atoms: C_10  and  C_11 
REMARK    5  A    between atoms: C_11  and  C_12 
REMARK    6  A    between atoms: C_12  and  C_13 
REMARK       I    between atoms: C_13  and  N_14 
REMARK    7  A    between atoms: N_14  and  C_18 
REMARK    8  A    between atoms: C_17  and  C_18 
REMARK    9  A    between atoms: C_18  and  C_19 
REMARK   10  A    between atoms: C_19  and  C_20 
REMARK   11  A    between atoms: C_20  and  N_21 
REMARK   12  A    between atoms: N_21  and  C_25 
REMARK   13  A    between atoms: C_24  and  C_25 
REMARK   14  A    between atoms: C_25  and  C_26 
REMARK   15  A    between atoms: C_26  and  C_28 
REMARK       I    between atoms: N_27  and  C_28 
ROOT
HETATM    1  O           1     -20.735  -7.768  -3.900  0.00  0.00    -0.271 OA
HETATM    2  C           1     -21.064  -7.955  -5.046  0.00  0.00     0.249 C 
HETATM    3  N           1     -21.071  -9.226  -5.557  0.00  0.00    -0.345 N 
HETATM    4  H           1     -21.347  -9.383  -6.518  0.00  0.00     0.163 HD
ENDROOT
BRANCH   3   5
HETATM    5  C           1     -20.685 -10.346  -4.722  0.00  0.00     0.187 C 
BRANCH   5   6
HETATM    6  C           1     -20.054 -11.416  -5.578  0.00  0.00     0.196 C 
HETATM    7  O           1     -19.924 -11.235  -6.808  0.00  0.00    -0.646 OA
HETATM    8  O           1     -19.661 -12.482  -5.057  0.00  0.00    -0.646 OA
ENDBRANCH   5   6
BRANCH   5   9
HETATM    9  C           1     -21.918 -10.911  -4.027  0.00  0.00     0.066 C 
BRANCH   9  10
HETATM   10  C           1     -21.623 -11.104  -2.546  0.00  0.00     0.273 C 
BRANCH  10  11
HETATM   11  N           1     -21.838  -9.865  -1.848  0.00  0.00     0.099 N 
HETATM   12  H           1     -22.679  -9.938  -1.275  0.00  0.00     0.317 HD
BRANCH  11  13
HETATM   13  C           1     -20.699  -9.638  -1.001  0.00  0.00     0.328 C 
BRANCH  13  14
HETATM   14  C           1     -20.626 -10.723   0.045  0.00  0.00     0.207 C 
HETATM   15  O           1     -21.626 -10.978   0.751  0.00  0.00    -0.646 OA
HETATM   16  O           1     -19.566 -11.366   0.205  0.00  0.00    -0.646 OA
ENDBRANCH  13  14
BRANCH  13  17
HETATM   17  C           1     -20.837  -8.283  -0.319  0.00  0.00     0.149 C 
BRANCH  17  18
HETATM   18  C           1     -22.208  -7.716  -0.597  0.00  0.00     0.217 C 
HETATM   19  N           1     -22.353  -6.675  -1.475  0.00  0.00    -0.370 N 
HETATM   20  H           1     -23.272  -6.295  -1.661  0.00  0.00     0.159 HD
HETATM   21  H           1     -21.541  -6.286  -1.937  0.00  0.00     0.159 HD
HETATM   22  O           1     -23.177  -8.181  -0.045  0.00  0.00    -0.274 OA
ENDBRANCH  17  18
ENDBRANCH  13  17
ENDBRANCH  11  13
ENDBRANCH  10  11
ENDBRANCH   9  10
ENDBRANCH   5   9
ENDBRANCH   3   5
BRANCH   2  23
HETATM   23  C           1     -21.465  -6.790  -5.917  0.00  0.00     0.274 C 
BRANCH  23  24
HETATM   24  N           1     -22.352  -5.866  -5.136  0.00  0.00    -0.067 N 
HETATM   25  H           1     -22.376  -4.930  -5.601  0.00  0.00     0.275 HD
HETATM   26  H           1     -23.319  -6.261  -5.099  0.00  0.00     0.275 HD
HETATM   27  H           1     -21.980  -5.763  -4.164  0.00  0.00     0.275 HD
ENDBRANCH  23  24
BRANCH  23  28
HETATM   28  C           1     -20.218  -6.037  -6.364  0.00  0.00     0.044 C 
BRANCH  28  29
HETATM   29  C           1     -20.409  -4.546  -6.122  0.00  0.00     0.023 C 
BRANCH  29  30
HETATM   30  C           1     -20.664  -3.844  -7.449  0.00  0.00     0.138 C 
BRANCH  30  31
HETATM   31  N           1     -22.086  -3.483  -7.549  0.00  0.00    -0.227 N 
HETATM   32  C           1     -22.809  -4.000  -8.450  0.00  0.00     0.665 C 
HETATM   33  N           1     -22.293  -4.850  -9.287  0.00  0.00    -0.235 N 
HETATM   34  N           1     -24.033  -3.689  -8.535  0.00  0.00    -0.235 N 
HETATM   35  H           1     -22.890  -5.277 -10.032  0.00  0.00     0.174 HD
HETATM   36  H           1     -21.283  -5.107  -9.217  0.00  0.00     0.174 HD
HETATM   37  H           1     -24.632  -4.119  -9.283  0.00  0.00     0.174 HD
HETATM   38  H           1     -24.449  -3.003  -7.858  0.00  0.00     0.174 HD
HETATM   39  H           1     -22.502  -2.797  -6.871  0.00  0.00     0.177 HD
ENDBRANCH  30  31
ENDBRANCH  29  30
ENDBRANCH  28  29
ENDBRANCH  23  28
ENDBRANCH   2  23
TORSDOF 15
ENDMDL
MODEL 8
REMARK VINA RESULT:      -6.3      2.573      9.130
REMARK  15 active torsions:
REMARK  status: ('A' for Active; 'I' for Inactive)
REMARK    1  A    between atoms: N_4  and  C_12 
REMARK       I    between atoms: N_5  and  C_7 
REMARK       I    between atoms: N_6  and  C_7 
REMARK    2  A    between atoms: N_8  and  C_9 
REMARK    3  A    between atoms: C_9  and  C_10 
REMARK    4  A    between atoms: C_10  and  C_11 
REMARK    5  A    between atoms: C_11  and  C_12 
REMARK    6  A    between atoms: C_12  and  C_13 
REMARK       I    between atoms: C_13  and  N_14 
REMARK    7  A    between atoms: N_14  and  C_18 
REMARK    8  A    between atoms: C_17  and  C_18 
REMARK    9  A    between atoms: C_18  and  C_19 
REMARK   10  A    between atoms: C_19  and  C_20 
REMARK   11  A    between atoms: C_20  and  N_21 
REMARK   12  A    between atoms: N_21  and  C_25 
REMARK   13  A    between atoms: C_24  and  C_25 
REMARK   14  A    between atoms: C_25  and  C_26 
REMARK   15  A    between atoms: C_26  and  C_28 
REMARK       I    between atoms: N_27  and  C_28 
ROOT
HETATM    1  O           1     -22.043  -5.541  -7.965  0.00  0.00    -0.271 OA
HETATM    2  C           1     -20.905  -5.310  -7.633  0.00  0.00     0.249 C 
HETATM    3  N           1     -20.353  -5.975  -6.572  0.00  0.00    -0.345 N 
HETATM    4  H           1     -19.398  -5.781  -6.294  0.00  0.00     0.163 HD
ENDROOT
BRANCH   3   5
HETATM    5  C           1     -21.132  -6.957  -5.845  0.00  0.00     0.187 C 
BRANCH   5   6
HETATM    6  C           1     -21.954  -6.261  -4.786  0.00  0.00     0.196 C 
HETATM    7  O           1     -21.399  -5.813  -3.760  0.00  0.00    -0.646 OA
HETATM    8  O           1     -23.188  -6.135  -4.937  0.00  0.00    -0.646 OA
ENDBRANCH   5   6
BRANCH   5   9
HETATM    9  C           1     -20.197  -7.962  -5.185  0.00  0.00     0.066 C 
BRANCH   9  10
HETATM   10  C           1     -21.016  -8.991  -4.418  0.00  0.00     0.273 C 
BRANCH  10  11
HETATM   11  N           1     -20.690  -8.918  -3.019  0.00  0.00     0.099 N 
HETATM   12  H           1     -20.580  -7.941  -2.746  0.00  0.00     0.317 HD
BRANCH  11  13
HETATM   13  C           1     -21.781  -9.500  -2.286  0.00  0.00     0.328 C 
BRANCH  13  14
HETATM   14  C           1     -22.061  -8.669  -1.058  0.00  0.00     0.207 C 
HETATM   15  O           1     -22.919  -9.045  -0.231  0.00  0.00    -0.646 OA
HETATM   16  O           1     -21.436  -7.603  -0.869  0.00  0.00    -0.646 OA
ENDBRANCH  13  14
BRANCH  13  17
HETATM   17  C           1     -21.410 -10.917  -1.866  0.00  0.00     0.149 C 
BRANCH  17  18
HETATM   18  C           1     -20.174 -10.878  -1.000  0.00  0.00     0.217 C 
HETATM   19  N           1     -20.286 -11.013   0.358  0.00  0.00    -0.370 N 
HETATM   20  H           1     -19.457 -10.987   0.938  0.00  0.00     0.159 HD
HETATM   21  H           1     -21.196 -11.139   0.781  0.00  0.00     0.159 HD
HETATM   22  O           1     -19.087 -10.728  -1.505  0.00  0.00    -0.274 OA
ENDBRANCH  17  18
ENDBRANCH  13  17
ENDBRANCH  11  13
ENDBRANCH  10  11
ENDBRANCH   9  10
ENDBRANCH   5   9
ENDBRANCH   3   5
BRANCH   2  23
HETATM   23  C           1     -20.092  -4.287  -8.389  0.00  0.00     0.274 C 
BRANCH  23  24
HETATM   24  N           1     -18.732  -4.170  -7.764  0.00  0.00    -0.067 N 
HETATM   25  H           1     -18.241  -5.090  -7.824  0.00  0.00     0.275 HD
HETATM   26  H           1     -18.178  -3.444  -8.273  0.00  0.00     0.275 HD
HETATM   27  H           1     -18.833  -3.892  -6.761  0.00  0.00     0.275 HD
ENDBRANCH  23  24
BRANCH  23  28
HETATM   28  C           1     -19.946  -4.726  -9.840  0.00  0.00     0.044 C 
BRANCH  28  29
HETATM   29  C           1     -20.518  -3.653 -10.757  0.00  0.00     0.023 C 
BRANCH  29  30
HETATM   30  C           1     -21.937  -4.032 -11.160  0.00  0.00     0.138 C 
BRANCH  30  31
HETATM   31  N           1     -22.898  -3.277 -10.342  0.00  0.00    -0.227 N 
HETATM   32  C           1     -23.944  -3.843  -9.911  0.00  0.00     0.665 C 
HETATM   33  N           1     -24.170  -5.092 -10.192  0.00  0.00    -0.235 N 
HETATM   34  N           1     -24.771  -3.193  -9.207  0.00  0.00    -0.235 N 
HETATM   35  H           1     -25.034  -5.560  -9.836  0.00  0.00     0.174 HD
HETATM   36  H           1     -23.487  -5.629 -10.773  0.00  0.00     0.174 HD
HETATM   37  H           1     -25.639  -3.663  -8.849  0.00  0.00     0.174 HD
HETATM   38  H           1     -24.589  -2.184  -8.979  0.00  0.00     0.174 HD
HETATM   39  H           1     -22.715  -2.268 -10.115  0.00  0.00     0.177 HD
ENDBRANCH  30  31
ENDBRANCH  29  30
ENDBRANCH  28  29
ENDBRANCH  23  28
ENDBRANCH   2  23
TORSDOF 15
ENDMDL
MODEL 9
REMARK VINA RESULT:      -6.0      4.356      5.995
REMARK  15 active torsions:
REMARK  status: ('A' for Active; 'I' for Inactive)
REMARK    1  A    between atoms: N_4  and  C_12 
REMARK       I    between atoms: N_5  and  C_7 
REMARK       I    between atoms: N_6  and  C_7 
REMARK    2  A    between atoms: N_8  and  C_9 
REMARK    3  A    between atoms: C_9  and  C_10 
REMARK    4  A    between atoms: C_10  and  C_11 
REMARK    5  A    between atoms: C_11  and  C_12 
REMARK    6  A    between atoms: C_12  and  C_13 
REMARK       I    between atoms: C_13  and  N_14 
REMARK    7  A    between atoms: N_14  and  C_18 
REMARK    8  A    between atoms: C_17  and  C_18 
REMARK    9  A    between atoms: C_18  and  C_19 
REMARK   10  A    between atoms: C_19  and  C_20 
REMARK   11  A    between atoms: C_20  and  N_21 
REMARK   12  A    between atoms: N_21  and  C_25 
REMARK   13  A    between atoms: C_24  and  C_25 
REMARK   14  A    between atoms: C_25  and  C_26 
REMARK   15  A    between atoms: C_26  and  C_28 
REMARK       I    between atoms: N_27  and  C_28 
ROOT
HETATM    1  O           1     -19.242  -7.975  -5.853  0.00  0.00    -0.271 OA
HETATM    2  C           1     -19.597  -8.793  -5.039  0.00  0.00     0.249 C 
HETATM    3  N           1     -20.507  -8.449  -4.076  0.00  0.00    -0.345 N 
HETATM    4  H           1     -20.805  -9.136  -3.394  0.00  0.00     0.163 HD
ENDROOT
BRANCH   3   5
HETATM    5  C           1     -21.044  -7.104  -4.031  0.00  0.00     0.187 C 
BRANCH   5   6
HETATM    6  C           1     -21.604  -6.833  -2.655  0.00  0.00     0.196 C 
HETATM    7  O           1     -21.649  -7.751  -1.808  0.00  0.00    -0.646 OA
HETATM    8  O           1     -22.023  -5.692  -2.365  0.00  0.00    -0.646 OA
ENDBRANCH   5   6
BRANCH   5   9
HETATM    9  C           1     -22.150  -6.964  -5.068  0.00  0.00     0.066 C 
BRANCH   9  10
HETATM   10  C           1     -21.880  -5.743  -5.937  0.00  0.00     0.273 C 
BRANCH  10  11
HETATM   11  N           1     -20.984  -6.101  -7.004  0.00  0.00     0.099 N 
HETATM   12  H           1     -21.059  -7.102  -7.190  0.00  0.00     0.317 HD
BRANCH  11  13
HETATM   13  C           1     -21.380  -5.366  -8.174  0.00  0.00     0.328 C 
BRANCH  13  14
HETATM   14  C           1     -20.184  -4.642  -8.741  0.00  0.00     0.207 C 
HETATM   15  O           1     -19.384  -4.061  -7.976  0.00  0.00    -0.646 OA
HETATM   16  O           1     -19.993  -4.623  -9.976  0.00  0.00    -0.646 OA
ENDBRANCH  13  14
BRANCH  13  17
HETATM   17  C           1     -22.454  -4.354  -7.796  0.00  0.00     0.149 C 
BRANCH  17  18
HETATM   18  C           1     -23.437  -4.215  -8.934  0.00  0.00     0.217 C 
HETATM   19  N           1     -24.408  -3.250  -8.886  0.00  0.00    -0.370 N 
HETATM   20  H           1     -25.066  -3.157  -9.648  0.00  0.00     0.159 HD
HETATM   21  H           1     -24.466  -2.631  -8.087  0.00  0.00     0.159 HD
HETATM   22  O           1     -23.367  -4.954  -9.887  0.00  0.00    -0.274 OA
ENDBRANCH  17  18
ENDBRANCH  13  17
ENDBRANCH  11  13
ENDBRANCH  10  11
ENDBRANCH   9  10
ENDBRANCH   5   9
ENDBRANCH   3   5
BRANCH   2  23
HETATM   23  C           1     -19.038 -10.194  -5.084  0.00  0.00     0.274 C 
BRANCH  23  24
HETATM   24  N           1     -19.563 -10.902  -6.299  0.00  0.00    -0.067 N 
HETATM   25  H           1     -18.813 -11.509  -6.699  0.00  0.00     0.275 HD
HETATM   26  H           1     -20.383 -11.492  -6.030  0.00  0.00     0.275 HD
HETATM   27  H           1     -19.859 -10.197  -7.013  0.00  0.00     0.275 HD
ENDBRANCH  23  24
BRANCH  23  28
HETATM   28  C           1     -17.518 -10.132  -5.152  0.00  0.00     0.044 C 
BRANCH  28  29
HETATM   29  C           1     -16.955  -9.911  -3.754  0.00  0.00     0.023 C 
BRANCH  29  30
HETATM   30  C           1     -15.653 -10.686  -3.602  0.00  0.00     0.138 C 
BRANCH  30  31
HETATM   31  N           1     -15.188 -11.130  -4.924  0.00  0.00    -0.227 N 
HETATM   32  C           1     -14.264 -11.990  -5.015  0.00  0.00     0.665 C 
HETATM   33  N           1     -13.725 -12.480  -3.939  0.00  0.00    -0.235 N 
HETATM   34  N           1     -13.865 -12.372  -6.154  0.00  0.00    -0.235 N 
HETATM   35  H           1     -12.962 -13.190  -4.013  0.00  0.00     0.174 HD
HETATM   36  H           1     -14.055 -12.165  -2.998  0.00  0.00     0.174 HD
HETATM   37  H           1     -13.098 -13.086  -6.229  0.00  0.00     0.174 HD
HETATM   38  H           1     -14.300 -11.977  -7.024  0.00  0.00     0.174 HD
HETATM   39  H           1     -15.625 -10.734  -5.794  0.00  0.00     0.177 HD
ENDBRANCH  30  31
ENDBRANCH  29  30
ENDBRANCH  28  29
ENDBRANCH  23  28
ENDBRANCH   2  23
TORSDOF 15
ENDMDL
