MODEL 1
REMARK VINA RESULT:      -6.7      0.000      0.000
REMARK  9 active torsions:
REMARK  status: ('A' for Active; 'I' for Inactive)
REMARK       I    between atoms: N_2  and  C_3 
REMARK    1  A    between atoms: C_3  and  C_4 
REMARK    2  A    between atoms: C_4  and  C_5 
REMARK    3  A    between atoms: C_5  and  C_6 
REMARK    4  A    between atoms: C_6  and  C_7 
REMARK    5  A    between atoms: C_6  and  N_18 
REMARK       I    between atoms: C_7  and  N_24 
REMARK    6  A    between atoms: C_9  and  C_16 
REMARK    7  A    between atoms: C_9  and  C_22 
REMARK    8  A    between atoms: C_9  and  N_24 
REMARK    9  A    between atoms: O_10  and  C_16 
ROOT
HETATM    1  C           1     -21.246  -5.866  -7.005  0.00  0.00     0.275 C 
ENDROOT
BRANCH   1   2
HETATM    2  C           1     -21.268  -5.515  -5.524  0.00  0.00     0.052 C 
BRANCH   2   3
HETATM    3  C           1     -22.209  -6.462  -4.791  0.00  0.00     0.105 C 
BRANCH   3   4
HETATM    4  C           1     -21.763  -6.602  -3.356  0.00  0.00     0.215 C 
HETATM    5  O           1     -20.851  -7.342  -3.075  0.00  0.00    -0.274 OA
HETATM    6  N           1     -22.393  -5.888  -2.371  0.00  0.00    -0.370 N 
HETATM    7  H           1     -22.093  -5.980  -1.409  0.00  0.00     0.159 HD
HETATM    8  H           1     -23.156  -5.267  -2.607  0.00  0.00     0.159 HD
ENDBRANCH   3   4
ENDBRANCH   2   3
ENDBRANCH   1   2
BRANCH   1   9
HETATM    9  C           1     -21.725  -4.682  -7.811  0.00  0.00     0.249 C 
HETATM   10  N           1     -22.129  -4.854  -9.107  0.00  0.00    -0.343 N 
HETATM   11  H           1     -22.108  -5.776  -9.526  0.00  0.00     0.163 HD
HETATM   12  O           1     -21.749  -3.583  -7.311  0.00  0.00    -0.271 OA
BRANCH  10  13
HETATM   13  C           1     -22.589  -3.717  -9.881  0.00  0.00     0.214 C 
BRANCH  13  14
HETATM   14  C           1     -21.808  -3.643 -11.186  0.00  0.00     0.147 C 
HETATM   15  C           1     -20.414  -4.218 -10.976  0.00  0.00     0.042 C 
BRANCH  14  16
HETATM   16  O           1     -22.476  -4.384 -12.172  0.00  0.00    -0.393 OA
HETATM   17  H           1     -22.327  -3.944 -12.992  0.00  0.00     0.210 HD
ENDBRANCH  14  16
ENDBRANCH  13  14
BRANCH  13  18
HETATM   18  C           1     -24.059  -3.876 -10.181  0.00  0.00     0.199 C 
HETATM   19  O           1     -24.706  -2.922 -10.663  0.00  0.00    -0.646 OA
HETATM   20  O           1     -24.630  -4.965  -9.949  0.00  0.00    -0.646 OA
ENDBRANCH  13  18
ENDBRANCH  10  13
ENDBRANCH   1   9
BRANCH   1  21
HETATM   21  N           1     -19.846  -6.215  -7.415  0.00  0.00    -0.066 N 
HETATM   22  H           1     -19.784  -6.241  -8.457  0.00  0.00     0.275 HD
HETATM   23  H           1     -19.184  -5.495  -7.045  0.00  0.00     0.275 HD
HETATM   24  H           1     -19.592  -7.152  -7.027  0.00  0.00     0.275 HD
ENDBRANCH   1  21
TORSDOF 9
ENDMDL
MODEL 2
REMARK VINA RESULT:      -6.4     10.877     12.947
REMARK  9 active torsions:
REMARK  status: ('A' for Active; 'I' for Inactive)
REMARK       I    between atoms: N_2  and  C_3 
REMARK    1  A    between atoms: C_3  and  C_4 
REMARK    2  A    between atoms: C_4  and  C_5 
REMARK    3  A    between atoms: C_5  and  C_6 
REMARK    4  A    between atoms: C_6  and  C_7 
REMARK    5  A    between atoms: C_6  and  N_18 
REMARK       I    between atoms: C_7  and  N_24 
REMARK    6  A    between atoms: C_9  and  C_16 
REMARK    7  A    between atoms: C_9  and  C_22 
REMARK    8  A    between atoms: C_9  and  N_24 
REMARK    9  A    between atoms: O_10  and  C_16 
ROOT
HETATM    1  C           1     -25.252  -6.627 -19.496  0.00  0.00     0.275 C 
ENDROOT
BRANCH   1   2
HETATM    2  C           1     -26.430  -6.766 -20.450  0.00  0.00     0.052 C 
BRANCH   2   3
HETATM    3  C           1     -26.449  -8.172 -21.035  0.00  0.00     0.105 C 
BRANCH   3   4
HETATM    4  C           1     -27.825  -8.766 -20.869  0.00  0.00     0.215 C 
HETATM    5  O           1     -28.201  -9.639 -21.613  0.00  0.00    -0.274 OA
HETATM    6  N           1     -28.650  -8.315 -19.872  0.00  0.00    -0.370 N 
HETATM    7  H           1     -29.573  -8.714 -19.760  0.00  0.00     0.159 HD
HETATM    8  H           1     -28.335  -7.584 -19.248  0.00  0.00     0.159 HD
ENDBRANCH   3   4
ENDBRANCH   2   3
ENDBRANCH   1   2
BRANCH   1   9
HETATM    9  C           1     -25.762  -6.456 -18.086  0.00  0.00     0.249 C 
HETATM   10  N           1     -27.071  -6.119 -17.868  0.00  0.00    -0.343 N 
HETATM   11  H           1     -27.696  -5.985 -18.652  0.00  0.00     0.163 HD
HETATM   12  O           1     -25.015  -6.615 -17.151  0.00  0.00    -0.271 OA
BRANCH  10  13
HETATM   13  C           1     -27.561  -5.955 -16.513  0.00  0.00     0.214 C 
BRANCH  13  14
HETATM   14  C           1     -28.586  -4.829 -16.477  0.00  0.00     0.147 C 
HETATM   15  C           1     -28.960  -4.441 -17.901  0.00  0.00     0.042 C 
BRANCH  14  16
HETATM   16  O           1     -29.731  -5.262 -15.793  0.00  0.00    -0.393 OA
HETATM   17  H           1     -29.694  -4.885 -14.931  0.00  0.00     0.210 HD
ENDBRANCH  14  16
ENDBRANCH  13  14
BRANCH  13  18
HETATM   18  C           1     -28.207  -7.239 -16.054  0.00  0.00     0.199 C 
HETATM   19  O           1     -29.008  -7.839 -16.802  0.00  0.00    -0.646 OA
HETATM   20  O           1     -27.939  -7.704 -14.924  0.00  0.00    -0.646 OA
ENDBRANCH  13  18
ENDBRANCH  10  13
ENDBRANCH   1   9
BRANCH   1  21
HETATM   21  N           1     -24.400  -7.860 -19.572  0.00  0.00    -0.066 N 
HETATM   22  H           1     -24.723  -8.551 -18.860  0.00  0.00     0.275 HD
HETATM   23  H           1     -24.479  -8.280 -20.526  0.00  0.00     0.275 HD
HETATM   24  H           1     -23.403  -7.606 -19.386  0.00  0.00     0.275 HD
ENDBRANCH   1  21
TORSDOF 9
ENDMDL
MODEL 3
REMARK VINA RESULT:      -6.1     11.482     13.474
REMARK  9 active torsions:
REMARK  status: ('A' for Active; 'I' for Inactive)
REMARK       I    between atoms: N_2  and  C_3 
REMARK    1  A    between atoms: C_3  and  C_4 
REMARK    2  A    between atoms: C_4  and  C_5 
REMARK    3  A    between atoms: C_5  and  C_6 
REMARK    4  A    between atoms: C_6  and  C_7 
REMARK    5  A    between atoms: C_6  and  N_18 
REMARK       I    between atoms: C_7  and  N_24 
REMARK    6  A    between atoms: C_9  and  C_16 
REMARK    7  A    between atoms: C_9  and  C_22 
REMARK    8  A    between atoms: C_9  and  N_24 
REMARK    9  A    between atoms: O_10  and  C_16 
ROOT
HETATM    1  C           1     -25.114  -6.856 -19.813  0.00  0.00     0.275 C 
ENDROOT
BRANCH   1   2
HETATM    2  C           1     -25.133  -7.933 -20.889  0.00  0.00     0.052 C 
BRANCH   2   3
HETATM    3  C           1     -24.151  -7.565 -21.994  0.00  0.00     0.105 C 
BRANCH   3   4
HETATM    4  C           1     -22.967  -8.498 -21.946  0.00  0.00     0.215 C 
HETATM    5  O           1     -22.704  -9.192 -22.898  0.00  0.00    -0.274 OA
HETATM    6  N           1     -22.188  -8.558 -20.820  0.00  0.00    -0.370 N 
HETATM    7  H           1     -21.393  -9.184 -20.787  0.00  0.00     0.159 HD
HETATM    8  H           1     -22.408  -7.976 -20.022  0.00  0.00     0.159 HD
ENDBRANCH   3   4
ENDBRANCH   2   3
ENDBRANCH   1   2
BRANCH   1   9
HETATM    9  C           1     -26.518  -6.353 -19.580  0.00  0.00     0.249 C 
HETATM   10  N           1     -27.025  -6.300 -18.309  0.00  0.00    -0.343 N 
HETATM   11  H           1     -26.457  -6.598 -17.526  0.00  0.00     0.163 HD
HETATM   12  O           1     -27.195  -5.999 -20.515  0.00  0.00    -0.271 OA
BRANCH  10  13
HETATM   13  C           1     -28.374  -5.816 -18.085  0.00  0.00     0.214 C 
BRANCH  13  14
HETATM   14  C           1     -29.184  -6.888 -17.369  0.00  0.00     0.147 C 
HETATM   15  C           1     -29.826  -7.809 -18.399  0.00  0.00     0.042 C 
BRANCH  14  16
HETATM   16  O           1     -28.338  -7.635 -16.537  0.00  0.00    -0.393 OA
HETATM   17  H           1     -28.412  -7.268 -15.672  0.00  0.00     0.210 HD
ENDBRANCH  14  16
ENDBRANCH  13  14
BRANCH  13  18
HETATM   18  C           1     -28.325  -4.570 -17.236  0.00  0.00     0.199 C 
HETATM   19  O           1     -27.679  -4.566 -16.167  0.00  0.00    -0.646 OA
HETATM   20  O           1     -28.931  -3.539 -17.604  0.00  0.00    -0.646 OA
ENDBRANCH  13  18
ENDBRANCH  10  13
ENDBRANCH   1   9
BRANCH   1  21
HETATM   21  N           1     -24.573  -7.433 -18.538  0.00  0.00    -0.066 N 
HETATM   22  H           1     -23.549  -7.608 -18.643  0.00  0.00     0.275 HD
HETATM   23  H           1     -24.733  -6.760 -17.755  0.00  0.00     0.275 HD
HETATM   24  H           1     -25.061  -8.333 -18.328  0.00  0.00     0.275 HD
ENDBRANCH   1  21
TORSDOF 9
ENDMDL
MODEL 4
REMARK VINA RESULT:      -6.1     11.279     13.110
REMARK  9 active torsions:
REMARK  status: ('A' for Active; 'I' for Inactive)
REMARK       I    between atoms: N_2  and  C_3 
REMARK    1  A    between atoms: C_3  and  C_4 
REMARK    2  A    between atoms: C_4  and  C_5 
REMARK    3  A    between atoms: C_5  and  C_6 
REMARK    4  A    between atoms: C_6  and  C_7 
REMARK    5  A    between atoms: C_6  and  N_18 
REMARK       I    between atoms: C_7  and  N_24 
REMARK    6  A    between atoms: C_9  and  C_16 
REMARK    7  A    between atoms: C_9  and  C_22 
REMARK    8  A    between atoms: C_9  and  N_24 
REMARK    9  A    between atoms: O_10  and  C_16 
ROOT
HETATM    1  C           1     -29.691  -6.597 -17.840  0.00  0.00     0.275 C 
ENDROOT
BRANCH   1   2
HETATM    2  C           1     -30.093  -5.650 -16.717  0.00  0.00     0.052 C 
BRANCH   2   3
HETATM    3  C           1     -31.492  -5.111 -16.983  0.00  0.00     0.105 C 
BRANCH   3   4
HETATM    4  C           1     -31.398  -3.681 -17.456  0.00  0.00     0.215 C 
HETATM    5  O           1     -32.403  -3.059 -17.703  0.00  0.00    -0.274 OA
HETATM    6  N           1     -30.172  -3.089 -17.604  0.00  0.00    -0.370 N 
HETATM    7  H           1     -30.109  -2.129 -17.921  0.00  0.00     0.159 HD
HETATM    8  H           1     -29.330  -3.610 -17.397  0.00  0.00     0.159 HD
ENDBRANCH   3   4
ENDBRANCH   2   3
ENDBRANCH   1   2
BRANCH   1   9
HETATM    9  C           1     -28.442  -6.080 -18.512  0.00  0.00     0.249 C 
HETATM   10  N           1     -27.282  -6.805 -18.450  0.00  0.00    -0.343 N 
HETATM   11  H           1     -27.262  -7.687 -17.955  0.00  0.00     0.163 HD
HETATM   12  O           1     -28.466  -5.027 -19.102  0.00  0.00    -0.271 OA
BRANCH  10  13
HETATM   13  C           1     -26.081  -6.309 -19.096  0.00  0.00     0.214 C 
BRANCH  13  14
HETATM   14  C           1     -24.869  -6.646 -18.240  0.00  0.00     0.147 C 
HETATM   15  C           1     -25.317  -6.910 -16.809  0.00  0.00     0.042 C 
BRANCH  14  16
HETATM   16  O           1     -24.239  -7.790 -18.752  0.00  0.00    -0.393 OA
HETATM   17  H           1     -23.529  -7.996 -18.169  0.00  0.00     0.210 HD
ENDBRANCH  14  16
ENDBRANCH  13  14
BRANCH  13  18
HETATM   18  C           1     -25.937  -6.956 -20.452  0.00  0.00     0.199 C 
HETATM   19  O           1     -25.075  -6.540 -21.255  0.00  0.00    -0.646 OA
HETATM   20  O           1     -26.681  -7.909 -20.771  0.00  0.00    -0.646 OA
ENDBRANCH  13  18
ENDBRANCH  10  13
ENDBRANCH   1   9
BRANCH   1  21
HETATM   21  N           1     -29.425  -7.960 -17.272  0.00  0.00    -0.066 N 
HETATM   22  H           1     -29.827  -8.021 -16.311  0.00  0.00     0.275 HD
HETATM   23  H           1     -29.869  -8.684 -17.882  0.00  0.00     0.275 HD
HETATM   24  H           1     -28.394  -8.125 -17.231  0.00  0.00     0.275 HD
ENDBRANCH   1  21
TORSDOF 9
ENDMDL
MODEL 5
REMARK VINA RESULT:      -6.1     10.112     12.350
REMARK  9 active torsions:
REMARK  status: ('A' for Active; 'I' for Inactive)
REMARK       I    between atoms: N_2  and  C_3 
REMARK    1  A    between atoms: C_3  and  C_4 
REMARK    2  A    between atoms: C_4  and  C_5 
REMARK    3  A    between atoms: C_5  and  C_6 
REMARK    4  A    between atoms: C_6  and  C_7 
REMARK    5  A    between atoms: C_6  and  N_18 
REMARK       I    between atoms: C_7  and  N_24 
REMARK    6  A    between atoms: C_9  and  C_16 
REMARK    7  A    between atoms: C_9  and  C_22 
REMARK    8  A    between atoms: C_9  and  N_24 
REMARK    9  A    between atoms: O_10  and  C_16 
ROOT
HETATM    1  C           1     -24.948  -6.770 -17.086  0.00  0.00     0.275 C 
ENDROOT
BRANCH   1   2
HETATM    2  C           1     -25.080  -6.750 -18.602  0.00  0.00     0.052 C 
BRANCH   2   3
HETATM    3  C           1     -23.794  -7.268 -19.233  0.00  0.00     0.105 C 
BRANCH   3   4
HETATM    4  C           1     -24.122  -8.009 -20.505  0.00  0.00     0.215 C 
HETATM    5  O           1     -25.230  -7.938 -20.978  0.00  0.00    -0.274 OA
HETATM    6  N           1     -23.160  -8.763 -21.125  0.00  0.00    -0.370 N 
HETATM    7  H           1     -23.379  -9.259 -21.979  0.00  0.00     0.159 HD
HETATM    8  H           1     -22.231  -8.822 -20.729  0.00  0.00     0.159 HD
ENDBRANCH   3   4
ENDBRANCH   2   3
ENDBRANCH   1   2
BRANCH   1   9
HETATM    9  C           1     -26.316  -6.904 -16.462  0.00  0.00     0.249 C 
HETATM   10  N           1     -27.426  -6.502 -17.153  0.00  0.00    -0.343 N 
HETATM   11  H           1     -27.330  -6.114 -18.084  0.00  0.00     0.163 HD
HETATM   12  O           1     -26.429  -7.365 -15.352  0.00  0.00    -0.271 OA
BRANCH  10  13
HETATM   13  C           1     -28.741  -6.631 -16.554  0.00  0.00     0.214 C 
BRANCH  13  14
HETATM   14  C           1     -29.219  -5.265 -16.082  0.00  0.00     0.147 C 
HETATM   15  C           1     -29.333  -4.328 -17.277  0.00  0.00     0.042 C 
BRANCH  14  16
HETATM   16  O           1     -30.474  -5.395 -15.469  0.00  0.00    -0.393 OA
HETATM   17  H           1     -30.321  -5.729 -14.601  0.00  0.00     0.210 HD
ENDBRANCH  14  16
ENDBRANCH  13  14
BRANCH  13  18
HETATM   18  C           1     -29.706  -7.178 -17.576  0.00  0.00     0.199 C 
HETATM   19  O           1     -30.906  -7.352 -17.273  0.00  0.00    -0.646 OA
HETATM   20  O           1     -29.306  -7.456 -18.728  0.00  0.00    -0.646 OA
ENDBRANCH  13  18
ENDBRANCH  10  13
ENDBRANCH   1   9
BRANCH   1  21
HETATM   21  N           1     -24.095  -7.934 -16.674  0.00  0.00    -0.066 N 
HETATM   22  H           1     -24.435  -8.799 -17.149  0.00  0.00     0.275 HD
HETATM   23  H           1     -23.103  -7.753 -16.947  0.00  0.00     0.275 HD
HETATM   24  H           1     -24.153  -8.058 -15.638  0.00  0.00     0.275 HD
ENDBRANCH   1  21
TORSDOF 9
ENDMDL
MODEL 6
REMARK VINA RESULT:      -6.0     12.190     14.127
REMARK  9 active torsions:
REMARK  status: ('A' for Active; 'I' for Inactive)
REMARK       I    between atoms: N_2  and  C_3 
REMARK    1  A    between atoms: C_3  and  C_4 
REMARK    2  A    between atoms: C_4  and  C_5 
REMARK    3  A    between atoms: C_5  and  C_6 
REMARK    4  A    between atoms: C_6  and  C_7 
REMARK    5  A    between atoms: C_6  and  N_18 
REMARK       I    between atoms: C_7  and  N_24 
REMARK    6  A    between atoms: C_9  and  C_16 
REMARK    7  A    between atoms: C_9  and  C_22 
REMARK    8  A    between atoms: C_9  and  N_24 
REMARK    9  A    between atoms: O_10  and  C_16 
ROOT
HETATM    1  C           1     -33.027  -4.478 -16.649  0.00  0.00     0.275 C 
ENDROOT
BRANCH   1   2
HETATM    2  C           1     -31.553  -4.560 -16.278  0.00  0.00     0.052 C 
BRANCH   2   3
HETATM    3  C           1     -30.791  -5.291 -17.375  0.00  0.00     0.105 C 
BRANCH   3   4
HETATM    4  C           1     -29.816  -4.343 -18.028  0.00  0.00     0.215 C 
HETATM    5  O           1     -28.988  -4.764 -18.799  0.00  0.00    -0.274 OA
HETATM    6  N           1     -29.871  -3.004 -17.746  0.00  0.00    -0.370 N 
HETATM    7  H           1     -29.218  -2.367 -18.184  0.00  0.00     0.159 HD
HETATM    8  H           1     -30.565  -2.651 -17.100  0.00  0.00     0.159 HD
ENDBRANCH   3   4
ENDBRANCH   2   3
ENDBRANCH   1   2
BRANCH   1   9
HETATM    9  C           1     -33.865  -4.488 -15.393  0.00  0.00     0.249 C 
HETATM   10  N           1     -33.347  -4.007 -14.221  0.00  0.00    -0.343 N 
HETATM   11  H           1     -32.402  -3.644 -14.197  0.00  0.00     0.163 HD
HETATM   12  O           1     -34.991  -4.923 -15.423  0.00  0.00    -0.271 OA
BRANCH  10  13
HETATM   13  C           1     -34.152  -4.016 -13.014  0.00  0.00     0.214 C 
BRANCH  13  14
HETATM   14  C           1     -33.305  -4.498 -11.844  0.00  0.00     0.147 C 
HETATM   15  C           1     -33.978  -5.699 -11.193  0.00  0.00     0.042 C 
BRANCH  14  16
HETATM   16  O           1     -32.034  -4.867 -12.308  0.00  0.00    -0.393 OA
HETATM   17  H           1     -31.507  -5.045 -11.548  0.00  0.00     0.210 HD
ENDBRANCH  14  16
ENDBRANCH  13  14
BRANCH  13  18
HETATM   18  C           1     -34.652  -2.620 -12.734  0.00  0.00     0.199 C 
HETATM   19  O           1     -34.680  -2.189 -11.562  0.00  0.00    -0.646 OA
HETATM   20  O           1     -35.037  -1.894 -13.677  0.00  0.00    -0.646 OA
ENDBRANCH  13  18
ENDBRANCH  10  13
ENDBRANCH   1   9
BRANCH   1  21
HETATM   21  N           1     -33.282  -3.210 -17.409  0.00  0.00    -0.066 N 
HETATM   22  H           1     -34.307  -3.109 -17.583  0.00  0.00     0.275 HD
HETATM   23  H           1     -32.942  -2.395 -16.851  0.00  0.00     0.275 HD
HETATM   24  H           1     -32.774  -3.243 -18.322  0.00  0.00     0.275 HD
ENDBRANCH   1  21
TORSDOF 9
ENDMDL
MODEL 7
REMARK VINA RESULT:      -5.6      1.911      6.639
REMARK  9 active torsions:
REMARK  status: ('A' for Active; 'I' for Inactive)
REMARK       I    between atoms: N_2  and  C_3 
REMARK    1  A    between atoms: C_3  and  C_4 
REMARK    2  A    between atoms: C_4  and  C_5 
REMARK    3  A    between atoms: C_5  and  C_6 
REMARK    4  A    between atoms: C_6  and  C_7 
REMARK    5  A    between atoms: C_6  and  N_18 
REMARK       I    between atoms: C_7  and  N_24 
REMARK    6  A    between atoms: C_9  and  C_16 
REMARK    7  A    between atoms: C_9  and  C_22 
REMARK    8  A    between atoms: C_9  and  N_24 
REMARK    9  A    between atoms: O_10  and  C_16 
ROOT
HETATM    1  C           1     -20.489  -4.896  -6.725  0.00  0.00     0.275 C 
ENDROOT
BRANCH   1   2
HETATM    2  C           1     -21.327  -3.744  -7.263  0.00  0.00     0.052 C 
BRANCH   2   3
HETATM    3  C           1     -21.583  -3.951  -8.750  0.00  0.00     0.105 C 
BRANCH   3   4
HETATM    4  C           1     -23.061  -3.836  -9.026  0.00  0.00     0.215 C 
HETATM    5  O           1     -23.449  -3.528 -10.127  0.00  0.00    -0.274 OA
HETATM    6  N           1     -23.965  -4.082  -8.026  0.00  0.00    -0.370 N 
HETATM    7  H           1     -24.957  -4.005  -8.211  0.00  0.00     0.159 HD
HETATM    8  H           1     -23.641  -4.340  -7.104  0.00  0.00     0.159 HD
ENDBRANCH   3   4
ENDBRANCH   2   3
ENDBRANCH   1   2
BRANCH   1   9
HETATM    9  C           1     -21.335  -5.751  -5.813  0.00  0.00     0.249 C 
HETATM   10  N           1     -20.747  -6.710  -5.033  0.00  0.00    -0.343 N 
HETATM   11  H           1     -19.744  -6.845  -5.068  0.00  0.00     0.163 HD
HETATM   12  O           1     -22.531  -5.590  -5.774  0.00  0.00    -0.271 OA
BRANCH  10  13
HETATM   13  C           1     -21.559  -7.531  -4.157  0.00  0.00     0.214 C 
BRANCH  13  14
HETATM   14  C           1     -21.014  -8.952  -4.144  0.00  0.00     0.147 C 
HETATM   15  C           1     -22.123  -9.917  -3.746  0.00  0.00     0.042 C 
BRANCH  14  16
HETATM   16  O           1     -20.542  -9.283  -5.423  0.00  0.00    -0.393 OA
HETATM   17  H           1     -21.297  -9.485  -5.949  0.00  0.00     0.210 HD
ENDBRANCH  14  16
ENDBRANCH  13  14
BRANCH  13  18
HETATM   18  C           1     -21.521  -6.964  -2.759  0.00  0.00     0.199 C 
HETATM   19  O           1     -20.687  -7.393  -1.933  0.00  0.00    -0.646 OA
HETATM   20  O           1     -22.322  -6.063  -2.428  0.00  0.00    -0.646 OA
ENDBRANCH  13  18
ENDBRANCH  10  13
ENDBRANCH   1   9
BRANCH   1  21
HETATM   21  N           1     -19.991  -5.728  -7.870  0.00  0.00    -0.066 N 
HETATM   22  H           1     -20.339  -6.707  -7.766  0.00  0.00     0.275 HD
HETATM   23  H           1     -20.341  -5.328  -8.770  0.00  0.00     0.275 HD
HETATM   24  H           1     -18.946  -5.727  -7.872  0.00  0.00     0.275 HD
ENDBRANCH   1  21
TORSDOF 9
ENDMDL
MODEL 8
REMARK VINA RESULT:      -5.6     10.598     12.726
REMARK  9 active torsions:
REMARK  status: ('A' for Active; 'I' for Inactive)
REMARK       I    between atoms: N_2  and  C_3 
REMARK    1  A    between atoms: C_3  and  C_4 
REMARK    2  A    between atoms: C_4  and  C_5 
REMARK    3  A    between atoms: C_5  and  C_6 
REMARK    4  A    between atoms: C_6  and  C_7 
REMARK    5  A    between atoms: C_6  and  N_18 
REMARK       I    between atoms: C_7  and  N_24 
REMARK    6  A    between atoms: C_9  and  C_16 
REMARK    7  A    between atoms: C_9  and  C_22 
REMARK    8  A    between atoms: C_9  and  N_24 
REMARK    9  A    between atoms: O_10  and  C_16 
ROOT
HETATM    1  C           1     -31.486  -5.817 -17.675  0.00  0.00     0.275 C 
ENDROOT
BRANCH   1   2
HETATM    2  C           1     -31.228  -4.565 -16.850  0.00  0.00     0.052 C 
BRANCH   2   3
HETATM    3  C           1     -30.869  -3.410 -17.776  0.00  0.00     0.105 C 
BRANCH   3   4
HETATM    4  C           1     -29.566  -2.795 -17.331  0.00  0.00     0.215 C 
HETATM    5  O           1     -28.657  -3.502 -16.965  0.00  0.00    -0.274 OA
HETATM    6  N           1     -29.412  -1.434 -17.342  0.00  0.00    -0.370 N 
HETATM    7  H           1     -28.537  -1.021 -17.044  0.00  0.00     0.159 HD
HETATM    8  H           1     -30.173  -0.842 -17.648  0.00  0.00     0.159 HD
ENDBRANCH   3   4
ENDBRANCH   2   3
ENDBRANCH   1   2
BRANCH   1   9
HETATM    9  C           1     -30.264  -6.703 -17.643  0.00  0.00     0.249 C 
HETATM   10  N           1     -29.109  -6.255 -17.061  0.00  0.00    -0.343 N 
HETATM   11  H           1     -29.075  -5.330 -16.650  0.00  0.00     0.163 HD
HETATM   12  O           1     -30.305  -7.805 -18.134  0.00  0.00    -0.271 OA
BRANCH  10  13
HETATM   13  C           1     -27.935  -7.106 -17.030  0.00  0.00     0.214 C 
BRANCH  13  14
HETATM   14  C           1     -26.805  -6.438 -17.802  0.00  0.00     0.147 C 
HETATM   15  C           1     -27.298  -6.053 -19.190  0.00  0.00     0.042 C 
BRANCH  14  16
HETATM   16  O           1     -26.388  -5.288 -17.117  0.00  0.00    -0.393 OA
HETATM   17  H           1     -27.165  -4.865 -16.794  0.00  0.00     0.210 HD
ENDBRANCH  14  16
ENDBRANCH  13  14
BRANCH  13  18
HETATM   18  C           1     -27.509  -7.322 -15.599  0.00  0.00     0.199 C 
HETATM   19  O           1     -26.300  -7.477 -15.322  0.00  0.00    -0.646 OA
HETATM   20  O           1     -28.367  -7.345 -14.689  0.00  0.00    -0.646 OA
ENDBRANCH  13  18
ENDBRANCH  10  13
ENDBRANCH   1   9
BRANCH   1  21
HETATM   21  N           1     -32.656  -6.561 -17.101  0.00  0.00    -0.066 N 
HETATM   22  H           1     -32.328  -7.466 -16.696  0.00  0.00     0.275 HD
HETATM   23  H           1     -33.102  -5.986 -16.352  0.00  0.00     0.275 HD
HETATM   24  H           1     -33.354  -6.749 -17.857  0.00  0.00     0.275 HD
ENDBRANCH   1  21
TORSDOF 9
ENDMDL
MODEL 9
REMARK VINA RESULT:      -5.5      2.031      6.332
REMARK  9 active torsions:
REMARK  status: ('A' for Active; 'I' for Inactive)
REMARK       I    between atoms: N_2  and  C_3 
REMARK    1  A    between atoms: C_3  and  C_4 
REMARK    2  A    between atoms: C_4  and  C_5 
REMARK    3  A    between atoms: C_5  and  C_6 
REMARK    4  A    between atoms: C_6  and  C_7 
REMARK    5  A    between atoms: C_6  and  N_18 
REMARK       I    between atoms: C_7  and  N_24 
REMARK    6  A    between atoms: C_9  and  C_16 
REMARK    7  A    between atoms: C_9  and  C_22 
REMARK    8  A    between atoms: C_9  and  N_24 
REMARK    9  A    between atoms: O_10  and  C_16 
ROOT
HETATM    1  C           1     -20.973  -4.018  -7.770  0.00  0.00     0.275 C 
ENDROOT
BRANCH   1   2
HETATM    2  C           1     -22.139  -4.685  -8.486  0.00  0.00     0.052 C 
BRANCH   2   3
HETATM    3  C           1     -22.401  -3.972  -9.806  0.00  0.00     0.105 C 
BRANCH   3   4
HETATM    4  C           1     -23.884  -3.751  -9.973  0.00  0.00     0.215 C 
HETATM    5  O           1     -24.407  -3.938 -11.045  0.00  0.00    -0.274 OA
HETATM    6  N           1     -24.638  -3.338  -8.906  0.00  0.00    -0.370 N 
HETATM    7  H           1     -25.633  -3.190  -9.017  0.00  0.00     0.159 HD
HETATM    8  H           1     -24.200  -3.182  -8.008  0.00  0.00     0.159 HD
ENDBRANCH   3   4
ENDBRANCH   2   3
ENDBRANCH   1   2
BRANCH   1   9
HETATM    9  C           1     -20.615  -4.815  -6.539  0.00  0.00     0.249 C 
HETATM   10  N           1     -21.163  -6.054  -6.342  0.00  0.00    -0.343 N 
HETATM   11  H           1     -21.807  -6.436  -7.022  0.00  0.00     0.163 HD
HETATM   12  O           1     -19.847  -4.357  -5.727  0.00  0.00    -0.271 OA
BRANCH  10  13
HETATM   13  C           1     -20.819  -6.819  -5.159  0.00  0.00     0.214 C 
BRANCH  13  14
HETATM   14  C           1     -22.029  -6.903  -4.240  0.00  0.00     0.147 C 
HETATM   15  C           1     -21.673  -6.321  -2.878  0.00  0.00     0.042 C 
BRANCH  14  16
HETATM   16  O           1     -23.090  -6.175  -4.797  0.00  0.00    -0.393 OA
HETATM   17  H           1     -23.639  -6.793  -5.248  0.00  0.00     0.210 HD
ENDBRANCH  14  16
ENDBRANCH  13  14
BRANCH  13  18
HETATM   18  C           1     -20.397  -8.209  -5.566  0.00  0.00     0.199 C 
HETATM   19  O           1     -21.254  -9.110  -5.696  0.00  0.00    -0.646 OA
HETATM   20  O           1     -19.190  -8.460  -5.776  0.00  0.00    -0.646 OA
ENDBRANCH  13  18
ENDBRANCH  10  13
ENDBRANCH   1   9
BRANCH   1  21
HETATM   21  N           1     -19.789  -3.962  -8.690  0.00  0.00    -0.066 N 
HETATM   22  H           1     -20.057  -4.339  -9.626  0.00  0.00     0.275 HD
HETATM   23  H           1     -19.473  -2.971  -8.791  0.00  0.00     0.275 HD
HETATM   24  H           1     -19.011  -4.535  -8.291  0.00  0.00     0.275 HD
ENDBRANCH   1  21
TORSDOF 9
ENDMDL
