MODEL 1
REMARK VINA RESULT:      -7.3      0.000      0.000
REMARK  12 active torsions:
REMARK  status: ('A' for Active; 'I' for Inactive)
REMARK    1  A    between atoms: Se_2  and  C_3 
REMARK    2  A    between atoms: C_3  and  C_4 
REMARK    3  A    between atoms: C_4  and  C_5 
REMARK    4  A    between atoms: C_5  and  C_6 
REMARK    5  A    between atoms: C_5  and  N_9 
REMARK       I    between atoms: N_9  and  C_10 
REMARK    6  A    between atoms: C_10  and  C_11 
REMARK    7  A    between atoms: C_11  and  C_12 
REMARK    8  A    between atoms: C_11  and  N_24 
REMARK    9  A    between atoms: C_12  and  C_13 
REMARK   10  A    between atoms: C_16  and  O_17 
REMARK   11  A    between atoms: O_17  and  P_18 
REMARK   12  A    between atoms: P_18  and  O_19 
ROOT
HETATM    1  C           1     -33.656  -4.864 -15.447  0.00  0.00     0.278 C 
ENDROOT
BRANCH   1   2
HETATM    2  C           1     -34.186  -4.051 -14.292  0.00  0.00     0.249 C 
HETATM    3  N           1     -34.153  -4.562 -13.022  0.00  0.00    -0.345 N 
HETATM    4  H           1     -33.772  -5.485 -12.858  0.00  0.00     0.163 HD
HETATM    5  O           1     -34.642  -2.949 -14.487  0.00  0.00    -0.271 OA
BRANCH   3   6
HETATM    6  C           1     -34.663  -3.781 -11.912  0.00  0.00     0.185 C 
BRANCH   6   7
HETATM    7  C           1     -35.003  -4.707 -10.751  0.00  0.00     0.036 C 
BRANCH   7   8
HETATM    8  C           1     -34.266  -6.028 -10.923  0.00  0.00     0.003 C 
BRANCH   8   9
HETATM    9 Se           1     -35.029  -7.360  -9.721  0.00  0.00     0.000 Se
HETATM   10  C           1     -33.694  -8.723 -10.118  0.00  0.00     0.000 C 
ENDBRANCH   8   9
ENDBRANCH   7   8
ENDBRANCH   6   7
BRANCH   6  11
HETATM   11  C           1     -33.613  -2.790 -11.472  0.00  0.00     0.196 C 
HETATM   12  O           1     -33.934  -1.605 -11.235  0.00  0.00    -0.646 OA
HETATM   13  O           1     -32.425  -3.155 -11.342  0.00  0.00    -0.646 OA
ENDBRANCH   6  11
ENDBRANCH   3   6
ENDBRANCH   1   2
BRANCH   1  14
HETATM   14  C           1     -33.094  -3.930 -16.510  0.00  0.00     0.081 C 
BRANCH  14  15
HETATM   15  C           1     -31.783  -4.462 -17.000  0.00  0.00    -0.056 A 
HETATM   16  C           1     -30.836  -3.592 -17.540  0.00  0.00     0.010 A 
HETATM   17  C           1     -29.615  -4.088 -17.997  0.00  0.00     0.038 A 
HETATM   18  C           1     -29.340  -5.453 -17.914  0.00  0.00     0.081 A 
HETATM   19  C           1     -30.289  -6.322 -17.374  0.00  0.00     0.038 A 
HETATM   20  C           1     -31.510  -5.827 -16.917  0.00  0.00     0.010 A 
BRANCH  18  21
HETATM   21  O           1     -28.155  -5.934 -18.358  0.00  0.00    -0.247 OA
BRANCH  21  22
HETATM   22  P           1     -26.965  -6.132 -17.284  0.00  0.00     0.411 P 
HETATM   23  O           1     -25.694  -6.384 -17.997  0.00  0.00    -0.624 OA
HETATM   24  O           1     -26.838  -4.909 -16.459  0.00  0.00    -0.624 OA
BRANCH  22  25
HETATM   25  O           1     -27.306  -7.391 -16.330  0.00  0.00    -0.300 OA
HETATM   26  H           1     -27.266  -8.143 -16.896  0.00  0.00     0.223 HD
ENDBRANCH  22  25
ENDBRANCH  21  22
ENDBRANCH  18  21
ENDBRANCH  14  15
ENDBRANCH   1  14
BRANCH   1  27
HETATM   27  N           1     -34.768  -5.680 -16.035  0.00  0.00    -0.066 N 
HETATM   28  H           1     -34.399  -6.615 -16.324  0.00  0.00     0.275 HD
HETATM   29  H           1     -35.521  -5.809 -15.323  0.00  0.00     0.275 HD
HETATM   30  H           1     -35.157  -5.187 -16.870  0.00  0.00     0.275 HD
ENDBRANCH   1  27
TORSDOF 12
ENDMDL
MODEL 2
REMARK VINA RESULT:      -7.2     12.922     14.477
REMARK  12 active torsions:
REMARK  status: ('A' for Active; 'I' for Inactive)
REMARK    1  A    between atoms: Se_2  and  C_3 
REMARK    2  A    between atoms: C_3  and  C_4 
REMARK    3  A    between atoms: C_4  and  C_5 
REMARK    4  A    between atoms: C_5  and  C_6 
REMARK    5  A    between atoms: C_5  and  N_9 
REMARK       I    between atoms: N_9  and  C_10 
REMARK    6  A    between atoms: C_10  and  C_11 
REMARK    7  A    between atoms: C_11  and  C_12 
REMARK    8  A    between atoms: C_11  and  N_24 
REMARK    9  A    between atoms: C_12  and  C_13 
REMARK   10  A    between atoms: C_16  and  O_17 
REMARK   11  A    between atoms: O_17  and  P_18 
REMARK   12  A    between atoms: P_18  and  O_19 
ROOT
HETATM    1  C           1     -21.445  -6.575  -4.917  0.00  0.00     0.278 C 
ENDROOT
BRANCH   1   2
HETATM    2  C           1     -21.036  -8.024  -4.805  0.00  0.00     0.249 C 
HETATM    3  N           1     -21.396  -8.753  -3.702  0.00  0.00    -0.345 N 
HETATM    4  H           1     -21.935  -8.320  -2.963  0.00  0.00     0.163 HD
HETATM    5  O           1     -20.391  -8.540  -5.686  0.00  0.00    -0.271 OA
BRANCH   3   6
HETATM    6  C           1     -21.003 -10.144  -3.595  0.00  0.00     0.185 C 
BRANCH   6   7
HETATM    7  C           1     -20.408 -10.400  -2.216  0.00  0.00     0.036 C 
BRANCH   7   8
HETATM    8  C           1     -20.486  -9.127  -1.385  0.00  0.00     0.003 C 
BRANCH   8   9
HETATM    9 Se           1     -21.765  -9.375   0.066  0.00  0.00     0.000 Se
HETATM   10  C           1     -22.648  -7.658  -0.199  0.00  0.00     0.000 C 
ENDBRANCH   8   9
ENDBRANCH   7   8
ENDBRANCH   6   7
BRANCH   6  11
HETATM   11  C           1     -22.214 -11.023  -3.789  0.00  0.00     0.196 C 
HETATM   12  O           1     -22.307 -11.742  -4.808  0.00  0.00    -0.646 OA
HETATM   13  O           1     -23.122 -11.036  -2.930  0.00  0.00    -0.646 OA
ENDBRANCH   6  11
ENDBRANCH   3   6
ENDBRANCH   1   2
BRANCH   1  14
HETATM   14  C           1     -20.351  -5.793  -5.631  0.00  0.00     0.081 C 
BRANCH  14  15
HETATM   15  C           1     -20.900  -5.207  -6.895  0.00  0.00    -0.056 A 
HETATM   16  C           1     -22.157  -4.603  -6.895  0.00  0.00     0.010 A 
HETATM   17  C           1     -22.667  -4.057  -8.073  0.00  0.00     0.038 A 
HETATM   18  C           1     -21.922  -4.115  -9.250  0.00  0.00     0.081 A 
HETATM   19  C           1     -20.665  -4.721  -9.249  0.00  0.00     0.038 A 
HETATM   20  C           1     -20.154  -5.267  -8.072  0.00  0.00     0.010 A 
BRANCH  18  21
HETATM   21  O           1     -22.418  -3.586 -10.394  0.00  0.00    -0.247 OA
BRANCH  21  22
HETATM   22  P           1     -23.731  -4.270 -11.040  0.00  0.00     0.411 P 
HETATM   23  O           1     -24.060  -5.506 -10.297  0.00  0.00    -0.624 OA
HETATM   24  O           1     -24.868  -3.325 -10.960  0.00  0.00    -0.624 OA
BRANCH  22  25
HETATM   25  O           1     -23.442  -4.633 -12.587  0.00  0.00    -0.300 OA
HETATM   26  H           1     -22.906  -3.927 -12.907  0.00  0.00     0.223 HD
ENDBRANCH  22  25
ENDBRANCH  21  22
ENDBRANCH  18  21
ENDBRANCH  14  15
ENDBRANCH   1  14
BRANCH   1  27
HETATM   27  N           1     -21.651  -6.007  -3.544  0.00  0.00    -0.066 N 
HETATM   28  H           1     -22.603  -6.267  -3.199  0.00  0.00     0.275 HD
HETATM   29  H           1     -20.929  -6.391  -2.895  0.00  0.00     0.275 HD
HETATM   30  H           1     -21.568  -4.966  -3.583  0.00  0.00     0.275 HD
ENDBRANCH   1  27
TORSDOF 12
ENDMDL
MODEL 3
REMARK VINA RESULT:      -7.0     13.833     15.265
REMARK  12 active torsions:
REMARK  status: ('A' for Active; 'I' for Inactive)
REMARK    1  A    between atoms: Se_2  and  C_3 
REMARK    2  A    between atoms: C_3  and  C_4 
REMARK    3  A    between atoms: C_4  and  C_5 
REMARK    4  A    between atoms: C_5  and  C_6 
REMARK    5  A    between atoms: C_5  and  N_9 
REMARK       I    between atoms: N_9  and  C_10 
REMARK    6  A    between atoms: C_10  and  C_11 
REMARK    7  A    between atoms: C_11  and  C_12 
REMARK    8  A    between atoms: C_11  and  N_24 
REMARK    9  A    between atoms: C_12  and  C_13 
REMARK   10  A    between atoms: C_16  and  O_17 
REMARK   11  A    between atoms: O_17  and  P_18 
REMARK   12  A    between atoms: P_18  and  O_19 
ROOT
HETATM    1  C           1     -21.619  -6.483  -4.819  0.00  0.00     0.278 C 
ENDROOT
BRANCH   1   2
HETATM    2  C           1     -20.978  -7.849  -4.780  0.00  0.00     0.249 C 
HETATM    3  N           1     -20.355  -8.281  -3.640  0.00  0.00    -0.345 N 
HETATM    4  H           1     -20.326  -7.685  -2.822  0.00  0.00     0.163 HD
HETATM    5  O           1     -21.012  -8.560  -5.756  0.00  0.00    -0.271 OA
BRANCH   3   6
HETATM    6  C           1     -19.739  -9.593  -3.603  0.00  0.00     0.185 C 
BRANCH   6   7
HETATM    7  C           1     -18.231  -9.443  -3.451  0.00  0.00     0.036 C 
BRANCH   7   8
HETATM    8  C           1     -17.554  -9.738  -4.782  0.00  0.00     0.003 C 
BRANCH   8   9
HETATM    9 Se           1     -15.843 -10.616  -4.462  0.00  0.00     0.000 Se
HETATM   10  C           1     -15.887 -10.361  -2.531  0.00  0.00     0.000 C 
ENDBRANCH   8   9
ENDBRANCH   7   8
ENDBRANCH   6   7
BRANCH   6  11
HETATM   11  C           1     -20.286 -10.371  -2.432  0.00  0.00     0.196 C 
HETATM   12  O           1     -20.174  -9.917  -1.273  0.00  0.00    -0.646 OA
HETATM   13  O           1     -20.852 -11.470  -2.621  0.00  0.00    -0.646 OA
ENDBRANCH   6  11
ENDBRANCH   3   6
ENDBRANCH   1   2
BRANCH   1  14
HETATM   14  C           1     -20.624  -5.470  -5.369  0.00  0.00     0.081 C 
BRANCH  14  15
HETATM   15  C           1     -21.087  -4.993  -6.711  0.00  0.00    -0.056 A 
HETATM   16  C           1     -20.243  -5.095  -7.816  0.00  0.00     0.010 A 
HETATM   17  C           1     -20.675  -4.650  -9.066  0.00  0.00     0.038 A 
HETATM   18  C           1     -21.950  -4.105  -9.211  0.00  0.00     0.081 A 
HETATM   19  C           1     -22.794  -4.003  -8.104  0.00  0.00     0.038 A 
HETATM   20  C           1     -22.363  -4.447  -6.855  0.00  0.00     0.010 A 
BRANCH  18  21
HETATM   21  O           1     -22.369  -3.672 -10.424  0.00  0.00    -0.247 OA
BRANCH  21  22
HETATM   22  P           1     -23.709  -4.328 -11.043  0.00  0.00     0.411 P 
HETATM   23  O           1     -24.032  -5.573 -10.312  0.00  0.00    -0.624 OA
HETATM   24  O           1     -24.831  -3.371 -10.912  0.00  0.00    -0.624 OA
BRANCH  22  25
HETATM   25  O           1     -23.470  -4.666 -12.604  0.00  0.00    -0.300 OA
HETATM   26  H           1     -24.151  -4.201 -13.061  0.00  0.00     0.223 HD
ENDBRANCH  22  25
ENDBRANCH  21  22
ENDBRANCH  18  21
ENDBRANCH  14  15
ENDBRANCH   1  14
BRANCH   1  27
HETATM   27  N           1     -22.025  -6.083  -3.431  0.00  0.00    -0.066 N 
HETATM   28  H           1     -21.201  -5.677  -2.931  0.00  0.00     0.275 HD
HETATM   29  H           1     -22.787  -5.371  -3.483  0.00  0.00     0.275 HD
HETATM   30  H           1     -22.366  -6.924  -2.913  0.00  0.00     0.275 HD
ENDBRANCH   1  27
TORSDOF 12
ENDMDL
MODEL 4
REMARK VINA RESULT:      -6.9     12.926     14.905
REMARK  12 active torsions:
REMARK  status: ('A' for Active; 'I' for Inactive)
REMARK    1  A    between atoms: Se_2  and  C_3 
REMARK    2  A    between atoms: C_3  and  C_4 
REMARK    3  A    between atoms: C_4  and  C_5 
REMARK    4  A    between atoms: C_5  and  C_6 
REMARK    5  A    between atoms: C_5  and  N_9 
REMARK       I    between atoms: N_9  and  C_10 
REMARK    6  A    between atoms: C_10  and  C_11 
REMARK    7  A    between atoms: C_11  and  C_12 
REMARK    8  A    between atoms: C_11  and  N_24 
REMARK    9  A    between atoms: C_12  and  C_13 
REMARK   10  A    between atoms: C_16  and  O_17 
REMARK   11  A    between atoms: O_17  and  P_18 
REMARK   12  A    between atoms: P_18  and  O_19 
ROOT
HETATM    1  C           1     -22.587  -4.992  -6.361  0.00  0.00     0.278 C 
ENDROOT
BRANCH   1   2
HETATM    2  C           1     -22.577  -4.287  -7.696  0.00  0.00     0.249 C 
HETATM    3  N           1     -23.453  -4.668  -8.677  0.00  0.00    -0.345 N 
HETATM    4  H           1     -24.108  -5.421  -8.507  0.00  0.00     0.163 HD
HETATM    5  O           1     -21.795  -3.389  -7.899  0.00  0.00    -0.271 OA
BRANCH   3   6
HETATM    6  C           1     -23.444  -3.992  -9.959  0.00  0.00     0.185 C 
BRANCH   6   7
HETATM    7  C           1     -23.275  -5.016 -11.074  0.00  0.00     0.036 C 
BRANCH   7   8
HETATM    8  C           1     -22.203  -4.538 -12.044  0.00  0.00     0.003 C 
BRANCH   8   9
HETATM    9 Se           1     -20.995  -3.313 -11.127  0.00  0.00     0.000 Se
HETATM   10  C           1     -19.833  -4.717 -10.436  0.00  0.00     0.000 C 
ENDBRANCH   8   9
ENDBRANCH   7   8
ENDBRANCH   6   7
BRANCH   6  11
HETATM   11  C           1     -24.748  -3.256 -10.148  0.00  0.00     0.196 C 
HETATM   12  O           1     -25.304  -3.249 -11.268  0.00  0.00    -0.646 OA
HETATM   13  O           1     -25.272  -2.655  -9.186  0.00  0.00    -0.646 OA
ENDBRANCH   6  11
ENDBRANCH   3   6
ENDBRANCH   1   2
BRANCH   1  14
HETATM   14  C           1     -21.713  -6.236  -6.437  0.00  0.00     0.081 C 
BRANCH  14  15
HETATM   15  C           1     -21.507  -6.787  -5.060  0.00  0.00    -0.056 A 
HETATM   16  C           1     -21.622  -8.158  -4.833  0.00  0.00     0.010 A 
HETATM   17  C           1     -21.430  -8.670  -3.550  0.00  0.00     0.038 A 
HETATM   18  C           1     -21.123  -7.812  -2.494  0.00  0.00     0.081 A 
HETATM   19  C           1     -21.009  -6.440  -2.722  0.00  0.00     0.038 A 
HETATM   20  C           1     -21.201  -5.927  -4.004  0.00  0.00     0.010 A 
BRANCH  18  21
HETATM   21  O           1     -20.937  -8.309  -1.248  0.00  0.00    -0.247 OA
BRANCH  21  22
HETATM   22  P           1     -22.186  -8.284  -0.226  0.00  0.00     0.411 P 
HETATM   23  O           1     -23.004  -7.077  -0.477  0.00  0.00    -0.624 OA
HETATM   24  O           1     -23.014  -9.494  -0.429  0.00  0.00    -0.624 OA
BRANCH  22  25
HETATM   25  O           1     -21.638  -8.255   1.293  0.00  0.00    -0.300 OA
HETATM   26  H           1     -22.403  -8.374   1.831  0.00  0.00     0.223 HD
ENDBRANCH  22  25
ENDBRANCH  21  22
ENDBRANCH  18  21
ENDBRANCH  14  15
ENDBRANCH   1  14
BRANCH   1  27
HETATM   27  N           1     -23.992  -5.387  -6.015  0.00  0.00    -0.066 N 
HETATM   28  H           1     -24.455  -4.607  -5.495  0.00  0.00     0.275 HD
HETATM   29  H           1     -24.524  -5.585  -6.891  0.00  0.00     0.275 HD
HETATM   30  H           1     -23.974  -6.242  -5.416  0.00  0.00     0.275 HD
ENDBRANCH   1  27
TORSDOF 12
ENDMDL
MODEL 5
REMARK VINA RESULT:      -6.9     13.027     14.297
REMARK  12 active torsions:
REMARK  status: ('A' for Active; 'I' for Inactive)
REMARK    1  A    between atoms: Se_2  and  C_3 
REMARK    2  A    between atoms: C_3  and  C_4 
REMARK    3  A    between atoms: C_4  and  C_5 
REMARK    4  A    between atoms: C_5  and  C_6 
REMARK    5  A    between atoms: C_5  and  N_9 
REMARK       I    between atoms: N_9  and  C_10 
REMARK    6  A    between atoms: C_10  and  C_11 
REMARK    7  A    between atoms: C_11  and  C_12 
REMARK    8  A    between atoms: C_11  and  N_24 
REMARK    9  A    between atoms: C_12  and  C_13 
REMARK   10  A    between atoms: C_16  and  O_17 
REMARK   11  A    between atoms: O_17  and  P_18 
REMARK   12  A    between atoms: P_18  and  O_19 
ROOT
HETATM    1  C           1     -20.293  -6.724  -5.396  0.00  0.00     0.278 C 
ENDROOT
BRANCH   1   2
HETATM    2  C           1     -21.142  -7.361  -4.324  0.00  0.00     0.249 C 
HETATM    3  N           1     -20.749  -7.300  -3.013  0.00  0.00    -0.345 N 
HETATM    4  H           1     -19.890  -6.828  -2.764  0.00  0.00     0.163 HD
HETATM    5  O           1     -22.167  -7.926  -4.621  0.00  0.00    -0.271 OA
BRANCH   3   6
HETATM    6  C           1     -21.565  -7.913  -1.983  0.00  0.00     0.185 C 
BRANCH   6   7
HETATM    7  C           1     -20.668  -8.635  -0.986  0.00  0.00     0.036 C 
BRANCH   7   8
HETATM    8  C           1     -20.709 -10.132  -1.258  0.00  0.00     0.003 C 
BRANCH   8   9
HETATM    9 Se           1     -22.439 -10.608  -2.021  0.00  0.00     0.000 Se
HETATM   10  C           1     -23.364 -10.664  -0.306  0.00  0.00     0.000 C 
ENDBRANCH   8   9
ENDBRANCH   7   8
ENDBRANCH   6   7
BRANCH   6  11
HETATM   11  C           1     -22.353  -6.845  -1.266  0.00  0.00     0.196 C 
HETATM   12  O           1     -22.391  -5.682  -1.725  0.00  0.00    -0.646 OA
HETATM   13  O           1     -22.970  -7.122  -0.215  0.00  0.00    -0.646 OA
ENDBRANCH   6  11
ENDBRANCH   3   6
ENDBRANCH   1   2
BRANCH   1  14
HETATM   14  C           1     -20.493  -5.215  -5.373  0.00  0.00     0.081 C 
BRANCH  14  15
HETATM   15  C           1     -21.020  -4.760  -6.699  0.00  0.00    -0.056 A 
HETATM   16  C           1     -22.384  -4.523  -6.863  0.00  0.00     0.010 A 
HETATM   17  C           1     -22.874  -4.099  -8.098  0.00  0.00     0.038 A 
HETATM   18  C           1     -22.001  -3.913  -9.170  0.00  0.00     0.081 A 
HETATM   19  C           1     -20.636  -4.152  -9.005  0.00  0.00     0.038 A 
HETATM   20  C           1     -20.146  -4.575  -7.770  0.00  0.00     0.010 A 
BRANCH  18  21
HETATM   21  O           1     -22.477  -3.503 -10.369  0.00  0.00    -0.247 OA
BRANCH  21  22
HETATM   22  P           1     -23.774  -4.255 -10.969  0.00  0.00     0.411 P 
HETATM   23  O           1     -23.538  -4.586 -12.392  0.00  0.00    -0.624 OA
HETATM   24  O           1     -24.020  -5.498 -10.205  0.00  0.00    -0.624 OA
BRANCH  22  25
HETATM   25  O           1     -25.061  -3.286 -10.849  0.00  0.00    -0.300 OA
HETATM   26  H           1     -24.818  -2.638 -10.209  0.00  0.00     0.223 HD
ENDBRANCH  22  25
ENDBRANCH  21  22
ENDBRANCH  18  21
ENDBRANCH  14  15
ENDBRANCH   1  14
BRANCH   1  27
HETATM   27  N           1     -20.696  -7.262  -6.738  0.00  0.00    -0.066 N 
HETATM   28  H           1     -21.029  -8.247  -6.632  0.00  0.00     0.275 HD
HETATM   29  H           1     -21.464  -6.675  -7.132  0.00  0.00     0.275 HD
HETATM   30  H           1     -19.874  -7.240  -7.382  0.00  0.00     0.275 HD
ENDBRANCH   1  27
TORSDOF 12
ENDMDL
MODEL 6
REMARK VINA RESULT:      -6.9      1.620      2.287
REMARK  12 active torsions:
REMARK  status: ('A' for Active; 'I' for Inactive)
REMARK    1  A    between atoms: Se_2  and  C_3 
REMARK    2  A    between atoms: C_3  and  C_4 
REMARK    3  A    between atoms: C_4  and  C_5 
REMARK    4  A    between atoms: C_5  and  C_6 
REMARK    5  A    between atoms: C_5  and  N_9 
REMARK       I    between atoms: N_9  and  C_10 
REMARK    6  A    between atoms: C_10  and  C_11 
REMARK    7  A    between atoms: C_11  and  C_12 
REMARK    8  A    between atoms: C_11  and  N_24 
REMARK    9  A    between atoms: C_12  and  C_13 
REMARK   10  A    between atoms: C_16  and  O_17 
REMARK   11  A    between atoms: O_17  and  P_18 
REMARK   12  A    between atoms: P_18  and  O_19 
ROOT
HETATM    1  C           1     -33.075  -4.714 -16.898  0.00  0.00     0.278 C 
ENDROOT
BRANCH   1   2
HETATM    2  C           1     -33.813  -4.649 -15.584  0.00  0.00     0.249 C 
HETATM    3  N           1     -33.222  -4.066 -14.495  0.00  0.00    -0.345 N 
HETATM    4  H           1     -32.290  -3.678 -14.571  0.00  0.00     0.163 HD
HETATM    5  O           1     -34.924  -5.113 -15.492  0.00  0.00    -0.271 OA
BRANCH   3   6
HETATM    6  C           1     -33.932  -4.004 -13.232  0.00  0.00     0.185 C 
BRANCH   6   7
HETATM    7  C           1     -32.944  -4.173 -12.084  0.00  0.00     0.036 C 
BRANCH   7   8
HETATM    8  C           1     -33.163  -5.526 -11.421  0.00  0.00     0.003 C 
BRANCH   8   9
HETATM    9 Se           1     -34.906  -5.549 -10.548  0.00  0.00     0.000 Se
HETATM   10  C           1     -34.775  -7.405  -9.971  0.00  0.00     0.000 C 
ENDBRANCH   8   9
ENDBRANCH   7   8
ENDBRANCH   6   7
BRANCH   6  11
HETATM   11  C           1     -34.620  -2.667 -13.108  0.00  0.00     0.196 C 
HETATM   12  O           1     -34.998  -2.062 -14.135  0.00  0.00    -0.646 OA
HETATM   13  O           1     -34.813  -2.165 -11.980  0.00  0.00    -0.646 OA
ENDBRANCH   6  11
ENDBRANCH   3   6
ENDBRANCH   1   2
BRANCH   1  14
HETATM   14  C           1     -32.317  -6.031 -16.991  0.00  0.00     0.081 C 
BRANCH  14  15
HETATM   15  C           1     -30.846  -5.770 -16.896  0.00  0.00    -0.056 A 
HETATM   16  C           1     -30.266  -5.493 -15.659  0.00  0.00     0.010 A 
HETATM   17  C           1     -28.895  -5.249 -15.571  0.00  0.00     0.038 A 
HETATM   18  C           1     -28.105  -5.283 -16.720  0.00  0.00     0.081 A 
HETATM   19  C           1     -28.686  -5.559 -17.957  0.00  0.00     0.038 A 
HETATM   20  C           1     -30.056  -5.803 -18.046  0.00  0.00     0.010 A 
BRANCH  18  21
HETATM   21  O           1     -26.774  -5.045 -16.634  0.00  0.00    -0.247 OA
BRANCH  21  22
HETATM   22  P           1     -25.802  -6.287 -16.286  0.00  0.00     0.411 P 
HETATM   23  O           1     -26.577  -7.341 -15.594  0.00  0.00    -0.624 OA
HETATM   24  O           1     -25.231  -6.832 -17.538  0.00  0.00    -0.624 OA
BRANCH  22  25
HETATM   25  O           1     -24.606  -5.780 -15.325  0.00  0.00    -0.300 OA
HETATM   26  H           1     -23.845  -5.750 -15.880  0.00  0.00     0.223 HD
ENDBRANCH  22  25
ENDBRANCH  21  22
ENDBRANCH  18  21
ENDBRANCH  14  15
ENDBRANCH   1  14
BRANCH   1  27
HETATM   27  N           1     -32.105  -3.573 -16.983  0.00  0.00    -0.066 N 
HETATM   28  H           1     -32.005  -3.274 -17.980  0.00  0.00     0.275 HD
HETATM   29  H           1     -32.458  -2.772 -16.414  0.00  0.00     0.275 HD
HETATM   30  H           1     -31.176  -3.878 -16.617  0.00  0.00     0.275 HD
ENDBRANCH   1  27
TORSDOF 12
ENDMDL
MODEL 7
REMARK VINA RESULT:      -6.8     13.518     15.040
REMARK  12 active torsions:
REMARK  status: ('A' for Active; 'I' for Inactive)
REMARK    1  A    between atoms: Se_2  and  C_3 
REMARK    2  A    between atoms: C_3  and  C_4 
REMARK    3  A    between atoms: C_4  and  C_5 
REMARK    4  A    between atoms: C_5  and  C_6 
REMARK    5  A    between atoms: C_5  and  N_9 
REMARK       I    between atoms: N_9  and  C_10 
REMARK    6  A    between atoms: C_10  and  C_11 
REMARK    7  A    between atoms: C_11  and  C_12 
REMARK    8  A    between atoms: C_11  and  N_24 
REMARK    9  A    between atoms: C_12  and  C_13 
REMARK   10  A    between atoms: C_16  and  O_17 
REMARK   11  A    between atoms: O_17  and  P_18 
REMARK   12  A    between atoms: P_18  and  O_19 
ROOT
HETATM    1  C           1     -21.481  -6.627  -4.908  0.00  0.00     0.278 C 
ENDROOT
BRANCH   1   2
HETATM    2  C           1     -20.876  -7.999  -4.737  0.00  0.00     0.249 C 
HETATM    3  N           1     -19.520  -8.166  -4.835  0.00  0.00    -0.345 N 
HETATM    4  H           1     -18.924  -7.370  -5.020  0.00  0.00     0.163 HD
HETATM    5  O           1     -21.587  -8.950  -4.517  0.00  0.00    -0.271 OA
BRANCH   3   6
HETATM    6  C           1     -18.939  -9.484  -4.671  0.00  0.00     0.185 C 
BRANCH   6   7
HETATM    7  C           1     -17.915  -9.730  -5.772  0.00  0.00     0.036 C 
BRANCH   7   8
HETATM    8  C           1     -17.909 -11.207  -6.140  0.00  0.00     0.003 C 
BRANCH   8   9
HETATM    9 Se           1     -19.730 -11.900  -6.077  0.00  0.00     0.000 Se
HETATM   10  C           1     -19.625 -12.794  -7.805  0.00  0.00     0.000 C 
ENDBRANCH   8   9
ENDBRANCH   7   8
ENDBRANCH   6   7
BRANCH   6  11
HETATM   11  C           1     -18.259  -9.570  -3.327  0.00  0.00     0.196 C 
HETATM   12  O           1     -17.030  -9.356  -3.233  0.00  0.00    -0.646 OA
HETATM   13  O           1     -18.923  -9.854  -2.307  0.00  0.00    -0.646 OA
ENDBRANCH   6  11
ENDBRANCH   3   6
ENDBRANCH   1   2
BRANCH   1  14
HETATM   14  C           1     -20.450  -5.690  -5.520  0.00  0.00     0.081 C 
BRANCH  14  15
HETATM   15  C           1     -20.992  -5.112  -6.791  0.00  0.00    -0.056 A 
HETATM   16  C           1     -22.274  -4.565  -6.817  0.00  0.00     0.010 A 
HETATM   17  C           1     -22.779  -4.028  -8.001  0.00  0.00     0.038 A 
HETATM   18  C           1     -22.001  -4.037  -9.159  0.00  0.00     0.081 A 
HETATM   19  C           1     -20.719  -4.585  -9.132  0.00  0.00     0.038 A 
HETATM   20  C           1     -20.214  -5.123  -7.949  0.00  0.00     0.010 A 
BRANCH  18  21
HETATM   21  O           1     -22.492  -3.516 -10.309  0.00  0.00    -0.247 OA
BRANCH  21  22
HETATM   22  P           1     -23.812  -4.192 -10.947  0.00  0.00     0.411 P 
HETATM   23  O           1     -24.932  -3.227 -10.900  0.00  0.00    -0.624 OA
HETATM   24  O           1     -23.542  -4.569 -12.352  0.00  0.00    -0.624 OA
BRANCH  22  25
HETATM   25  O           1     -24.203  -5.511 -10.101  0.00  0.00    -0.300 OA
HETATM   26  H           1     -25.125  -5.425  -9.927  0.00  0.00     0.223 HD
ENDBRANCH  22  25
ENDBRANCH  21  22
ENDBRANCH  18  21
ENDBRANCH  14  15
ENDBRANCH   1  14
BRANCH   1  27
HETATM   27  N           1     -21.905  -6.099  -3.569  0.00  0.00    -0.066 N 
HETATM   28  H           1     -21.234  -5.360  -3.258  0.00  0.00     0.275 HD
HETATM   29  H           1     -22.862  -5.690  -3.643  0.00  0.00     0.275 HD
HETATM   30  H           1     -21.910  -6.879  -2.874  0.00  0.00     0.275 HD
ENDBRANCH   1  27
TORSDOF 12
ENDMDL
MODEL 8
REMARK VINA RESULT:      -6.5      1.788      2.431
REMARK  12 active torsions:
REMARK  status: ('A' for Active; 'I' for Inactive)
REMARK    1  A    between atoms: Se_2  and  C_3 
REMARK    2  A    between atoms: C_3  and  C_4 
REMARK    3  A    between atoms: C_4  and  C_5 
REMARK    4  A    between atoms: C_5  and  C_6 
REMARK    5  A    between atoms: C_5  and  N_9 
REMARK       I    between atoms: N_9  and  C_10 
REMARK    6  A    between atoms: C_10  and  C_11 
REMARK    7  A    between atoms: C_11  and  C_12 
REMARK    8  A    between atoms: C_11  and  N_24 
REMARK    9  A    between atoms: C_12  and  C_13 
REMARK   10  A    between atoms: C_16  and  O_17 
REMARK   11  A    between atoms: O_17  and  P_18 
REMARK   12  A    between atoms: P_18  and  O_19 
ROOT
HETATM    1  C           1     -32.830  -4.522 -16.635  0.00  0.00     0.278 C 
ENDROOT
BRANCH   1   2
HETATM    2  C           1     -33.721  -4.521 -15.417  0.00  0.00     0.249 C 
HETATM    3  N           1     -33.251  -4.036 -14.226  0.00  0.00    -0.345 N 
HETATM    4  H           1     -32.307  -3.677 -14.163  0.00  0.00     0.163 HD
HETATM    5  O           1     -34.848  -4.949 -15.493  0.00  0.00    -0.271 OA
BRANCH   3   6
HETATM    6  C           1     -34.108  -4.035 -13.056  0.00  0.00     0.185 C 
BRANCH   6   7
HETATM    7  C           1     -33.253  -4.151 -11.800  0.00  0.00     0.036 C 
BRANCH   7   8
HETATM    8  C           1     -33.279  -5.589 -11.300  0.00  0.00     0.003 C 
BRANCH   8   9
HETATM    9 Se           1     -34.866  -5.868 -10.203  0.00  0.00     0.000 Se
HETATM   10  C           1     -34.692  -7.808 -10.153  0.00  0.00     0.000 C 
ENDBRANCH   8   9
ENDBRANCH   7   8
ENDBRANCH   6   7
BRANCH   6  11
HETATM   11  C           1     -34.893  -2.747 -13.010  0.00  0.00     0.196 C 
HETATM   12  O           1     -34.775  -1.910 -13.932  0.00  0.00    -0.646 OA
HETATM   13  O           1     -35.661  -2.517 -12.052  0.00  0.00    -0.646 OA
ENDBRANCH   6  11
ENDBRANCH   3   6
ENDBRANCH   1   2
BRANCH   1  14
HETATM   14  C           1     -31.374  -4.454 -16.199  0.00  0.00     0.081 C 
BRANCH  14  15
HETATM   15  C           1     -30.530  -5.249 -17.147  0.00  0.00    -0.056 A 
HETATM   16  C           1     -30.701  -6.630 -17.241  0.00  0.00     0.010 A 
HETATM   17  C           1     -29.915  -7.371 -18.124  0.00  0.00     0.038 A 
HETATM   18  C           1     -28.958  -6.731 -18.912  0.00  0.00     0.081 A 
HETATM   19  C           1     -28.787  -5.350 -18.817  0.00  0.00     0.038 A 
HETATM   20  C           1     -29.573  -4.609 -17.934  0.00  0.00     0.010 A 
BRANCH  18  21
HETATM   21  O           1     -28.195  -7.451 -19.769  0.00  0.00    -0.247 OA
BRANCH  21  22
HETATM   22  P           1     -26.689  -6.941 -20.055  0.00  0.00     0.411 P 
HETATM   23  O           1     -25.969  -7.956 -20.855  0.00  0.00    -0.624 OA
HETATM   24  O           1     -26.735  -5.664 -20.802  0.00  0.00    -0.624 OA
BRANCH  22  25
HETATM   25  O           1     -25.921  -6.717 -18.652  0.00  0.00    -0.300 OA
HETATM   26  H           1     -26.350  -5.977 -18.255  0.00  0.00     0.223 HD
ENDBRANCH  22  25
ENDBRANCH  21  22
ENDBRANCH  18  21
ENDBRANCH  14  15
ENDBRANCH   1  14
BRANCH   1  27
HETATM   27  N           1     -33.153  -3.333 -17.491  0.00  0.00    -0.066 N 
HETATM   28  H           1     -33.906  -2.770 -17.035  0.00  0.00     0.275 HD
HETATM   29  H           1     -32.299  -2.745 -17.607  0.00  0.00     0.275 HD
HETATM   30  H           1     -33.482  -3.659 -18.428  0.00  0.00     0.275 HD
ENDBRANCH   1  27
TORSDOF 12
ENDMDL
MODEL 9
REMARK VINA RESULT:      -6.4     12.726     14.598
REMARK  12 active torsions:
REMARK  status: ('A' for Active; 'I' for Inactive)
REMARK    1  A    between atoms: Se_2  and  C_3 
REMARK    2  A    between atoms: C_3  and  C_4 
REMARK    3  A    between atoms: C_4  and  C_5 
REMARK    4  A    between atoms: C_5  and  C_6 
REMARK    5  A    between atoms: C_5  and  N_9 
REMARK       I    between atoms: N_9  and  C_10 
REMARK    6  A    between atoms: C_10  and  C_11 
REMARK    7  A    between atoms: C_11  and  C_12 
REMARK    8  A    between atoms: C_11  and  N_24 
REMARK    9  A    between atoms: C_12  and  C_13 
REMARK   10  A    between atoms: C_16  and  O_17 
REMARK   11  A    between atoms: O_17  and  P_18 
REMARK   12  A    between atoms: P_18  and  O_19 
ROOT
HETATM    1  C           1     -21.203  -7.433  -4.876  0.00  0.00     0.278 C 
ENDROOT
BRANCH   1   2
HETATM    2  C           1     -20.817  -8.881  -4.703  0.00  0.00     0.249 C 
HETATM    3  N           1     -20.903  -9.744  -5.763  0.00  0.00    -0.345 N 
HETATM    4  H           1     -21.224  -9.410  -6.663  0.00  0.00     0.163 HD
HETATM    5  O           1     -20.435  -9.280  -3.629  0.00  0.00    -0.271 OA
BRANCH   3   6
HETATM    6  C           1     -20.533 -11.136  -5.596  0.00  0.00     0.185 C 
BRANCH   6   7
HETATM    7  C           1     -21.593 -12.025  -6.234  0.00  0.00     0.036 C 
BRANCH   7   8
HETATM    8  C           1     -22.068 -13.056  -5.220  0.00  0.00     0.003 C 
BRANCH   8   9
HETATM    9 Se           1     -23.440 -14.181  -6.030  0.00  0.00     0.000 Se
HETATM   10  C           1     -23.684 -15.301  -4.454  0.00  0.00     0.000 C 
ENDBRANCH   8   9
ENDBRANCH   7   8
ENDBRANCH   6   7
BRANCH   6  11
HETATM   11  C           1     -19.203 -11.385  -6.263  0.00  0.00     0.196 C 
HETATM   12  O           1     -19.158 -11.676  -7.478  0.00  0.00    -0.646 OA
HETATM   13  O           1     -18.146 -11.300  -5.601  0.00  0.00    -0.646 OA
ENDBRANCH   6  11
ENDBRANCH   3   6
ENDBRANCH   1   2
BRANCH   1  14
HETATM   14  C           1     -20.186  -6.741  -5.774  0.00  0.00     0.081 C 
BRANCH  14  15
HETATM   15  C           1     -20.898  -5.833  -6.729  0.00  0.00    -0.056 A 
HETATM   16  C           1     -20.302  -5.493  -7.942  0.00  0.00     0.010 A 
HETATM   17  C           1     -20.966  -4.647  -8.831  0.00  0.00     0.038 A 
HETATM   18  C           1     -22.225  -4.142  -8.507  0.00  0.00     0.081 A 
HETATM   19  C           1     -22.820  -4.483  -7.292  0.00  0.00     0.038 A 
HETATM   20  C           1     -22.157  -5.328  -6.403  0.00  0.00     0.010 A 
BRANCH  18  21
HETATM   21  O           1     -22.869  -3.321  -9.370  0.00  0.00    -0.247 OA
BRANCH  21  22
HETATM   22  P           1     -23.667  -3.990 -10.604  0.00  0.00     0.411 P 
HETATM   23  O           1     -24.057  -5.372 -10.247  0.00  0.00    -0.624 OA
HETATM   24  O           1     -24.879  -3.193 -10.897  0.00  0.00    -0.624 OA
BRANCH  22  25
HETATM   25  O           1     -22.714  -4.020 -11.908  0.00  0.00    -0.300 OA
HETATM   26  H           1     -22.333  -4.882 -11.912  0.00  0.00     0.223 HD
ENDBRANCH  22  25
ENDBRANCH  21  22
ENDBRANCH  18  21
ENDBRANCH  14  15
ENDBRANCH   1  14
BRANCH   1  27
HETATM   27  N           1     -21.228  -6.759  -3.536  0.00  0.00    -0.066 N 
HETATM   28  H           1     -20.292  -6.336  -3.342  0.00  0.00     0.275 HD
HETATM   29  H           1     -21.956  -6.010  -3.536  0.00  0.00     0.275 HD
HETATM   30  H           1     -21.451  -7.463  -2.797  0.00  0.00     0.275 HD
ENDBRANCH   1  27
TORSDOF 12
ENDMDL
