MODEL 1
REMARK VINA RESULT:      -5.7      0.000      0.000
REMARK  6 active torsions:
REMARK  status: ('A' for Active; 'I' for Inactive)
REMARK    1  A    between atoms: C_3  and  C_15 
REMARK    2  A    between atoms: N_8  and  C_13 
REMARK    3  A    between atoms: N_11  and  C_15 
REMARK       I    between atoms: N_11  and  C_12 
REMARK    4  A    between atoms: C_12  and  C_13 
REMARK    5  A    between atoms: C_13  and  C_16 
REMARK    6  A    between atoms: C_16  and  C_18 
ROOT
HETATM    1  H           1     -27.438  -8.146 -18.747  0.00  0.00     0.163 HD
HETATM    2  O           1     -28.414  -5.190 -19.137  0.00  0.00    -0.271 OA
HETATM    3  N           1     -27.506  -7.230 -19.172  0.00  0.00    -0.345 N 
HETATM    4  C           1     -28.334  -6.284 -18.629  0.00  0.00     0.249 C 
ENDROOT
BRANCH   4   5
HETATM    5  C           1     -29.143  -6.606 -17.398  0.00  0.00     0.278 C 
BRANCH   5   6
HETATM    6  N           1     -29.320  -8.091 -17.290  0.00  0.00    -0.066 N 
HETATM    7  H           1     -28.382  -8.552 -17.261  0.00  0.00     0.275 HD
HETATM    8  H           1     -29.854  -8.440 -18.118  0.00  0.00     0.275 HD
HETATM    9  H           1     -29.846  -8.318 -16.417  0.00  0.00     0.275 HD
ENDBRANCH   5   6
BRANCH   5  10
HETATM   10  C           1     -28.417  -6.091 -16.162  0.00  0.00     0.021 C 
HETATM   11  C           1     -29.437  -5.653 -15.119  0.00  0.00     0.012 C 
BRANCH  10  12
HETATM   12  C           1     -27.547  -7.201 -15.586  0.00  0.00     0.002 C 
HETATM   13  C           1     -26.078  -6.859 -15.801  0.00  0.00     0.005 C 
ENDBRANCH  10  12
ENDBRANCH   5  10
ENDBRANCH   4   5
BRANCH   3  14
HETATM   14  C           1     -26.727  -6.920 -20.355  0.00  0.00     0.181 C 
HETATM   15  C           1     -25.329  -6.481 -19.942  0.00  0.00     0.043 C 
BRANCH  14  16
HETATM   16  C           1     -26.633  -8.147 -21.228  0.00  0.00     0.196 C 
HETATM   17  O           1     -25.536  -8.471 -21.734  0.00  0.00    -0.646 OA
HETATM   18  O           1     -27.650  -8.840 -21.447  0.00  0.00    -0.646 OA
ENDBRANCH  14  16
ENDBRANCH   3  14
TORSDOF 6
ENDMDL
MODEL 2
REMARK VINA RESULT:      -5.5     10.667     12.437
REMARK  6 active torsions:
REMARK  status: ('A' for Active; 'I' for Inactive)
REMARK    1  A    between atoms: C_3  and  C_15 
REMARK    2  A    between atoms: N_8  and  C_13 
REMARK    3  A    between atoms: N_11  and  C_15 
REMARK       I    between atoms: N_11  and  C_12 
REMARK    4  A    between atoms: C_12  and  C_13 
REMARK    5  A    between atoms: C_13  and  C_16 
REMARK    6  A    between atoms: C_16  and  C_18 
ROOT
HETATM    1  H           1     -22.248  -5.712  -9.550  0.00  0.00     0.163 HD
HETATM    2  O           1     -21.682  -3.696  -7.214  0.00  0.00    -0.271 OA
HETATM    3  N           1     -22.216  -4.824  -9.066  0.00  0.00    -0.345 N 
HETATM    4  C           1     -21.720  -4.756  -7.791  0.00  0.00     0.249 C 
ENDROOT
BRANCH   4   5
HETATM    5  C           1     -21.221  -6.006  -7.109  0.00  0.00     0.278 C 
BRANCH   5   6
HETATM    6  N           1     -19.753  -6.166  -7.372  0.00  0.00    -0.066 N 
HETATM    7  H           1     -19.552  -5.942  -8.373  0.00  0.00     0.275 HD
HETATM    8  H           1     -19.469  -7.152  -7.171  0.00  0.00     0.275 HD
HETATM    9  H           1     -19.215  -5.517  -6.755  0.00  0.00     0.275 HD
ENDBRANCH   5   6
BRANCH   5  10
HETATM   10  C           1     -21.457  -5.895  -5.608  0.00  0.00     0.021 C 
HETATM   11  C           1     -22.897  -6.281  -5.291  0.00  0.00     0.012 C 
BRANCH  10  12
HETATM   12  C           1     -20.508  -6.834  -4.875  0.00  0.00     0.002 C 
HETATM   13  C           1     -21.213  -8.156  -4.600  0.00  0.00     0.005 C 
ENDBRANCH  10  12
ENDBRANCH   5  10
ENDBRANCH   4   5
BRANCH   3  14
HETATM   14  C           1     -22.696  -3.624  -9.722  0.00  0.00     0.181 C 
HETATM   15  C           1     -21.823  -3.324 -10.934  0.00  0.00     0.043 C 
BRANCH  14  16
HETATM   16  C           1     -24.122  -3.831 -10.167  0.00  0.00     0.196 C 
HETATM   17  O           1     -24.684  -2.975 -10.885  0.00  0.00    -0.646 OA
HETATM   18  O           1     -24.743  -4.859  -9.819  0.00  0.00    -0.646 OA
ENDBRANCH  14  16
ENDBRANCH   3  14
TORSDOF 6
ENDMDL
MODEL 3
REMARK VINA RESULT:      -5.3      2.202      3.037
REMARK  6 active torsions:
REMARK  status: ('A' for Active; 'I' for Inactive)
REMARK    1  A    between atoms: C_3  and  C_15 
REMARK    2  A    between atoms: N_8  and  C_13 
REMARK    3  A    between atoms: N_11  and  C_15 
REMARK       I    between atoms: N_11  and  C_12 
REMARK    4  A    between atoms: C_12  and  C_13 
REMARK    5  A    between atoms: C_13  and  C_16 
REMARK    6  A    between atoms: C_16  and  C_18 
ROOT
HETATM    1  H           1     -27.051  -7.509 -18.392  0.00  0.00     0.163 HD
HETATM    2  O           1     -26.426  -5.099 -16.484  0.00  0.00    -0.271 OA
HETATM    3  N           1     -26.510  -6.768 -17.965  0.00  0.00    -0.345 N 
HETATM    4  C           1     -27.072  -5.983 -16.994  0.00  0.00     0.249 C 
ENDROOT
BRANCH   4   5
HETATM    5  C           1     -28.497  -6.224 -16.560  0.00  0.00     0.278 C 
BRANCH   5   6
HETATM    6  N           1     -28.789  -5.414 -15.332  0.00  0.00    -0.066 N 
HETATM    7  H           1     -29.166  -6.038 -14.584  0.00  0.00     0.275 HD
HETATM    8  H           1     -29.496  -4.678 -15.561  0.00  0.00     0.275 HD
HETATM    9  H           1     -27.911  -4.959 -14.997  0.00  0.00     0.275 HD
ENDBRANCH   5   6
BRANCH   5  10
HETATM   10  C           1     -29.446  -5.813 -17.677  0.00  0.00     0.021 C 
HETATM   11  C           1     -30.868  -6.219 -17.311  0.00  0.00     0.012 C 
BRANCH  10  12
HETATM   12  C           1     -29.384  -4.302 -17.865  0.00  0.00     0.002 C 
HETATM   13  C           1     -30.771  -3.707 -17.661  0.00  0.00     0.005 C 
ENDBRANCH  10  12
ENDBRANCH   5  10
ENDBRANCH   4   5
BRANCH   3  14
HETATM   14  C           1     -25.141  -6.537 -18.383  0.00  0.00     0.181 C 
HETATM   15  C           1     -24.198  -7.341 -17.498  0.00  0.00     0.043 C 
BRANCH  14  16
HETATM   16  C           1     -24.975  -6.968 -19.819  0.00  0.00     0.196 C 
HETATM   17  O           1     -24.097  -7.805 -20.123  0.00  0.00    -0.646 OA
HETATM   18  O           1     -25.714  -6.488 -20.706  0.00  0.00    -0.646 OA
ENDBRANCH  14  16
ENDBRANCH   3  14
TORSDOF 6
ENDMDL
MODEL 4
REMARK VINA RESULT:      -5.2     12.064     14.019
REMARK  6 active torsions:
REMARK  status: ('A' for Active; 'I' for Inactive)
REMARK    1  A    between atoms: C_3  and  C_15 
REMARK    2  A    between atoms: N_8  and  C_13 
REMARK    3  A    between atoms: N_11  and  C_15 
REMARK       I    between atoms: N_11  and  C_12 
REMARK    4  A    between atoms: C_12  and  C_13 
REMARK    5  A    between atoms: C_13  and  C_16 
REMARK    6  A    between atoms: C_16  and  C_18 
ROOT
HETATM    1  H           1     -22.091  -6.979  -6.553  0.00  0.00     0.163 HD
HETATM    2  O           1     -20.854  -4.107  -6.312  0.00  0.00    -0.271 OA
HETATM    3  N           1     -21.553  -6.221  -6.153  0.00  0.00    -0.345 N 
HETATM    4  C           1     -21.496  -5.011  -6.791  0.00  0.00     0.249 C 
ENDROOT
BRANCH   4   5
HETATM    5  C           1     -22.235  -4.807  -8.090  0.00  0.00     0.278 C 
BRANCH   5   6
HETATM    6  N           1     -23.521  -4.083  -7.825  0.00  0.00    -0.066 N 
HETATM    7  H           1     -23.747  -4.135  -6.806  0.00  0.00     0.275 HD
HETATM    8  H           1     -24.291  -4.526  -8.375  0.00  0.00     0.275 HD
HETATM    9  H           1     -23.423  -3.082  -8.109  0.00  0.00     0.275 HD
ENDBRANCH   5   6
BRANCH   5  10
HETATM   10  C           1     -21.376  -3.984  -9.040  0.00  0.00     0.021 C 
HETATM   11  C           1     -20.133  -4.779  -9.420  0.00  0.00     0.012 C 
BRANCH  10  12
HETATM   12  C           1     -22.175  -3.662 -10.297  0.00  0.00     0.002 C 
HETATM   13  C           1     -21.228  -3.211 -11.400  0.00  0.00     0.005 C 
ENDBRANCH  10  12
ENDBRANCH   5  10
ENDBRANCH   4   5
BRANCH   3  14
HETATM   14  C           1     -20.843  -6.418  -4.904  0.00  0.00     0.181 C 
HETATM   15  C           1     -21.841  -6.460  -3.754  0.00  0.00     0.043 C 
BRANCH  14  16
HETATM   16  C           1     -20.082  -7.719  -4.959  0.00  0.00     0.196 C 
HETATM   17  O           1     -20.011  -8.446  -3.944  0.00  0.00    -0.646 OA
HETATM   18  O           1     -19.521  -8.072  -6.020  0.00  0.00    -0.646 OA
ENDBRANCH  14  16
ENDBRANCH   3  14
TORSDOF 6
ENDMDL
MODEL 5
REMARK VINA RESULT:      -5.2     12.878     14.925
REMARK  6 active torsions:
REMARK  status: ('A' for Active; 'I' for Inactive)
REMARK    1  A    between atoms: C_3  and  C_15 
REMARK    2  A    between atoms: N_8  and  C_13 
REMARK    3  A    between atoms: N_11  and  C_15 
REMARK       I    between atoms: N_11  and  C_12 
REMARK    4  A    between atoms: C_12  and  C_13 
REMARK    5  A    between atoms: C_13  and  C_16 
REMARK    6  A    between atoms: C_16  and  C_18 
ROOT
HETATM    1  H           1     -20.040  -6.391  -5.284  0.00  0.00     0.163 HD
HETATM    2  O           1     -22.949  -5.420  -5.943  0.00  0.00    -0.271 OA
HETATM    3  N           1     -21.050  -6.361  -5.239  0.00  0.00    -0.345 N 
HETATM    4  C           1     -21.742  -5.454  -5.997  0.00  0.00     0.249 C 
ENDROOT
BRANCH   4   5
HETATM    5  C           1     -20.999  -4.501  -6.898  0.00  0.00     0.278 C 
BRANCH   5   6
HETATM    6  N           1     -19.522  -4.687  -6.714  0.00  0.00    -0.066 N 
HETATM    7  H           1     -19.349  -5.527  -6.118  0.00  0.00     0.275 HD
HETATM    8  H           1     -19.120  -3.841  -6.250  0.00  0.00     0.275 HD
HETATM    9  H           1     -19.068  -4.821  -7.645  0.00  0.00     0.275 HD
ENDBRANCH   5   6
BRANCH   5  10
HETATM   10  C           1     -21.368  -4.780  -8.349  0.00  0.00     0.021 C 
HETATM   11  C           1     -22.373  -3.741  -8.827  0.00  0.00     0.012 C 
BRANCH  10  12
HETATM   12  C           1     -20.115  -4.708  -9.214  0.00  0.00     0.002 C 
HETATM   13  C           1     -20.500  -4.315 -10.634  0.00  0.00     0.005 C 
ENDBRANCH  10  12
ENDBRANCH   5  10
ENDBRANCH   4   5
BRANCH   3  14
HETATM   14  C           1     -21.764  -7.278  -4.372  0.00  0.00     0.181 C 
HETATM   15  C           1     -21.162  -8.670  -4.500  0.00  0.00     0.043 C 
BRANCH  14  16
HETATM   16  C           1     -21.651  -6.808  -2.943  0.00  0.00     0.196 C 
HETATM   17  O           1     -20.784  -7.303  -2.190  0.00  0.00    -0.646 OA
HETATM   18  O           1     -22.423  -5.926  -2.511  0.00  0.00    -0.646 OA
ENDBRANCH  14  16
ENDBRANCH   3  14
TORSDOF 6
ENDMDL
MODEL 6
REMARK VINA RESULT:      -5.0     14.161     15.824
REMARK  6 active torsions:
REMARK  status: ('A' for Active; 'I' for Inactive)
REMARK    1  A    between atoms: C_3  and  C_15 
REMARK    2  A    between atoms: N_8  and  C_13 
REMARK    3  A    between atoms: N_11  and  C_15 
REMARK       I    between atoms: N_11  and  C_12 
REMARK    4  A    between atoms: C_12  and  C_13 
REMARK    5  A    between atoms: C_13  and  C_16 
REMARK    6  A    between atoms: C_16  and  C_18 
ROOT
HETATM    1  H           1     -20.418  -4.816  -4.643  0.00  0.00     0.163 HD
HETATM    2  O           1     -22.375  -7.265  -4.754  0.00  0.00    -0.271 OA
HETATM    3  N           1     -21.049  -5.493  -5.051  0.00  0.00    -0.345 N 
HETATM    4  C           1     -21.621  -6.457  -4.265  0.00  0.00     0.249 C 
ENDROOT
BRANCH   4   5
HETATM    5  C           1     -21.312  -6.509  -2.790  0.00  0.00     0.278 C 
BRANCH   5   6
HETATM    6  N           1     -22.296  -5.659  -2.043  0.00  0.00    -0.066 N 
HETATM    7  H           1     -22.857  -6.260  -1.398  0.00  0.00     0.275 HD
HETATM    8  H           1     -22.934  -5.185  -2.722  0.00  0.00     0.275 HD
HETATM    9  H           1     -21.783  -4.937  -1.487  0.00  0.00     0.275 HD
ENDBRANCH   5   6
BRANCH   5  10
HETATM   10  C           1     -21.410  -7.947  -2.299  0.00  0.00     0.021 C 
HETATM   11  C           1     -20.010  -8.517  -2.111  0.00  0.00     0.012 C 
BRANCH  10  12
HETATM   12  C           1     -22.153  -7.980  -0.970  0.00  0.00     0.002 C 
HETATM   13  C           1     -21.226  -8.509   0.117  0.00  0.00     0.005 C 
ENDBRANCH  10  12
ENDBRANCH   5  10
ENDBRANCH   4   5
BRANCH   3  14
HETATM   14  C           1     -21.346  -5.443  -6.469  0.00  0.00     0.181 C 
HETATM   15  C           1     -21.730  -4.021  -6.857  0.00  0.00     0.043 C 
BRANCH  14  16
HETATM   16  C           1     -20.128  -5.867  -7.253  0.00  0.00     0.196 C 
HETATM   17  O           1     -19.500  -6.897  -6.923  0.00  0.00    -0.646 OA
HETATM   18  O           1     -19.746  -5.189  -8.231  0.00  0.00    -0.646 OA
ENDBRANCH  14  16
ENDBRANCH   3  14
TORSDOF 6
ENDMDL
MODEL 7
REMARK VINA RESULT:      -4.9     15.758     17.534
REMARK  6 active torsions:
REMARK  status: ('A' for Active; 'I' for Inactive)
REMARK    1  A    between atoms: C_3  and  C_15 
REMARK    2  A    between atoms: N_8  and  C_13 
REMARK    3  A    between atoms: N_11  and  C_15 
REMARK       I    between atoms: N_11  and  C_12 
REMARK    4  A    between atoms: C_12  and  C_13 
REMARK    5  A    between atoms: C_13  and  C_16 
REMARK    6  A    between atoms: C_16  and  C_18 
ROOT
HETATM    1  H           1     -22.425  -7.100  -2.797  0.00  0.00     0.163 HD
HETATM    2  O           1     -19.658  -8.422  -2.137  0.00  0.00    -0.271 OA
HETATM    3  N           1     -21.485  -7.439  -2.960  0.00  0.00    -0.345 N 
HETATM    4  C           1     -20.779  -8.017  -1.940  0.00  0.00     0.249 C 
ENDROOT
BRANCH   4   5
HETATM    5  C           1     -21.400  -8.149  -0.572  0.00  0.00     0.278 C 
BRANCH   5   6
HETATM    6  N           1     -22.578  -7.227  -0.467  0.00  0.00    -0.066 N 
HETATM    7  H           1     -22.661  -6.666  -1.345  0.00  0.00     0.275 HD
HETATM    8  H           1     -22.446  -6.585   0.347  0.00  0.00     0.275 HD
HETATM    9  H           1     -23.449  -7.787  -0.329  0.00  0.00     0.275 HD
ENDBRANCH   5   6
BRANCH   5  10
HETATM   10  C           1     -21.860  -9.585  -0.358  0.00  0.00     0.021 C 
HETATM   11  C           1     -21.043 -10.219   0.760  0.00  0.00     0.012 C 
BRANCH  10  12
HETATM   12  C           1     -23.334  -9.594   0.024  0.00  0.00     0.002 C 
HETATM   13  C           1     -23.921 -10.974  -0.244  0.00  0.00     0.005 C 
ENDBRANCH  10  12
ENDBRANCH   5  10
ENDBRANCH   4   5
BRANCH   3  14
HETATM   14  C           1     -20.889  -7.312  -4.276  0.00  0.00     0.181 C 
HETATM   15  C           1     -21.270  -8.517  -5.125  0.00  0.00     0.043 C 
BRANCH  14  16
HETATM   16  C           1     -21.391  -6.052  -4.935  0.00  0.00     0.196 C 
HETATM   17  O           1     -20.600  -5.113  -5.173  0.00  0.00    -0.646 OA
HETATM   18  O           1     -22.597  -5.945  -5.244  0.00  0.00    -0.646 OA
ENDBRANCH  14  16
ENDBRANCH   3  14
TORSDOF 6
ENDMDL
MODEL 8
REMARK VINA RESULT:      -4.8     15.041     16.738
REMARK  6 active torsions:
REMARK  status: ('A' for Active; 'I' for Inactive)
REMARK    1  A    between atoms: C_3  and  C_15 
REMARK    2  A    between atoms: N_8  and  C_13 
REMARK    3  A    between atoms: N_11  and  C_15 
REMARK       I    between atoms: N_11  and  C_12 
REMARK    4  A    between atoms: C_12  and  C_13 
REMARK    5  A    between atoms: C_13  and  C_16 
REMARK    6  A    between atoms: C_16  and  C_18 
ROOT
HETATM    1  H           1     -20.385  -7.850  -3.700  0.00  0.00     0.163 HD
HETATM    2  O           1     -22.545  -5.993  -2.388  0.00  0.00    -0.271 OA
HETATM    3  N           1     -21.065  -7.104  -3.637  0.00  0.00    -0.345 N 
HETATM    4  C           1     -21.734  -6.885  -2.463  0.00  0.00     0.249 C 
ENDROOT
BRANCH   4   5
HETATM    5  C           1     -21.457  -7.756  -1.263  0.00  0.00     0.278 C 
BRANCH   5   6
HETATM    6  N           1     -22.210  -7.229  -0.078  0.00  0.00    -0.066 N 
HETATM    7  H           1     -22.318  -7.989   0.632  0.00  0.00     0.275 HD
HETATM    8  H           1     -23.154  -6.900  -0.383  0.00  0.00     0.275 HD
HETATM    9  H           1     -21.684  -6.431   0.344  0.00  0.00     0.275 HD
ENDBRANCH   5   6
BRANCH   5  10
HETATM   10  C           1     -21.904  -9.182  -1.554  0.00  0.00     0.021 C 
HETATM   11  C           1     -20.690 -10.102  -1.567  0.00  0.00     0.012 C 
BRANCH  10  12
HETATM   12  C           1     -22.875  -9.640  -0.474  0.00  0.00     0.002 C 
HETATM   13  C           1     -23.632 -10.869  -0.960  0.00  0.00     0.005 C 
ENDBRANCH  10  12
ENDBRANCH   5  10
ENDBRANCH   4   5
BRANCH   3  14
HETATM   14  C           1     -21.331  -6.267  -4.791  0.00  0.00     0.181 C 
HETATM   15  C           1     -20.349  -5.103  -4.811  0.00  0.00     0.043 C 
BRANCH  14  16
HETATM   16  C           1     -21.172  -7.083  -6.050  0.00  0.00     0.196 C 
HETATM   17  O           1     -20.961  -6.512  -7.142  0.00  0.00    -0.646 OA
HETATM   18  O           1     -21.251  -8.329  -6.002  0.00  0.00    -0.646 OA
ENDBRANCH  14  16
ENDBRANCH   3  14
TORSDOF 6
ENDMDL
MODEL 9
REMARK VINA RESULT:      -4.8     15.966     17.748
REMARK  6 active torsions:
REMARK  status: ('A' for Active; 'I' for Inactive)
REMARK    1  A    between atoms: C_3  and  C_15 
REMARK    2  A    between atoms: N_8  and  C_13 
REMARK    3  A    between atoms: N_11  and  C_15 
REMARK       I    between atoms: N_11  and  C_12 
REMARK    4  A    between atoms: C_12  and  C_13 
REMARK    5  A    between atoms: C_13  and  C_16 
REMARK    6  A    between atoms: C_16  and  C_18 
ROOT
HETATM    1  H           1     -22.637  -8.970  -3.291  0.00  0.00     0.163 HD
HETATM    2  O           1     -19.812  -9.222  -1.952  0.00  0.00    -0.271 OA
HETATM    3  N           1     -21.666  -8.755  -3.105  0.00  0.00    -0.345 N 
HETATM    4  C           1     -20.971  -9.479  -2.173  0.00  0.00     0.249 C 
ENDROOT
BRANCH   4   5
HETATM    5  C           1     -21.653 -10.597  -1.424  0.00  0.00     0.278 C 
BRANCH   5   6
HETATM    6  N           1     -20.703 -11.179  -0.421  0.00  0.00    -0.066 N 
HETATM    7  H           1     -20.307 -10.413   0.170  0.00  0.00     0.275 HD
HETATM    8  H           1     -19.928 -11.671  -0.921  0.00  0.00     0.275 HD
HETATM    9  H           1     -21.211 -11.860   0.187  0.00  0.00     0.275 HD
ENDBRANCH   5   6
BRANCH   5  10
HETATM   10  C           1     -22.880 -10.053  -0.704  0.00  0.00     0.021 C 
HETATM   11  C           1     -23.721 -11.213  -0.186  0.00  0.00     0.012 C 
BRANCH  10  12
HETATM   12  C           1     -22.437  -9.186   0.468  0.00  0.00     0.002 C 
HETATM   13  C           1     -23.075  -7.808   0.351  0.00  0.00     0.005 C 
ENDBRANCH  10  12
ENDBRANCH   5  10
ENDBRANCH   4   5
BRANCH   3  14
HETATM   14  C           1     -21.011  -7.681  -3.825  0.00  0.00     0.181 C 
HETATM   15  C           1     -20.796  -8.097  -5.274  0.00  0.00     0.043 C 
BRANCH  14  16
HETATM   16  C           1     -21.875  -6.445  -3.779  0.00  0.00     0.196 C 
HETATM   17  O           1     -22.175  -5.933  -2.678  0.00  0.00    -0.646 OA
HETATM   18  O           1     -22.292  -5.933  -4.840  0.00  0.00    -0.646 OA
ENDBRANCH  14  16
ENDBRANCH   3  14
TORSDOF 6
ENDMDL
