MODEL 1
REMARK VINA RESULT:      -6.3      0.000      0.000
REMARK  8 active torsions:
REMARK  status: ('A' for Active; 'I' for Inactive)
REMARK       I    between atoms: C_2  and  N_3 
REMARK    1  A    between atoms: C_2  and  C_12 
REMARK    2  A    between atoms: N_3  and  C_7 
REMARK    3  A    between atoms: C_5  and  C_14 
REMARK    4  A    between atoms: C_5  and  C_6 
REMARK    5  A    between atoms: C_6  and  N_20 
REMARK    6  A    between atoms: C_7  and  C_8 
REMARK    7  A    between atoms: C_12  and  C_14 
REMARK    8  A    between atoms: C_12  and  N_19 
ROOT
HETATM    1  C           1     -34.306  -2.331 -11.997  0.00  0.00     0.274 C 
ENDROOT
BRANCH   1   2
HETATM    2  C           1     -35.281  -1.577 -12.868  0.00  0.00     0.249 C 
HETATM    3  N           1     -34.874  -1.075 -14.075  0.00  0.00    -0.345 N 
HETATM    4  H           1     -33.920  -1.211 -14.384  0.00  0.00     0.163 HD
HETATM    5  O           1     -36.420  -1.413 -12.499  0.00  0.00    -0.271 OA
BRANCH   3   6
HETATM    6  C           1     -35.810  -0.350 -14.912  0.00  0.00     0.181 C 
HETATM    7  C           1     -35.391   1.111 -14.994  0.00  0.00     0.043 C 
BRANCH   6   8
HETATM    8  C           1     -35.816  -0.952 -16.296  0.00  0.00     0.196 C 
HETATM    9  O           1     -36.777  -0.740 -17.066  0.00  0.00    -0.646 OA
HETATM   10  O           1     -34.859  -1.662 -16.673  0.00  0.00    -0.646 OA
ENDBRANCH   6   8
ENDBRANCH   3   6
ENDBRANCH   1   2
BRANCH   1  11
HETATM   11  C           1     -34.965  -3.602 -11.479  0.00  0.00     0.044 C 
BRANCH  11  12
HETATM   12  C           1     -33.984  -4.358 -10.592  0.00  0.00     0.030 C 
BRANCH  12  13
HETATM   13  C           1     -33.970  -5.828 -10.987  0.00  0.00     0.230 C 
BRANCH  13  14
HETATM   14  N           1     -34.747  -6.014 -12.256  0.00  0.00    -0.079 N 
HETATM   15  H           1     -34.096  -5.968 -13.072  0.00  0.00     0.274 HD
HETATM   16  H           1     -35.221  -6.944 -12.241  0.00  0.00     0.274 HD
HETATM   17  H           1     -35.464  -5.258 -12.337  0.00  0.00     0.274 HD
ENDBRANCH  13  14
ENDBRANCH  12  13
ENDBRANCH  11  12
ENDBRANCH   1  11
BRANCH   1  18
HETATM   18  N           1     -33.902  -1.470 -10.837  0.00  0.00    -0.067 N 
HETATM   19  H           1     -34.756  -1.146 -10.329  0.00  0.00     0.275 HD
HETATM   20  H           1     -33.370  -0.641 -11.187  0.00  0.00     0.275 HD
HETATM   21  H           1     -33.298  -2.021 -10.187  0.00  0.00     0.275 HD
ENDBRANCH   1  18
TORSDOF 8
ENDMDL
MODEL 2
REMARK VINA RESULT:      -5.9      2.199      5.425
REMARK  8 active torsions:
REMARK  status: ('A' for Active; 'I' for Inactive)
REMARK       I    between atoms: C_2  and  N_3 
REMARK    1  A    between atoms: C_2  and  C_12 
REMARK    2  A    between atoms: N_3  and  C_7 
REMARK    3  A    between atoms: C_5  and  C_14 
REMARK    4  A    between atoms: C_5  and  C_6 
REMARK    5  A    between atoms: C_6  and  N_20 
REMARK    6  A    between atoms: C_7  and  C_8 
REMARK    7  A    between atoms: C_12  and  C_14 
REMARK    8  A    between atoms: C_12  and  N_19 
ROOT
HETATM    1  C           1     -36.122   0.187 -13.404  0.00  0.00     0.274 C 
ENDROOT
BRANCH   1   2
HETATM    2  C           1     -35.332  -1.098 -13.378  0.00  0.00     0.249 C 
HETATM    3  N           1     -34.944  -1.640 -12.182  0.00  0.00    -0.345 N 
HETATM    4  H           1     -35.189  -1.179 -11.315  0.00  0.00     0.163 HD
HETATM    5  O           1     -35.038  -1.648 -14.413  0.00  0.00    -0.271 OA
BRANCH   3   6
HETATM    6  C           1     -34.185  -2.874 -12.157  0.00  0.00     0.181 C 
HETATM    7  C           1     -33.123  -2.794 -11.068  0.00  0.00     0.043 C 
BRANCH   6   8
HETATM    8  C           1     -35.113  -4.029 -11.871  0.00  0.00     0.196 C 
HETATM    9  O           1     -35.120  -5.026 -12.625  0.00  0.00    -0.646 OA
HETATM   10  O           1     -35.875  -3.989 -10.881  0.00  0.00    -0.646 OA
ENDBRANCH   6   8
ENDBRANCH   3   6
ENDBRANCH   1   2
BRANCH   1  11
HETATM   11  C           1     -37.531  -0.093 -13.910  0.00  0.00     0.044 C 
BRANCH  11  12
HETATM   12  C           1     -37.680   0.451 -15.325  0.00  0.00     0.030 C 
BRANCH  12  13
HETATM   13  C           1     -37.732  -0.708 -16.312  0.00  0.00     0.230 C 
BRANCH  13  14
HETATM   14  N           1     -36.440  -0.778 -17.071  0.00  0.00    -0.079 N 
HETATM   15  H           1     -36.353  -1.716 -17.522  0.00  0.00     0.274 HD
HETATM   16  H           1     -36.429  -0.035 -17.806  0.00  0.00     0.274 HD
HETATM   17  H           1     -35.642  -0.629 -16.414  0.00  0.00     0.274 HD
ENDBRANCH  13  14
ENDBRANCH  12  13
ENDBRANCH  11  12
ENDBRANCH   1  11
BRANCH   1  18
HETATM   18  N           1     -35.450   1.169 -14.317  0.00  0.00    -0.067 N 
HETATM   19  H           1     -34.555   0.761 -14.670  0.00  0.00     0.275 HD
HETATM   20  H           1     -35.249   2.050 -13.793  0.00  0.00     0.275 HD
HETATM   21  H           1     -36.078   1.381 -15.124  0.00  0.00     0.275 HD
ENDBRANCH   1  18
TORSDOF 8
ENDMDL
MODEL 3
REMARK VINA RESULT:      -5.8     13.263     14.551
REMARK  8 active torsions:
REMARK  status: ('A' for Active; 'I' for Inactive)
REMARK       I    between atoms: C_2  and  N_3 
REMARK    1  A    between atoms: C_2  and  C_12 
REMARK    2  A    between atoms: N_3  and  C_7 
REMARK    3  A    between atoms: C_5  and  C_14 
REMARK    4  A    between atoms: C_5  and  C_6 
REMARK    5  A    between atoms: C_6  and  N_20 
REMARK    6  A    between atoms: C_7  and  C_8 
REMARK    7  A    between atoms: C_12  and  C_14 
REMARK    8  A    between atoms: C_12  and  N_19 
ROOT
HETATM    1  C           1     -21.247  -5.836  -6.907  0.00  0.00     0.274 C 
ENDROOT
BRANCH   1   2
HETATM    2  C           1     -21.691  -4.633  -7.702  0.00  0.00     0.249 C 
HETATM    3  N           1     -22.251  -4.799  -8.940  0.00  0.00    -0.345 N 
HETATM    4  H           1     -22.369  -5.729  -9.322  0.00  0.00     0.163 HD
HETATM    5  O           1     -21.550  -3.523  -7.248  0.00  0.00    -0.271 OA
BRANCH   3   6
HETATM    6  C           1     -22.677  -3.644  -9.705  0.00  0.00     0.181 C 
HETATM    7  C           1     -21.783  -3.486 -10.927  0.00  0.00     0.043 C 
BRANCH   6   8
HETATM    8  C           1     -24.107  -3.834 -10.148  0.00  0.00     0.196 C 
HETATM    9  O           1     -24.684  -2.938 -10.800  0.00  0.00    -0.646 OA
HETATM   10  O           1     -24.715  -4.889  -9.862  0.00  0.00    -0.646 OA
ENDBRANCH   6   8
ENDBRANCH   3   6
ENDBRANCH   1   2
BRANCH   1  11
HETATM   11  C           1     -21.192  -5.477  -5.428  0.00  0.00     0.044 C 
BRANCH  11  12
HETATM   12  C           1     -22.004  -6.488  -4.629  0.00  0.00     0.030 C 
BRANCH  12  13
HETATM   13  C           1     -21.448  -6.582  -3.214  0.00  0.00     0.230 C 
BRANCH  13  14
HETATM   14  N           1     -22.387  -5.905  -2.261  0.00  0.00    -0.079 N 
HETATM   15  H           1     -21.839  -5.447  -1.499  0.00  0.00     0.274 HD
HETATM   16  H           1     -22.942  -5.182  -2.774  0.00  0.00     0.274 HD
HETATM   17  H           1     -23.036  -6.613  -1.850  0.00  0.00     0.274 HD
ENDBRANCH  13  14
ENDBRANCH  12  13
ENDBRANCH  11  12
ENDBRANCH   1  11
BRANCH   1  18
HETATM   18  N           1     -19.886  -6.266  -7.368  0.00  0.00    -0.067 N 
HETATM   19  H           1     -19.938  -6.583  -8.362  0.00  0.00     0.275 HD
HETATM   20  H           1     -19.547  -7.052  -6.768  0.00  0.00     0.275 HD
HETATM   21  H           1     -19.223  -5.462  -7.294  0.00  0.00     0.275 HD
ENDBRANCH   1  18
TORSDOF 8
ENDMDL
MODEL 4
REMARK VINA RESULT:      -5.8      2.405      3.174
REMARK  8 active torsions:
REMARK  status: ('A' for Active; 'I' for Inactive)
REMARK       I    between atoms: C_2  and  N_3 
REMARK    1  A    between atoms: C_2  and  C_12 
REMARK    2  A    between atoms: N_3  and  C_7 
REMARK    3  A    between atoms: C_5  and  C_14 
REMARK    4  A    between atoms: C_5  and  C_6 
REMARK    5  A    between atoms: C_6  and  N_20 
REMARK    6  A    between atoms: C_7  and  C_8 
REMARK    7  A    between atoms: C_12  and  C_14 
REMARK    8  A    between atoms: C_12  and  N_19 
ROOT
HETATM    1  C           1     -33.986  -4.005 -12.329  0.00  0.00     0.274 C 
ENDROOT
BRANCH   1   2
HETATM    2  C           1     -34.164  -2.540 -12.014  0.00  0.00     0.249 C 
HETATM    3  N           1     -34.802  -1.721 -12.907  0.00  0.00    -0.345 N 
HETATM    4  H           1     -35.155  -2.098 -13.777  0.00  0.00     0.163 HD
HETATM    5  O           1     -33.743  -2.089 -10.976  0.00  0.00    -0.271 OA
BRANCH   3   6
HETATM    6  C           1     -34.974  -0.313 -12.606  0.00  0.00     0.181 C 
HETATM    7  C           1     -34.946   0.490 -13.899  0.00  0.00     0.043 C 
BRANCH   6   8
HETATM    8  C           1     -36.297  -0.106 -11.912  0.00  0.00     0.196 C 
HETATM    9  O           1     -36.334   0.425 -10.781  0.00  0.00    -0.646 OA
HETATM   10  O           1     -37.358  -0.466 -12.469  0.00  0.00    -0.646 OA
ENDBRANCH   6   8
ENDBRANCH   3   6
ENDBRANCH   1   2
BRANCH   1  11
HETATM   11  C           1     -34.708  -4.842 -11.281  0.00  0.00     0.044 C 
BRANCH  11  12
HETATM   12  C           1     -33.825  -6.013 -10.870  0.00  0.00     0.030 C 
BRANCH  12  13
HETATM   13  C           1     -34.673  -7.068 -10.172  0.00  0.00     0.230 C 
BRANCH  13  14
HETATM   14  N           1     -34.112  -8.430 -10.457  0.00  0.00    -0.079 N 
HETATM   15  H           1     -33.858  -8.497 -11.467  0.00  0.00     0.274 HD
HETATM   16  H           1     -33.260  -8.584  -9.872  0.00  0.00     0.274 HD
HETATM   17  H           1     -34.828  -9.155 -10.227  0.00  0.00     0.274 HD
ENDBRANCH  13  14
ENDBRANCH  12  13
ENDBRANCH  11  12
ENDBRANCH   1  11
BRANCH   1  18
HETATM   18  N           1     -32.525  -4.344 -12.318  0.00  0.00    -0.067 N 
HETATM   19  H           1     -32.403  -5.351 -12.064  0.00  0.00     0.275 HD
HETATM   20  H           1     -32.033  -3.745 -11.617  0.00  0.00     0.275 HD
HETATM   21  H           1     -32.120  -4.173 -13.266  0.00  0.00     0.275 HD
ENDBRANCH   1  18
TORSDOF 8
ENDMDL
MODEL 5
REMARK VINA RESULT:      -5.7      1.835      2.255
REMARK  8 active torsions:
REMARK  status: ('A' for Active; 'I' for Inactive)
REMARK       I    between atoms: C_2  and  N_3 
REMARK    1  A    between atoms: C_2  and  C_12 
REMARK    2  A    between atoms: N_3  and  C_7 
REMARK    3  A    between atoms: C_5  and  C_14 
REMARK    4  A    between atoms: C_5  and  C_6 
REMARK    5  A    between atoms: C_6  and  N_20 
REMARK    6  A    between atoms: C_7  and  C_8 
REMARK    7  A    between atoms: C_12  and  C_14 
REMARK    8  A    between atoms: C_12  and  N_19 
ROOT
HETATM    1  C           1     -33.908  -3.176 -11.354  0.00  0.00     0.274 C 
ENDROOT
BRANCH   1   2
HETATM    2  C           1     -34.606  -2.528 -12.524  0.00  0.00     0.249 C 
HETATM    3  N           1     -35.335  -1.383 -12.338  0.00  0.00    -0.345 N 
HETATM    4  H           1     -35.404  -0.972 -11.417  0.00  0.00     0.163 HD
HETATM    5  O           1     -34.524  -3.019 -13.624  0.00  0.00    -0.271 OA
BRANCH   3   6
HETATM    6  C           1     -36.006  -0.761 -13.462  0.00  0.00     0.181 C 
HETATM    7  C           1     -37.277  -0.076 -12.978  0.00  0.00     0.043 C 
BRANCH   6   8
HETATM    8  C           1     -35.091   0.262 -14.090  0.00  0.00     0.196 C 
HETATM    9  O           1     -34.629   0.069 -15.235  0.00  0.00    -0.646 OA
HETATM   10  O           1     -34.794   1.303 -13.464  0.00  0.00    -0.646 OA
ENDBRANCH   6   8
ENDBRANCH   3   6
ENDBRANCH   1   2
BRANCH   1  11
HETATM   11  C           1     -34.790  -4.278 -10.782  0.00  0.00     0.044 C 
BRANCH  11  12
HETATM   12  C           1     -34.259  -5.635 -11.226  0.00  0.00     0.030 C 
BRANCH  12  13
HETATM   13  C           1     -34.582  -6.679 -10.166  0.00  0.00     0.230 C 
BRANCH  13  14
HETATM   14  N           1     -34.768  -8.016 -10.819  0.00  0.00    -0.079 N 
HETATM   15  H           1     -33.902  -8.269 -11.345  0.00  0.00     0.274 HD
HETATM   16  H           1     -34.954  -8.738 -10.087  0.00  0.00     0.274 HD
HETATM   17  H           1     -35.577  -7.972 -11.478  0.00  0.00     0.274 HD
ENDBRANCH  13  14
ENDBRANCH  12  13
ENDBRANCH  11  12
ENDBRANCH   1  11
BRANCH   1  18
HETATM   18  N           1     -33.646  -2.146 -10.295  0.00  0.00    -0.067 N 
HETATM   19  H           1     -33.276  -2.615  -9.437  0.00  0.00     0.275 HD
HETATM   20  H           1     -34.536  -1.649 -10.065  0.00  0.00     0.275 HD
HETATM   21  H           1     -32.944  -1.457 -10.645  0.00  0.00     0.275 HD
ENDBRANCH   1  18
TORSDOF 8
ENDMDL
MODEL 6
REMARK VINA RESULT:      -5.6      2.432      4.914
REMARK  8 active torsions:
REMARK  status: ('A' for Active; 'I' for Inactive)
REMARK       I    between atoms: C_2  and  N_3 
REMARK    1  A    between atoms: C_2  and  C_12 
REMARK    2  A    between atoms: N_3  and  C_7 
REMARK    3  A    between atoms: C_5  and  C_14 
REMARK    4  A    between atoms: C_5  and  C_6 
REMARK    5  A    between atoms: C_6  and  N_20 
REMARK    6  A    between atoms: C_7  and  C_8 
REMARK    7  A    between atoms: C_12  and  C_14 
REMARK    8  A    between atoms: C_12  and  N_19 
ROOT
HETATM    1  C           1     -36.388  -0.919 -10.354  0.00  0.00     0.274 C 
ENDROOT
BRANCH   1   2
HETATM    2  C           1     -35.241  -1.776 -10.827  0.00  0.00     0.249 C 
HETATM    3  N           1     -35.409  -3.127 -10.971  0.00  0.00    -0.345 N 
HETATM    4  H           1     -36.304  -3.551 -10.761  0.00  0.00     0.163 HD
HETATM    5  O           1     -34.172  -1.272 -11.076  0.00  0.00    -0.271 OA
BRANCH   3   6
HETATM    6  C           1     -34.306  -3.952 -11.425  0.00  0.00     0.181 C 
HETATM    7  C           1     -34.184  -5.176 -10.527  0.00  0.00     0.043 C 
BRANCH   6   8
HETATM    8  C           1     -34.560  -4.392 -12.845  0.00  0.00     0.196 C 
HETATM    9  O           1     -35.156  -5.467 -13.070  0.00  0.00    -0.646 OA
HETATM   10  O           1     -34.173  -3.681 -13.798  0.00  0.00    -0.646 OA
ENDBRANCH   6   8
ENDBRANCH   3   6
ENDBRANCH   1   2
BRANCH   1  11
HETATM   11  C           1     -36.597   0.233 -11.328  0.00  0.00     0.044 C 
BRANCH  11  12
HETATM   12  C           1     -36.946  -0.321 -12.703  0.00  0.00     0.030 C 
BRANCH  12  13
HETATM   13  C           1     -35.997   0.263 -13.742  0.00  0.00     0.230 C 
BRANCH  13  14
HETATM   14  N           1     -35.037  -0.796 -14.195  0.00  0.00    -0.079 N 
HETATM   15  H           1     -34.099  -0.618 -13.773  0.00  0.00     0.274 HD
HETATM   16  H           1     -35.385  -1.733 -13.892  0.00  0.00     0.274 HD
HETATM   17  H           1     -34.962  -0.773 -15.237  0.00  0.00     0.274 HD
ENDBRANCH  13  14
ENDBRANCH  12  13
ENDBRANCH  11  12
ENDBRANCH   1  11
BRANCH   1  18
HETATM   18  N           1     -36.077  -0.372  -8.993  0.00  0.00    -0.067 N 
HETATM   19  H           1     -36.959  -0.296  -8.438  0.00  0.00     0.275 HD
HETATM   20  H           1     -35.642   0.573  -9.088  0.00  0.00     0.275 HD
HETATM   21  H           1     -35.413  -1.013  -8.503  0.00  0.00     0.275 HD
ENDBRANCH   1  18
TORSDOF 8
ENDMDL
MODEL 7
REMARK VINA RESULT:      -5.6     12.110     13.195
REMARK  8 active torsions:
REMARK  status: ('A' for Active; 'I' for Inactive)
REMARK       I    between atoms: C_2  and  N_3 
REMARK    1  A    between atoms: C_2  and  C_12 
REMARK    2  A    between atoms: N_3  and  C_7 
REMARK    3  A    between atoms: C_5  and  C_14 
REMARK    4  A    between atoms: C_5  and  C_6 
REMARK    5  A    between atoms: C_6  and  N_20 
REMARK    6  A    between atoms: C_7  and  C_8 
REMARK    7  A    between atoms: C_12  and  C_14 
REMARK    8  A    between atoms: C_12  and  N_19 
ROOT
HETATM    1  C           1     -25.383  -7.627 -20.261  0.00  0.00     0.274 C 
ENDROOT
BRANCH   1   2
HETATM    2  C           1     -25.319  -6.881 -18.951  0.00  0.00     0.249 C 
HETATM    3  N           1     -26.462  -6.663 -18.231  0.00  0.00    -0.345 N 
HETATM    4  H           1     -27.351  -7.003 -18.577  0.00  0.00     0.163 HD
HETATM    5  O           1     -24.259  -6.475 -18.538  0.00  0.00    -0.271 OA
BRANCH   3   6
HETATM    6  C           1     -26.402  -5.947 -16.972  0.00  0.00     0.181 C 
HETATM    7  C           1     -27.637  -5.068 -16.828  0.00  0.00     0.043 C 
BRANCH   6   8
HETATM    8  C           1     -26.352  -6.936 -15.834  0.00  0.00     0.196 C 
HETATM    9  O           1     -25.249  -7.312 -15.380  0.00  0.00    -0.646 OA
HETATM   10  O           1     -27.413  -7.379 -15.344  0.00  0.00    -0.646 OA
ENDBRANCH   6   8
ENDBRANCH   3   6
ENDBRANCH   1   2
BRANCH   1  11
HETATM   11  C           1     -24.593  -6.866 -21.319  0.00  0.00     0.044 C 
BRANCH  11  12
HETATM   12  C           1     -24.219  -7.813 -22.452  0.00  0.00     0.030 C 
BRANCH  12  13
HETATM   13  C           1     -22.765  -8.239 -22.300  0.00  0.00     0.230 C 
BRANCH  13  14
HETATM   14  N           1     -22.668  -9.335 -21.282  0.00  0.00    -0.079 N 
HETATM   15  H           1     -22.394 -10.225 -21.755  0.00  0.00     0.274 HD
HETATM   16  H           1     -21.948  -9.084 -20.568  0.00  0.00     0.274 HD
HETATM   17  H           1     -23.594  -9.458 -20.814  0.00  0.00     0.274 HD
ENDBRANCH  13  14
ENDBRANCH  12  13
ENDBRANCH  11  12
ENDBRANCH   1  11
BRANCH   1  18
HETATM   18  N           1     -26.812  -7.749 -20.698  0.00  0.00    -0.067 N 
HETATM   19  H           1     -26.920  -7.344 -21.655  0.00  0.00     0.275 HD
HETATM   20  H           1     -27.426  -7.232 -20.029  0.00  0.00     0.275 HD
HETATM   21  H           1     -27.087  -8.756 -20.714  0.00  0.00     0.275 HD
ENDBRANCH   1  18
TORSDOF 8
ENDMDL
MODEL 8
REMARK VINA RESULT:      -5.6     13.517     15.266
REMARK  8 active torsions:
REMARK  status: ('A' for Active; 'I' for Inactive)
REMARK       I    between atoms: C_2  and  N_3 
REMARK    1  A    between atoms: C_2  and  C_12 
REMARK    2  A    between atoms: N_3  and  C_7 
REMARK    3  A    between atoms: C_5  and  C_14 
REMARK    4  A    between atoms: C_5  and  C_6 
REMARK    5  A    between atoms: C_6  and  N_20 
REMARK    6  A    between atoms: C_7  and  C_8 
REMARK    7  A    between atoms: C_12  and  C_14 
REMARK    8  A    between atoms: C_12  and  N_19 
ROOT
HETATM    1  C           1     -21.687  -3.680 -10.696  0.00  0.00     0.274 C 
ENDROOT
BRANCH   1   2
HETATM    2  C           1     -20.790  -4.516  -9.818  0.00  0.00     0.249 C 
HETATM    3  N           1     -21.123  -4.732  -8.507  0.00  0.00    -0.345 N 
HETATM    4  H           1     -21.972  -4.332  -8.128  0.00  0.00     0.163 HD
HETATM    5  O           1     -19.776  -4.994 -10.269  0.00  0.00    -0.271 OA
BRANCH   3   6
HETATM    6  C           1     -20.261  -5.535  -7.663  0.00  0.00     0.181 C 
HETATM    7  C           1     -19.214  -4.642  -7.011  0.00  0.00     0.043 C 
BRANCH   6   8
HETATM    8  C           1     -21.088  -6.205  -6.593  0.00  0.00     0.196 C 
HETATM    9  O           1     -21.844  -5.523  -5.868  0.00  0.00    -0.646 OA
HETATM   10  O           1     -21.018  -7.443  -6.432  0.00  0.00    -0.646 OA
ENDBRANCH   6   8
ENDBRANCH   3   6
ENDBRANCH   1   2
BRANCH   1  11
HETATM   11  C           1     -22.548  -4.592 -11.559  0.00  0.00     0.044 C 
BRANCH  11  12
HETATM   12  C           1     -23.922  -4.749 -10.920  0.00  0.00     0.030 C 
BRANCH  12  13
HETATM   13  C           1     -24.265  -3.488 -10.138  0.00  0.00     0.230 C 
BRANCH  13  14
HETATM   14  N           1     -25.696  -3.548  -9.694  0.00  0.00    -0.079 N 
HETATM   15  H           1     -25.735  -3.757  -8.672  0.00  0.00     0.274 HD
HETATM   16  H           1     -26.157  -2.628  -9.879  0.00  0.00     0.274 HD
HETATM   17  H           1     -26.194  -4.298 -10.225  0.00  0.00     0.274 HD
ENDBRANCH  13  14
ENDBRANCH  12  13
ENDBRANCH  11  12
ENDBRANCH   1  11
BRANCH   1  18
HETATM   18  N           1     -20.848  -2.804 -11.578  0.00  0.00    -0.067 N 
HETATM   19  H           1     -20.353  -3.394 -12.285  0.00  0.00     0.275 HD
HETATM   20  H           1     -20.146  -2.294 -10.996  0.00  0.00     0.275 HD
HETATM   21  H           1     -21.460  -2.114 -12.068  0.00  0.00     0.275 HD
ENDBRANCH   1  18
TORSDOF 8
ENDMDL
MODEL 9
REMARK VINA RESULT:      -5.5      2.754      3.782
REMARK  8 active torsions:
REMARK  status: ('A' for Active; 'I' for Inactive)
REMARK       I    between atoms: C_2  and  N_3 
REMARK    1  A    between atoms: C_2  and  C_12 
REMARK    2  A    between atoms: N_3  and  C_7 
REMARK    3  A    between atoms: C_5  and  C_14 
REMARK    4  A    between atoms: C_5  and  C_6 
REMARK    5  A    between atoms: C_6  and  N_20 
REMARK    6  A    between atoms: C_7  and  C_8 
REMARK    7  A    between atoms: C_12  and  C_14 
REMARK    8  A    between atoms: C_12  and  N_19 
ROOT
HETATM    1  C           1     -36.164  -0.831 -11.709  0.00  0.00     0.274 C 
ENDROOT
BRANCH   1   2
HETATM    2  C           1     -36.691  -0.465 -13.074  0.00  0.00     0.249 C 
HETATM    3  N           1     -35.874   0.157 -13.979  0.00  0.00    -0.345 N 
HETATM    4  H           1     -34.916   0.371 -13.733  0.00  0.00     0.163 HD
HETATM    5  O           1     -37.834  -0.720 -13.369  0.00  0.00    -0.271 OA
BRANCH   3   6
HETATM    6  C           1     -36.380   0.509 -15.292  0.00  0.00     0.181 C 
HETATM    7  C           1     -35.751   1.821 -15.743  0.00  0.00     0.043 C 
BRANCH   6   8
HETATM    8  C           1     -36.029  -0.582 -16.274  0.00  0.00     0.196 C 
HETATM    9  O           1     -34.952  -1.204 -16.159  0.00  0.00    -0.646 OA
HETATM   10  O           1     -36.818  -0.863 -17.203  0.00  0.00    -0.646 OA
ENDBRANCH   6   8
ENDBRANCH   3   6
ENDBRANCH   1   2
BRANCH   1  11
HETATM   11  C           1     -36.794   0.076 -10.660  0.00  0.00     0.044 C 
BRANCH  11  12
HETATM   12  C           1     -36.888  -0.669  -9.334  0.00  0.00     0.030 C 
BRANCH  12  13
HETATM   13  C           1     -37.216   0.316  -8.220  0.00  0.00     0.230 C 
BRANCH  13  14
HETATM   14  N           1     -36.335   1.523  -8.342  0.00  0.00    -0.079 N 
HETATM   15  H           1     -36.682   2.272  -7.703  0.00  0.00     0.274 HD
HETATM   16  H           1     -35.356   1.267  -8.081  0.00  0.00     0.274 HD
HETATM   17  H           1     -36.353   1.868  -9.328  0.00  0.00     0.274 HD
ENDBRANCH  13  14
ENDBRANCH  12  13
ENDBRANCH  11  12
ENDBRANCH   1  11
BRANCH   1  18
HETATM   18  N           1     -34.674  -0.660 -11.685  0.00  0.00    -0.067 N 
HETATM   19  H           1     -34.387   0.001 -12.443  0.00  0.00     0.275 HD
HETATM   20  H           1     -34.215  -1.586 -11.838  0.00  0.00     0.275 HD
HETATM   21  H           1     -34.381  -0.276 -10.759  0.00  0.00     0.275 HD
ENDBRANCH   1  18
TORSDOF 8
ENDMDL
