MODEL 1
REMARK VINA RESULT:      -6.9      0.000      0.000
REMARK  10 active torsions:
REMARK  status: ('A' for Active; 'I' for Inactive)
REMARK    1  A    between atoms: C_7  and  C_19 
REMARK    2  A    between atoms: C_8  and  O_12 
REMARK    3  A    between atoms: N_9  and  C_18 
REMARK       I    between atoms: N_9  and  C_23 
REMARK    4  A    between atoms: C_10  and  C_20 
REMARK    5  A    between atoms: C_10  and  S_22 
REMARK    6  A    between atoms: C_15  and  C_23 
REMARK    7  A    between atoms: C_15  and  C_20 
REMARK    8  A    between atoms: C_15  and  N_26 
REMARK    9  A    between atoms: C_17  and  C_18 
REMARK   10  A    between atoms: C_18  and  C_19 
ROOT
HETATM    1  N           1     -21.576  -5.656  -5.828  0.00  0.00    -0.344 N 
HETATM    2  H           1     -22.156  -5.082  -5.229  0.00  0.00     0.163 HD
HETATM    3  C           1     -21.322  -6.958  -5.492  0.00  0.00     0.249 C 
HETATM    4  O           1     -20.629  -7.642  -6.207  0.00  0.00    -0.271 OA
ENDROOT
BRANCH   1   5
HETATM    5  C           1     -21.015  -5.096  -7.042  0.00  0.00     0.189 C 
BRANCH   5   6
HETATM    6  C           1     -19.612  -4.611  -6.769  0.00  0.00     0.197 C 
HETATM    7  O           1     -18.816  -4.434  -7.717  0.00  0.00    -0.646 OA
HETATM    8  O           1     -19.245  -4.387  -5.595  0.00  0.00    -0.646 OA
ENDBRANCH   5   6
BRANCH   5   9
HETATM    9  C           1     -21.875  -3.929  -7.508  0.00  0.00     0.074 C 
BRANCH   9  10
HETATM   10  C           1     -22.346  -4.182  -8.905  0.00  0.00    -0.056 A 
HETATM   11  C           1     -23.702  -4.389  -9.157  0.00  0.00     0.010 A 
HETATM   12  C           1     -24.143  -4.626 -10.459  0.00  0.00     0.037 A 
HETATM   13  C           1     -23.226  -4.655 -11.511  0.00  0.00     0.065 A 
HETATM   14  C           1     -21.869  -4.449 -11.259  0.00  0.00     0.037 A 
HETATM   15  C           1     -21.429  -4.212  -9.956  0.00  0.00     0.010 A 
BRANCH  13  16
HETATM   16  O           1     -23.653  -4.885 -12.775  0.00  0.00    -0.361 OA
HETATM   17  H           1     -24.385  -4.273 -12.961  0.00  0.00     0.217 HD
ENDBRANCH  13  16
ENDBRANCH   9  10
ENDBRANCH   5   9
ENDBRANCH   1   5
BRANCH   3  18
HETATM   18  C           1     -21.907  -7.539  -4.228  0.00  0.00     0.275 C 
BRANCH  18  19
HETATM   19  C           1     -21.161  -6.985  -3.022  0.00  0.00     0.053 C 
BRANCH  19  20
HETATM   20  C           1     -22.146  -6.291  -2.090  0.00  0.00     0.076 C 
BRANCH  20  21
HETATM   21  S           1     -22.402  -7.310  -0.611  0.00  0.00    -0.173 SA
HETATM   22  C           1     -20.861  -8.259  -0.752  0.00  0.00     0.089 C 
ENDBRANCH  20  21
ENDBRANCH  19  20
ENDBRANCH  18  19
BRANCH  18  23
HETATM   23  N           1     -21.771  -9.032  -4.257  0.00  0.00    -0.066 N 
HETATM   24  H           1     -21.634  -9.388  -3.284  0.00  0.00     0.275 HD
HETATM   25  H           1     -22.636  -9.454  -4.663  0.00  0.00     0.275 HD
HETATM   26  H           1     -20.946  -9.296  -4.842  0.00  0.00     0.275 HD
ENDBRANCH  18  23
ENDBRANCH   3  18
TORSDOF 10
ENDMDL
MODEL 2
REMARK VINA RESULT:      -6.9      1.382      1.571
REMARK  10 active torsions:
REMARK  status: ('A' for Active; 'I' for Inactive)
REMARK    1  A    between atoms: C_7  and  C_19 
REMARK    2  A    between atoms: C_8  and  O_12 
REMARK    3  A    between atoms: N_9  and  C_18 
REMARK       I    between atoms: N_9  and  C_23 
REMARK    4  A    between atoms: C_10  and  C_20 
REMARK    5  A    between atoms: C_10  and  S_22 
REMARK    6  A    between atoms: C_15  and  C_23 
REMARK    7  A    between atoms: C_15  and  C_20 
REMARK    8  A    between atoms: C_15  and  N_26 
REMARK    9  A    between atoms: C_17  and  C_18 
REMARK   10  A    between atoms: C_18  and  C_19 
ROOT
HETATM    1  N           1     -21.041  -5.160  -5.216  0.00  0.00    -0.344 N 
HETATM    2  H           1     -20.828  -4.283  -4.757  0.00  0.00     0.163 HD
HETATM    3  C           1     -21.311  -6.275  -4.470  0.00  0.00     0.249 C 
HETATM    4  O           1     -21.563  -7.322  -5.018  0.00  0.00    -0.271 OA
ENDROOT
BRANCH   1   5
HETATM    5  C           1     -21.058  -5.234  -6.664  0.00  0.00     0.189 C 
BRANCH   5   6
HETATM    6  C           1     -19.663  -5.511  -7.169  0.00  0.00     0.197 C 
HETATM    7  O           1     -18.855  -4.569  -7.322  0.00  0.00    -0.646 OA
HETATM    8  O           1     -19.316  -6.682  -7.436  0.00  0.00    -0.646 OA
ENDBRANCH   5   6
BRANCH   5   9
HETATM    9  C           1     -21.552  -3.910  -7.233  0.00  0.00     0.074 C 
BRANCH   9  10
HETATM   10  C           1     -22.107  -4.132  -8.605  0.00  0.00    -0.056 A 
HETATM   11  C           1     -23.471  -4.368  -8.776  0.00  0.00     0.010 A 
HETATM   12  C           1     -23.988  -4.575 -10.055  0.00  0.00     0.037 A 
HETATM   13  C           1     -23.141  -4.548 -11.163  0.00  0.00     0.065 A 
HETATM   14  C           1     -21.776  -4.313 -10.992  0.00  0.00     0.037 A 
HETATM   15  C           1     -21.259  -4.106  -9.713  0.00  0.00     0.010 A 
BRANCH  13  16
HETATM   16  O           1     -23.643  -4.750 -12.405  0.00  0.00    -0.361 OA
HETATM   17  H           1     -24.493  -5.213 -12.313  0.00  0.00     0.217 HD
ENDBRANCH  13  16
ENDBRANCH   9  10
ENDBRANCH   5   9
ENDBRANCH   1   5
BRANCH   3  18
HETATM   18  C           1     -21.292  -6.198  -2.963  0.00  0.00     0.275 C 
BRANCH  18  19
HETATM   19  C           1     -20.829  -7.531  -2.392  0.00  0.00     0.053 C 
BRANCH  19  20
HETATM   20  C           1     -21.607  -7.838  -1.119  0.00  0.00     0.076 C 
BRANCH  20  21
HETATM   21  S           1     -21.817  -9.632  -0.954  0.00  0.00    -0.173 SA
HETATM   22  C           1     -21.821  -9.997  -2.732  0.00  0.00     0.089 C 
ENDBRANCH  20  21
ENDBRANCH  19  20
ENDBRANCH  18  19
BRANCH  18  23
HETATM   23  N           1     -22.672  -5.892  -2.462  0.00  0.00    -0.066 N 
HETATM   24  H           1     -23.378  -6.304  -3.113  0.00  0.00     0.275 HD
HETATM   25  H           1     -22.796  -6.301  -1.509  0.00  0.00     0.275 HD
HETATM   26  H           1     -22.804  -4.856  -2.417  0.00  0.00     0.275 HD
ENDBRANCH  18  23
ENDBRANCH   3  18
TORSDOF 10
ENDMDL
MODEL 3
REMARK VINA RESULT:      -6.3      3.383      7.658
REMARK  10 active torsions:
REMARK  status: ('A' for Active; 'I' for Inactive)
REMARK    1  A    between atoms: C_7  and  C_19 
REMARK    2  A    between atoms: C_8  and  O_12 
REMARK    3  A    between atoms: N_9  and  C_18 
REMARK       I    between atoms: N_9  and  C_23 
REMARK    4  A    between atoms: C_10  and  C_20 
REMARK    5  A    between atoms: C_10  and  S_22 
REMARK    6  A    between atoms: C_15  and  C_23 
REMARK    7  A    between atoms: C_15  and  C_20 
REMARK    8  A    between atoms: C_15  and  N_26 
REMARK    9  A    between atoms: C_17  and  C_18 
REMARK   10  A    between atoms: C_18  and  C_19 
ROOT
HETATM    1  N           1     -20.245  -6.732  -6.055  0.00  0.00    -0.344 N 
HETATM    2  H           1     -20.276  -7.161  -6.971  0.00  0.00     0.163 HD
HETATM    3  C           1     -20.329  -5.372  -5.932  0.00  0.00     0.249 C 
HETATM    4  O           1     -20.291  -4.861  -4.838  0.00  0.00    -0.271 OA
ENDROOT
BRANCH   1   5
HETATM    5  C           1     -20.111  -7.562  -4.873  0.00  0.00     0.189 C 
BRANCH   5   6
HETATM    6  C           1     -19.095  -8.647  -5.134  0.00  0.00     0.197 C 
HETATM    7  O           1     -18.626  -8.802  -6.283  0.00  0.00    -0.646 OA
HETATM    8  O           1     -18.722  -9.392  -4.201  0.00  0.00    -0.646 OA
ENDBRANCH   5   6
BRANCH   5   9
HETATM    9  C           1     -21.456  -8.193  -4.541  0.00  0.00     0.074 C 
BRANCH   9  10
HETATM   10  C           1     -21.707  -8.090  -3.069  0.00  0.00    -0.056 A 
HETATM   11  C           1     -21.700  -9.239  -2.278  0.00  0.00     0.010 A 
HETATM   12  C           1     -21.934  -9.143  -0.906  0.00  0.00     0.037 A 
HETATM   13  C           1     -22.175  -7.897  -0.325  0.00  0.00     0.065 A 
HETATM   14  C           1     -22.182  -6.749  -1.116  0.00  0.00     0.037 A 
HETATM   15  C           1     -21.948  -6.844  -2.488  0.00  0.00     0.010 A 
BRANCH  13  16
HETATM   16  O           1     -22.402  -7.804   1.007  0.00  0.00    -0.361 OA
HETATM   17  H           1     -23.100  -7.142   1.147  0.00  0.00     0.217 HD
ENDBRANCH  13  16
ENDBRANCH   9  10
ENDBRANCH   5   9
ENDBRANCH   1   5
BRANCH   3  18
HETATM   18  C           1     -20.469  -4.510  -7.162  0.00  0.00     0.275 C 
BRANCH  18  19
HETATM   19  C           1     -21.491  -5.133  -8.105  0.00  0.00     0.053 C 
BRANCH  19  20
HETATM   20  C           1     -22.643  -4.160  -8.320  0.00  0.00     0.076 C 
BRANCH  20  21
HETATM   21  S           1     -22.816  -3.808 -10.091  0.00  0.00    -0.173 SA
HETATM   22  C           1     -24.603  -3.489 -10.057  0.00  0.00     0.089 C 
ENDBRANCH  20  21
ENDBRANCH  19  20
ENDBRANCH  18  19
BRANCH  18  23
HETATM   23  N           1     -19.143  -4.413  -7.856  0.00  0.00    -0.066 N 
HETATM   24  H           1     -19.041  -5.208  -8.526  0.00  0.00     0.275 HD
HETATM   25  H           1     -19.088  -3.509  -8.378  0.00  0.00     0.275 HD
HETATM   26  H           1     -18.375  -4.454  -7.148  0.00  0.00     0.275 HD
ENDBRANCH  18  23
ENDBRANCH   3  18
TORSDOF 10
ENDMDL
MODEL 4
REMARK VINA RESULT:      -6.0      3.133      7.838
REMARK  10 active torsions:
REMARK  status: ('A' for Active; 'I' for Inactive)
REMARK    1  A    between atoms: C_7  and  C_19 
REMARK    2  A    between atoms: C_8  and  O_12 
REMARK    3  A    between atoms: N_9  and  C_18 
REMARK       I    between atoms: N_9  and  C_23 
REMARK    4  A    between atoms: C_10  and  C_20 
REMARK    5  A    between atoms: C_10  and  S_22 
REMARK    6  A    between atoms: C_15  and  C_23 
REMARK    7  A    between atoms: C_15  and  C_20 
REMARK    8  A    between atoms: C_15  and  N_26 
REMARK    9  A    between atoms: C_17  and  C_18 
REMARK   10  A    between atoms: C_18  and  C_19 
ROOT
HETATM    1  N           1     -20.776  -7.931  -4.454  0.00  0.00    -0.344 N 
HETATM    2  H           1     -21.592  -7.670  -3.916  0.00  0.00     0.163 HD
HETATM    3  C           1     -20.464  -7.247  -5.598  0.00  0.00     0.249 C 
HETATM    4  O           1     -19.490  -7.559  -6.241  0.00  0.00    -0.271 OA
ENDROOT
BRANCH   1   5
HETATM    5  C           1     -19.939  -9.029  -4.014  0.00  0.00     0.189 C 
BRANCH   5   6
HETATM    6  C           1     -20.744 -10.305  -4.012  0.00  0.00     0.197 C 
HETATM    7  O           1     -20.189 -11.394  -3.748  0.00  0.00    -0.646 OA
HETATM    8  O           1     -21.966 -10.274  -4.276  0.00  0.00    -0.646 OA
ENDBRANCH   5   6
BRANCH   5   9
HETATM    9  C           1     -19.431  -8.746  -2.606  0.00  0.00     0.074 C 
BRANCH   9  10
HETATM   10  C           1     -20.589  -8.443  -1.708  0.00  0.00    -0.056 A 
HETATM   11  C           1     -21.028  -9.397  -0.789  0.00  0.00     0.010 A 
HETATM   12  C           1     -22.108  -9.115   0.047  0.00  0.00     0.037 A 
HETATM   13  C           1     -22.750  -7.878  -0.035  0.00  0.00     0.065 A 
HETATM   14  C           1     -22.311  -6.925  -0.954  0.00  0.00     0.037 A 
HETATM   15  C           1     -21.231  -7.207  -1.791  0.00  0.00     0.010 A 
BRANCH  13  16
HETATM   16  O           1     -23.799  -7.605   0.777  0.00  0.00    -0.361 OA
HETATM   17  H           1     -23.783  -8.240   1.513  0.00  0.00     0.217 HD
ENDBRANCH  13  16
ENDBRANCH   9  10
ENDBRANCH   5   9
ENDBRANCH   1   5
BRANCH   3  18
HETATM   18  C           1     -21.337  -6.104  -6.056  0.00  0.00     0.275 C 
BRANCH  18  19
HETATM   19  C           1     -20.541  -4.807  -6.006  0.00  0.00     0.053 C 
BRANCH  19  20
HETATM   20  C           1     -21.120  -3.816  -7.007  0.00  0.00     0.076 C 
BRANCH  20  21
HETATM   21  S           1     -21.473  -4.668  -8.570  0.00  0.00    -0.173 SA
HETATM   22  C           1     -23.203  -4.134  -8.703  0.00  0.00     0.089 C 
ENDBRANCH  20  21
ENDBRANCH  19  20
ENDBRANCH  18  19
BRANCH  18  23
HETATM   23  N           1     -22.529  -5.994  -5.154  0.00  0.00    -0.066 N 
HETATM   24  H           1     -22.945  -6.942  -5.010  0.00  0.00     0.275 HD
HETATM   25  H           1     -22.234  -5.599  -4.233  0.00  0.00     0.275 HD
HETATM   26  H           1     -23.240  -5.365  -5.592  0.00  0.00     0.275 HD
ENDBRANCH  18  23
ENDBRANCH   3  18
TORSDOF 10
ENDMDL
MODEL 5
REMARK VINA RESULT:      -5.8      5.883      8.874
REMARK  10 active torsions:
REMARK  status: ('A' for Active; 'I' for Inactive)
REMARK    1  A    between atoms: C_7  and  C_19 
REMARK    2  A    between atoms: C_8  and  O_12 
REMARK    3  A    between atoms: N_9  and  C_18 
REMARK       I    between atoms: N_9  and  C_23 
REMARK    4  A    between atoms: C_10  and  C_20 
REMARK    5  A    between atoms: C_10  and  S_22 
REMARK    6  A    between atoms: C_15  and  C_23 
REMARK    7  A    between atoms: C_15  and  C_20 
REMARK    8  A    between atoms: C_15  and  N_26 
REMARK    9  A    between atoms: C_17  and  C_18 
REMARK   10  A    between atoms: C_18  and  C_19 
ROOT
HETATM    1  N           1     -20.737  -8.233  -2.856  0.00  0.00    -0.344 N 
HETATM    2  H           1     -19.960  -7.584  -2.833  0.00  0.00     0.163 HD
HETATM    3  C           1     -20.839  -9.142  -3.874  0.00  0.00     0.249 C 
HETATM    4  O           1     -21.766  -9.916  -3.902  0.00  0.00    -0.271 OA
ENDROOT
BRANCH   1   5
HETATM    5  C           1     -21.742  -8.197  -1.812  0.00  0.00     0.189 C 
BRANCH   5   6
HETATM    6  C           1     -22.213  -6.776  -1.616  0.00  0.00     0.197 C 
HETATM    7  O           1     -22.566  -6.384  -0.483  0.00  0.00    -0.646 OA
HETATM    8  O           1     -22.250  -5.991  -2.589  0.00  0.00    -0.646 OA
ENDBRANCH   5   6
BRANCH   5   9
HETATM    9  C           1     -21.141  -8.716  -0.512  0.00  0.00     0.074 C 
BRANCH   9  10
HETATM   10  C           1     -21.791 -10.013  -0.145  0.00  0.00    -0.056 A 
HETATM   11  C           1     -23.146 -10.213  -0.405  0.00  0.00     0.010 A 
HETATM   12  C           1     -23.753 -11.422  -0.063  0.00  0.00     0.037 A 
HETATM   13  C           1     -23.003 -12.431   0.541  0.00  0.00     0.065 A 
HETATM   14  C           1     -21.648 -12.231   0.803  0.00  0.00     0.037 A 
HETATM   15  C           1     -21.041 -11.022   0.460  0.00  0.00     0.010 A 
BRANCH  13  16
HETATM   16  O           1     -23.592 -13.605   0.874  0.00  0.00    -0.361 OA
HETATM   17  H           1     -23.827 -13.566   1.817  0.00  0.00     0.217 HD
ENDBRANCH  13  16
ENDBRANCH   9  10
ENDBRANCH   5   9
ENDBRANCH   1   5
BRANCH   3  18
HETATM   18  C           1     -19.793  -9.179  -4.961  0.00  0.00     0.275 C 
BRANCH  18  19
HETATM   19  C           1     -18.416  -9.364  -4.335  0.00  0.00     0.053 C 
BRANCH  19  20
HETATM   20  C           1     -17.541 -10.192  -5.267  0.00  0.00     0.076 C 
BRANCH  20  21
HETATM   21  S           1     -15.806 -10.042  -4.761  0.00  0.00    -0.173 SA
HETATM   22  C           1     -16.138  -9.593  -3.034  0.00  0.00     0.089 C 
ENDBRANCH  20  21
ENDBRANCH  19  20
ENDBRANCH  18  19
BRANCH  18  23
HETATM   23  N           1     -19.824  -7.890  -5.726  0.00  0.00    -0.066 N 
HETATM   24  H           1     -18.934  -7.783  -6.265  0.00  0.00     0.275 HD
HETATM   25  H           1     -20.632  -7.897  -6.387  0.00  0.00     0.275 HD
HETATM   26  H           1     -19.925  -7.091  -5.060  0.00  0.00     0.275 HD
ENDBRANCH  18  23
ENDBRANCH   3  18
TORSDOF 10
ENDMDL
MODEL 6
REMARK VINA RESULT:      -5.8      6.129      8.806
REMARK  10 active torsions:
REMARK  status: ('A' for Active; 'I' for Inactive)
REMARK    1  A    between atoms: C_7  and  C_19 
REMARK    2  A    between atoms: C_8  and  O_12 
REMARK    3  A    between atoms: N_9  and  C_18 
REMARK       I    between atoms: N_9  and  C_23 
REMARK    4  A    between atoms: C_10  and  C_20 
REMARK    5  A    between atoms: C_10  and  S_22 
REMARK    6  A    between atoms: C_15  and  C_23 
REMARK    7  A    between atoms: C_15  and  C_20 
REMARK    8  A    between atoms: C_15  and  N_26 
REMARK    9  A    between atoms: C_17  and  C_18 
REMARK   10  A    between atoms: C_18  and  C_19 
ROOT
HETATM    1  N           1     -20.461  -8.390  -2.664  0.00  0.00    -0.344 N 
HETATM    2  H           1     -19.646  -7.802  -2.548  0.00  0.00     0.163 HD
HETATM    3  C           1     -20.427  -9.443  -3.537  0.00  0.00     0.249 C 
HETATM    4  O           1     -21.401 -10.144  -3.676  0.00  0.00    -0.271 OA
ENDROOT
BRANCH   1   5
HETATM    5  C           1     -21.665  -8.116  -1.904  0.00  0.00     0.189 C 
BRANCH   5   6
HETATM    6  C           1     -22.034  -6.660  -2.055  0.00  0.00     0.197 C 
HETATM    7  O           1     -22.424  -6.007  -1.062  0.00  0.00    -0.646 OA
HETATM    8  O           1     -21.950  -6.107  -3.173  0.00  0.00    -0.646 OA
ENDBRANCH   5   6
BRANCH   5   9
HETATM    9  C           1     -21.420  -8.429  -0.434  0.00  0.00     0.074 C 
BRANCH   9  10
HETATM   10  C           1     -21.969  -9.783  -0.113  0.00  0.00    -0.056 A 
HETATM   11  C           1     -21.132 -10.769   0.409  0.00  0.00     0.010 A 
HETATM   12  C           1     -21.642 -12.033   0.709  0.00  0.00     0.037 A 
HETATM   13  C           1     -22.991 -12.310   0.485  0.00  0.00     0.065 A 
HETATM   14  C           1     -23.828 -11.324  -0.038  0.00  0.00     0.037 A 
HETATM   15  C           1     -23.317 -10.061  -0.337  0.00  0.00     0.010 A 
BRANCH  13  16
HETATM   16  O           1     -23.487 -13.536   0.775  0.00  0.00    -0.361 OA
HETATM   17  H           1     -24.156 -13.756   0.104  0.00  0.00     0.217 HD
ENDBRANCH  13  16
ENDBRANCH   9  10
ENDBRANCH   5   9
ENDBRANCH   1   5
BRANCH   3  18
HETATM   18  C           1     -19.173  -9.727  -4.328  0.00  0.00     0.275 C 
BRANCH  18  19
HETATM   19  C           1     -17.953  -9.439  -3.464  0.00  0.00     0.053 C 
BRANCH  19  20
HETATM   20  C           1     -17.666 -10.639  -2.571  0.00  0.00     0.076 C 
BRANCH  20  21
HETATM   21  S           1     -15.881 -10.762  -2.276  0.00  0.00    -0.173 SA
HETATM   22  C           1     -15.998 -11.716  -0.735  0.00  0.00     0.089 C 
ENDBRANCH  20  21
ENDBRANCH  19  20
ENDBRANCH  18  19
BRANCH  18  23
HETATM   23  N           1     -19.142  -8.853  -5.545  0.00  0.00    -0.066 N 
HETATM   24  H           1     -19.435  -9.408  -6.381  0.00  0.00     0.275 HD
HETATM   25  H           1     -19.797  -8.050  -5.415  0.00  0.00     0.275 HD
HETATM   26  H           1     -18.172  -8.492  -5.690  0.00  0.00     0.275 HD
ENDBRANCH  18  23
ENDBRANCH   3  18
TORSDOF 10
ENDMDL
MODEL 7
REMARK VINA RESULT:      -5.7      2.799      4.467
REMARK  10 active torsions:
REMARK  status: ('A' for Active; 'I' for Inactive)
REMARK    1  A    between atoms: C_7  and  C_19 
REMARK    2  A    between atoms: C_8  and  O_12 
REMARK    3  A    between atoms: N_9  and  C_18 
REMARK       I    between atoms: N_9  and  C_23 
REMARK    4  A    between atoms: C_10  and  C_20 
REMARK    5  A    between atoms: C_10  and  S_22 
REMARK    6  A    between atoms: C_15  and  C_23 
REMARK    7  A    between atoms: C_15  and  C_20 
REMARK    8  A    between atoms: C_15  and  N_26 
REMARK    9  A    between atoms: C_17  and  C_18 
REMARK   10  A    between atoms: C_18  and  C_19 
ROOT
HETATM    1  N           1     -21.654  -8.613  -4.391  0.00  0.00    -0.344 N 
HETATM    2  H           1     -22.453  -9.066  -3.968  0.00  0.00     0.163 HD
HETATM    3  C           1     -20.809  -9.326  -5.197  0.00  0.00     0.249 C 
HETATM    4  O           1     -19.854  -8.785  -5.702  0.00  0.00    -0.271 OA
ENDROOT
BRANCH   1   5
HETATM    5  C           1     -21.404  -7.206  -4.143  0.00  0.00     0.189 C 
BRANCH   5   6
HETATM    6  C           1     -21.588  -6.916  -2.673  0.00  0.00     0.197 C 
HETATM    7  O           1     -20.906  -7.530  -1.824  0.00  0.00    -0.646 OA
HETATM    8  O           1     -22.423  -6.061  -2.304  0.00  0.00    -0.646 OA
ENDBRANCH   5   6
BRANCH   5   9
HETATM    9  C           1     -22.382  -6.366  -4.953  0.00  0.00     0.074 C 
BRANCH   9  10
HETATM   10  C           1     -21.628  -5.545  -5.951  0.00  0.00    -0.056 A 
HETATM   11  C           1     -20.237  -5.471  -5.885  0.00  0.00     0.010 A 
HETATM   12  C           1     -19.533  -4.705  -6.814  0.00  0.00     0.037 A 
HETATM   13  C           1     -20.222  -4.012  -7.811  0.00  0.00     0.065 A 
HETATM   14  C           1     -21.613  -4.085  -7.876  0.00  0.00     0.037 A 
HETATM   15  C           1     -22.317  -4.851  -6.946  0.00  0.00     0.010 A 
BRANCH  13  16
HETATM   16  O           1     -19.539  -3.268  -8.713  0.00  0.00    -0.361 OA
HETATM   17  H           1     -18.663  -3.072  -8.339  0.00  0.00     0.217 HD
ENDBRANCH  13  16
ENDBRANCH   9  10
ENDBRANCH   5   9
ENDBRANCH   1   5
BRANCH   3  18
HETATM   18  C           1     -21.069 -10.790  -5.456  0.00  0.00     0.275 C 
BRANCH  18  19
HETATM   19  C           1     -20.895 -11.573  -4.161  0.00  0.00     0.053 C 
BRANCH  19  20
HETATM   20  C           1     -19.419 -11.617  -3.787  0.00  0.00     0.076 C 
BRANCH  20  21
HETATM   21  S           1     -19.177 -10.821  -2.176  0.00  0.00    -0.173 SA
HETATM   22  C           1     -18.057  -9.518  -2.762  0.00  0.00     0.089 C 
ENDBRANCH  20  21
ENDBRANCH  19  20
ENDBRANCH  18  19
BRANCH  18  23
HETATM   23  N           1     -20.098 -11.296  -6.480  0.00  0.00    -0.066 N 
HETATM   24  H           1     -19.896 -10.540  -7.171  0.00  0.00     0.275 HD
HETATM   25  H           1     -19.212 -11.584  -6.008  0.00  0.00     0.275 HD
HETATM   26  H           1     -20.512 -12.119  -6.975  0.00  0.00     0.275 HD
ENDBRANCH  18  23
ENDBRANCH   3  18
TORSDOF 10
ENDMDL
MODEL 8
REMARK VINA RESULT:      -5.7      4.323      9.261
REMARK  10 active torsions:
REMARK  status: ('A' for Active; 'I' for Inactive)
REMARK    1  A    between atoms: C_7  and  C_19 
REMARK    2  A    between atoms: C_8  and  O_12 
REMARK    3  A    between atoms: N_9  and  C_18 
REMARK       I    between atoms: N_9  and  C_23 
REMARK    4  A    between atoms: C_10  and  C_20 
REMARK    5  A    between atoms: C_10  and  S_22 
REMARK    6  A    between atoms: C_15  and  C_23 
REMARK    7  A    between atoms: C_15  and  C_20 
REMARK    8  A    between atoms: C_15  and  N_26 
REMARK    9  A    between atoms: C_17  and  C_18 
REMARK   10  A    between atoms: C_18  and  C_19 
ROOT
HETATM    1  N           1     -21.112  -8.163  -2.376  0.00  0.00    -0.344 N 
HETATM    2  H           1     -20.449  -7.417  -2.210  0.00  0.00     0.163 HD
HETATM    3  C           1     -21.217  -8.721  -3.622  0.00  0.00     0.249 C 
HETATM    4  O           1     -22.008  -9.611  -3.820  0.00  0.00    -0.271 OA
ENDROOT
BRANCH   1   5
HETATM    5  C           1     -21.950  -8.641  -1.294  0.00  0.00     0.189 C 
BRANCH   5   6
HETATM    6  C           1     -22.551  -7.463  -0.566  0.00  0.00     0.197 C 
HETATM    7  O           1     -23.120  -7.632   0.534  0.00  0.00    -0.646 OA
HETATM    8  O           1     -22.479  -6.319  -1.064  0.00  0.00    -0.646 OA
ENDBRANCH   5   6
BRANCH   5   9
HETATM    9  C           1     -21.109  -9.462  -0.326  0.00  0.00     0.074 C 
BRANCH   9  10
HETATM   10  C           1     -21.807 -10.752  -0.028  0.00  0.00    -0.056 A 
HETATM   11  C           1     -21.188 -11.711   0.774  0.00  0.00     0.010 A 
HETATM   12  C           1     -21.837 -12.914   1.052  0.00  0.00     0.037 A 
HETATM   13  C           1     -23.107 -13.158   0.527  0.00  0.00     0.065 A 
HETATM   14  C           1     -23.726 -12.199  -0.276  0.00  0.00     0.037 A 
HETATM   15  C           1     -23.076 -10.996  -0.553  0.00  0.00     0.010 A 
BRANCH  13  16
HETATM   16  O           1     -23.738 -14.326   0.796  0.00  0.00    -0.361 OA
HETATM   17  H           1     -23.564 -14.938   0.060  0.00  0.00     0.217 HD
ENDBRANCH  13  16
ENDBRANCH   9  10
ENDBRANCH   5   9
ENDBRANCH   1   5
BRANCH   3  18
HETATM   18  C           1     -20.344  -8.222  -4.748  0.00  0.00     0.275 C 
BRANCH  18  19
HETATM   19  C           1     -21.198  -7.465  -5.755  0.00  0.00     0.053 C 
BRANCH  19  20
HETATM   20  C           1     -20.700  -6.031  -5.869  0.00  0.00     0.076 C 
BRANCH  20  21
HETATM   21  S           1     -20.904  -5.451  -7.576  0.00  0.00    -0.173 SA
HETATM   22  C           1     -21.147  -3.700  -7.165  0.00  0.00     0.089 C 
ENDBRANCH  20  21
ENDBRANCH  19  20
ENDBRANCH  18  19
BRANCH  18  23
HETATM   23  N           1     -19.689  -9.389  -5.425  0.00  0.00    -0.066 N 
HETATM   24  H           1     -19.955  -9.399  -6.435  0.00  0.00     0.275 HD
HETATM   25  H           1     -18.651  -9.305  -5.338  0.00  0.00     0.275 HD
HETATM   26  H           1     -20.006 -10.277  -4.973  0.00  0.00     0.275 HD
ENDBRANCH  18  23
ENDBRANCH   3  18
TORSDOF 10
ENDMDL
MODEL 9
REMARK VINA RESULT:      -5.6      3.699      5.111
REMARK  10 active torsions:
REMARK  status: ('A' for Active; 'I' for Inactive)
REMARK    1  A    between atoms: C_7  and  C_19 
REMARK    2  A    between atoms: C_8  and  O_12 
REMARK    3  A    between atoms: N_9  and  C_18 
REMARK       I    between atoms: N_9  and  C_23 
REMARK    4  A    between atoms: C_10  and  C_20 
REMARK    5  A    between atoms: C_10  and  S_22 
REMARK    6  A    between atoms: C_15  and  C_23 
REMARK    7  A    between atoms: C_15  and  C_20 
REMARK    8  A    between atoms: C_15  and  N_26 
REMARK    9  A    between atoms: C_17  and  C_18 
REMARK   10  A    between atoms: C_18  and  C_19 
ROOT
HETATM    1  N           1     -21.420  -8.513  -4.389  0.00  0.00    -0.344 N 
HETATM    2  H           1     -22.309  -8.979  -4.259  0.00  0.00     0.163 HD
HETATM    3  C           1     -20.328  -9.226  -4.803  0.00  0.00     0.249 C 
HETATM    4  O           1     -19.267  -8.670  -4.958  0.00  0.00    -0.271 OA
ENDROOT
BRANCH   1   5
HETATM    5  C           1     -21.305  -7.090  -4.137  0.00  0.00     0.189 C 
BRANCH   5   6
HETATM    6  C           1     -21.525  -6.821  -2.668  0.00  0.00     0.197 C 
HETATM    7  O           1     -20.874  -7.457  -1.811  0.00  0.00    -0.646 OA
HETATM    8  O           1     -22.359  -5.961  -2.309  0.00  0.00    -0.646 OA
ENDBRANCH   5   6
BRANCH   5   9
HETATM    9  C           1     -22.352  -6.344  -4.954  0.00  0.00     0.074 C 
BRANCH   9  10
HETATM   10  C           1     -21.684  -5.615  -6.076  0.00  0.00    -0.056 A 
HETATM   11  C           1     -22.445  -4.856  -6.966  0.00  0.00     0.010 A 
HETATM   12  C           1     -21.823  -4.176  -8.014  0.00  0.00     0.037 A 
HETATM   13  C           1     -20.438  -4.256  -8.171  0.00  0.00     0.065 A 
HETATM   14  C           1     -19.678  -5.015  -7.282  0.00  0.00     0.037 A 
HETATM   15  C           1     -20.300  -5.695  -6.235  0.00  0.00     0.010 A 
BRANCH  13  16
HETATM   16  O           1     -19.834  -3.596  -9.188  0.00  0.00    -0.361 OA
HETATM   17  H           1     -20.222  -3.911 -10.023  0.00  0.00     0.217 HD
ENDBRANCH  13  16
ENDBRANCH   9  10
ENDBRANCH   5   9
ENDBRANCH   1   5
BRANCH   3  18
HETATM   18  C           1     -20.448 -10.707  -5.065  0.00  0.00     0.275 C 
BRANCH  18  19
HETATM   19  C           1     -19.060 -11.334  -5.085  0.00  0.00     0.053 C 
BRANCH  19  20
HETATM   20  C           1     -19.091 -12.612  -5.913  0.00  0.00     0.076 C 
BRANCH  20  21
HETATM   21  S           1     -17.697 -12.617  -7.074  0.00  0.00    -0.173 SA
HETATM   22  C           1     -18.698 -12.659  -8.587  0.00  0.00     0.089 C 
ENDBRANCH  20  21
ENDBRANCH  19  20
ENDBRANCH  18  19
BRANCH  18  23
HETATM   23  N           1     -21.115 -10.927  -6.390  0.00  0.00    -0.066 N 
HETATM   24  H           1     -22.033 -10.429  -6.404  0.00  0.00     0.275 HD
HETATM   25  H           1     -20.505 -10.556  -7.153  0.00  0.00     0.275 HD
HETATM   26  H           1     -21.272 -11.950  -6.536  0.00  0.00     0.275 HD
ENDBRANCH  18  23
ENDBRANCH   3  18
TORSDOF 10
ENDMDL
