MODEL 1
REMARK VINA RESULT:      -7.5      0.000      0.000
REMARK  11 active torsions:
REMARK  status: ('A' for Active; 'I' for Inactive)
REMARK    1  A    between atoms: N_3  and  C_9 
REMARK    2  A    between atoms: C_7  and  C_15 
REMARK    3  A    between atoms: C_7  and  C_19 
REMARK    4  A    between atoms: C_7  and  N_27 
REMARK    5  A    between atoms: C_8  and  C_11 
REMARK    6  A    between atoms: C_9  and  C_14 
REMARK    7  A    between atoms: N_10  and  C_11 
REMARK       I    between atoms: N_10  and  C_15 
REMARK    8  A    between atoms: C_11  and  C_12 
REMARK    9  A    between atoms: C_12  and  C_13 
REMARK   10  A    between atoms: C_13  and  C_14 
REMARK   11  A    between atoms: C_18  and  C_19 
ROOT
HETATM    1  H           1     -32.444  -3.815 -14.171  0.00  0.00     0.163 HD
HETATM    2  N           1     -33.413  -4.080 -14.295  0.00  0.00    -0.345 N 
HETATM    3  C           1     -33.864  -4.469 -15.527  0.00  0.00     0.249 C 
HETATM    4  O           1     -35.020  -4.785 -15.676  0.00  0.00    -0.271 OA
ENDROOT
BRANCH   2   5
HETATM    5  C           1     -34.325  -4.046 -13.168  0.00  0.00     0.185 C 
BRANCH   5   6
HETATM    6  C           1     -34.565  -2.612 -12.760  0.00  0.00     0.196 C 
HETATM    7  O           1     -35.021  -1.795 -13.588  0.00  0.00    -0.646 OA
HETATM    8  O           1     -34.309  -2.244 -11.594  0.00  0.00    -0.646 OA
ENDBRANCH   5   6
BRANCH   5   9
HETATM    9  C           1     -33.718  -4.810 -11.999  0.00  0.00     0.036 C 
BRANCH   9  10
HETATM   10  C           1     -34.654  -5.937 -11.586  0.00  0.00     0.004 C 
BRANCH  10  11
HETATM   11  C           1     -34.267  -6.438 -10.201  0.00  0.00     0.027 C 
BRANCH  11  12
HETATM   12  C           1     -34.692  -7.894 -10.050  0.00  0.00     0.229 C 
BRANCH  12  13
HETATM   13  N           1     -33.507  -8.786 -10.274  0.00  0.00    -0.079 N 
HETATM   14  H           1     -33.787  -9.782 -10.124  0.00  0.00     0.274 HD
HETATM   15  H           1     -33.160  -8.665 -11.252  0.00  0.00     0.274 HD
HETATM   16  H           1     -32.748  -8.534  -9.601  0.00  0.00     0.274 HD
ENDBRANCH  12  13
ENDBRANCH  11  12
ENDBRANCH  10  11
ENDBRANCH   9  10
ENDBRANCH   5   9
ENDBRANCH   2   5
BRANCH   3  17
HETATM   17  C           1     -32.915  -4.504 -16.700  0.00  0.00     0.278 C 
BRANCH  17  18
HETATM   18  C           1     -31.479  -4.500 -16.192  0.00  0.00     0.081 C 
BRANCH  18  19
HETATM   19  C           1     -30.633  -5.360 -17.080  0.00  0.00    -0.056 A 
HETATM   20  C           1     -29.487  -4.831 -17.676  0.00  0.00     0.007 A 
HETATM   21  C           1     -28.699  -5.631 -18.503  0.00  0.00     0.001 A 
HETATM   22  C           1     -29.056  -6.959 -18.734  0.00  0.00     0.000 A 
HETATM   23  C           1     -30.202  -7.487 -18.140  0.00  0.00     0.001 A 
HETATM   24  C           1     -30.991  -6.687 -17.313  0.00  0.00     0.007 A 
ENDBRANCH  18  19
ENDBRANCH  17  18
BRANCH  17  25
HETATM   25  N           1     -33.143  -3.298 -17.562  0.00  0.00    -0.066 N 
HETATM   26  H           1     -34.148  -3.018 -17.512  0.00  0.00     0.275 HD
HETATM   27  H           1     -32.893  -3.524 -18.551  0.00  0.00     0.275 HD
HETATM   28  H           1     -32.545  -2.510 -17.223  0.00  0.00     0.275 HD
ENDBRANCH  17  25
ENDBRANCH   3  17
TORSDOF 11
ENDMDL
MODEL 2
REMARK VINA RESULT:      -7.1     13.773     14.933
REMARK  11 active torsions:
REMARK  status: ('A' for Active; 'I' for Inactive)
REMARK    1  A    between atoms: N_3  and  C_9 
REMARK    2  A    between atoms: C_7  and  C_15 
REMARK    3  A    between atoms: C_7  and  C_19 
REMARK    4  A    between atoms: C_7  and  N_27 
REMARK    5  A    between atoms: C_8  and  C_11 
REMARK    6  A    between atoms: C_9  and  C_14 
REMARK    7  A    between atoms: N_10  and  C_11 
REMARK       I    between atoms: N_10  and  C_15 
REMARK    8  A    between atoms: C_11  and  C_12 
REMARK    9  A    between atoms: C_12  and  C_13 
REMARK   10  A    between atoms: C_13  and  C_14 
REMARK   11  A    between atoms: C_18  and  C_19 
ROOT
HETATM    1  H           1     -23.079  -6.526  -4.601  0.00  0.00     0.163 HD
HETATM    2  N           1     -22.108  -6.259  -4.490  0.00  0.00    -0.345 N 
HETATM    3  C           1     -21.479  -5.543  -5.471  0.00  0.00     0.249 C 
HETATM    4  O           1     -20.321  -5.225  -5.340  0.00  0.00    -0.271 OA
ENDROOT
BRANCH   2   5
HETATM    5  C           1     -21.385  -6.637  -3.291  0.00  0.00     0.185 C 
BRANCH   5   6
HETATM    6  C           1     -21.001  -8.095  -3.375  0.00  0.00     0.196 C 
HETATM    7  O           1     -19.823  -8.445  -3.148  0.00  0.00    -0.646 OA
HETATM    8  O           1     -21.862  -8.950  -3.671  0.00  0.00    -0.646 OA
ENDBRANCH   5   6
BRANCH   5   9
HETATM    9  C           1     -22.269  -6.415  -2.072  0.00  0.00     0.036 C 
BRANCH   9  10
HETATM   10  C           1     -21.730  -7.221  -0.899  0.00  0.00     0.004 C 
BRANCH  10  11
HETATM   11  C           1     -22.891  -7.790  -0.095  0.00  0.00     0.027 C 
BRANCH  11  12
HETATM   12  C           1     -22.813  -9.312  -0.095  0.00  0.00     0.229 C 
BRANCH  12  13
HETATM   13  N           1     -21.459  -9.743  -0.575  0.00  0.00    -0.079 N 
HETATM   14  H           1     -21.548 -10.631  -1.120  0.00  0.00     0.274 HD
HETATM   15  H           1     -21.052  -8.999  -1.186  0.00  0.00     0.274 HD
HETATM   16  H           1     -20.832  -9.902   0.246  0.00  0.00     0.274 HD
ENDBRANCH  12  13
ENDBRANCH  11  12
ENDBRANCH  10  11
ENDBRANCH   9  10
ENDBRANCH   5   9
ENDBRANCH   2   5
BRANCH   3  17
HETATM   17  C           1     -22.232  -5.150  -6.719  0.00  0.00     0.278 C 
BRANCH  17  18
HETATM   18  C           1     -21.629  -3.876  -7.297  0.00  0.00     0.081 C 
BRANCH  18  19
HETATM   19  C           1     -21.544  -3.995  -8.787  0.00  0.00    -0.056 A 
HETATM   20  C           1     -20.326  -4.304  -9.394  0.00  0.00     0.007 A 
HETATM   21  C           1     -20.247  -4.415 -10.782  0.00  0.00     0.001 A 
HETATM   22  C           1     -21.385  -4.216 -11.563  0.00  0.00     0.000 A 
HETATM   23  C           1     -22.602  -3.905 -10.957  0.00  0.00     0.001 A 
HETATM   24  C           1     -22.681  -3.795  -9.569  0.00  0.00     0.007 A 
ENDBRANCH  18  19
ENDBRANCH  17  18
BRANCH  17  25
HETATM   25  N           1     -23.673  -4.910  -6.377  0.00  0.00    -0.066 N 
HETATM   26  H           1     -24.251  -5.708  -6.725  0.00  0.00     0.275 HD
HETATM   27  H           1     -23.995  -4.024  -6.829  0.00  0.00     0.275 HD
HETATM   28  H           1     -23.776  -4.831  -5.340  0.00  0.00     0.275 HD
ENDBRANCH  17  25
ENDBRANCH   3  17
TORSDOF 11
ENDMDL
MODEL 3
REMARK VINA RESULT:      -6.9     13.895     15.099
REMARK  11 active torsions:
REMARK  status: ('A' for Active; 'I' for Inactive)
REMARK    1  A    between atoms: N_3  and  C_9 
REMARK    2  A    between atoms: C_7  and  C_15 
REMARK    3  A    between atoms: C_7  and  C_19 
REMARK    4  A    between atoms: C_7  and  N_27 
REMARK    5  A    between atoms: C_8  and  C_11 
REMARK    6  A    between atoms: C_9  and  C_14 
REMARK    7  A    between atoms: N_10  and  C_11 
REMARK       I    between atoms: N_10  and  C_15 
REMARK    8  A    between atoms: C_11  and  C_12 
REMARK    9  A    between atoms: C_12  and  C_13 
REMARK   10  A    between atoms: C_13  and  C_14 
REMARK   11  A    between atoms: C_18  and  C_19 
ROOT
HETATM    1  H           1     -22.144  -8.005  -6.033  0.00  0.00     0.163 HD
HETATM    2  N           1     -21.573  -7.464  -5.396  0.00  0.00    -0.345 N 
HETATM    3  C           1     -21.485  -6.106  -5.540  0.00  0.00     0.249 C 
HETATM    4  O           1     -20.804  -5.460  -4.781  0.00  0.00    -0.271 OA
ENDROOT
BRANCH   2   5
HETATM    5  C           1     -20.847  -8.127  -4.330  0.00  0.00     0.185 C 
BRANCH   5   6
HETATM    6  C           1     -19.755  -8.984  -4.925  0.00  0.00     0.196 C 
HETATM    7  O           1     -18.604  -8.956  -4.437  0.00  0.00    -0.646 OA
HETATM    8  O           1     -20.002  -9.720  -5.903  0.00  0.00    -0.646 OA
ENDBRANCH   5   6
BRANCH   5   9
HETATM    9  C           1     -21.803  -9.006  -3.535  0.00  0.00     0.036 C 
BRANCH   9  10
HETATM   10  C           1     -21.324  -9.105  -2.093  0.00  0.00     0.004 C 
BRANCH  10  11
HETATM   11  C           1     -20.930  -7.722  -1.593  0.00  0.00     0.027 C 
BRANCH  11  12
HETATM   12  C           1     -22.179  -6.960  -1.167  0.00  0.00     0.229 C 
BRANCH  12  13
HETATM   13  N           1     -22.320  -5.722  -2.002  0.00  0.00    -0.079 N 
HETATM   14  H           1     -21.398  -5.230  -2.054  0.00  0.00     0.274 HD
HETATM   15  H           1     -22.629  -5.984  -2.964  0.00  0.00     0.274 HD
HETATM   16  H           1     -23.027  -5.087  -1.568  0.00  0.00     0.274 HD
ENDBRANCH  12  13
ENDBRANCH  11  12
ENDBRANCH  10  11
ENDBRANCH   9  10
ENDBRANCH   5   9
ENDBRANCH   2   5
BRANCH   3  17
HETATM   17  C           1     -22.240  -5.415  -6.650  0.00  0.00     0.278 C 
BRANCH  17  18
HETATM   18  C           1     -21.482  -4.165  -7.078  0.00  0.00     0.081 C 
BRANCH  18  19
HETATM   19  C           1     -21.401  -4.116  -8.572  0.00  0.00    -0.056 A 
HETATM   20  C           1     -22.491  -3.660  -9.315  0.00  0.00     0.007 A 
HETATM   21  C           1     -22.416  -3.614 -10.707  0.00  0.00     0.001 A 
HETATM   22  C           1     -21.251  -4.026 -11.356  0.00  0.00     0.000 A 
HETATM   23  C           1     -20.163  -4.483 -10.614  0.00  0.00     0.001 A 
HETATM   24  C           1     -20.238  -4.529  -9.222  0.00  0.00     0.007 A 
ENDBRANCH  18  19
ENDBRANCH  17  18
BRANCH  17  25
HETATM   25  N           1     -23.604  -5.029  -6.160  0.00  0.00    -0.066 N 
HETATM   26  H           1     -24.328  -5.585  -6.669  0.00  0.00     0.275 HD
HETATM   27  H           1     -23.762  -4.011  -6.335  0.00  0.00     0.275 HD
HETATM   28  H           1     -23.674  -5.223  -5.136  0.00  0.00     0.275 HD
ENDBRANCH  17  25
ENDBRANCH   3  17
TORSDOF 11
ENDMDL
MODEL 4
REMARK VINA RESULT:      -6.0     17.972     20.305
REMARK  11 active torsions:
REMARK  status: ('A' for Active; 'I' for Inactive)
REMARK    1  A    between atoms: N_3  and  C_9 
REMARK    2  A    between atoms: C_7  and  C_15 
REMARK    3  A    between atoms: C_7  and  C_19 
REMARK    4  A    between atoms: C_7  and  N_27 
REMARK    5  A    between atoms: C_8  and  C_11 
REMARK    6  A    between atoms: C_9  and  C_14 
REMARK    7  A    between atoms: N_10  and  C_11 
REMARK       I    between atoms: N_10  and  C_15 
REMARK    8  A    between atoms: C_11  and  C_12 
REMARK    9  A    between atoms: C_12  and  C_13 
REMARK   10  A    between atoms: C_13  and  C_14 
REMARK   11  A    between atoms: C_18  and  C_19 
ROOT
HETATM    1  H           1     -20.979  10.308 -14.979  0.00  0.00     0.163 HD
HETATM    2  N           1     -21.607  10.998 -15.374  0.00  0.00    -0.345 N 
HETATM    3  C           1     -22.582  11.561 -14.596  0.00  0.00     0.249 C 
HETATM    4  O           1     -23.331  12.383 -15.066  0.00  0.00    -0.271 OA
ENDROOT
BRANCH   2   5
HETATM    5  C           1     -21.473  11.389 -16.763  0.00  0.00     0.185 C 
BRANCH   5   6
HETATM    6  C           1     -21.496  10.157 -17.636  0.00  0.00     0.196 C 
HETATM    7  O           1     -21.433   9.022 -17.116  0.00  0.00    -0.646 OA
HETATM    8  O           1     -21.579  10.272 -18.877  0.00  0.00    -0.646 OA
ENDBRANCH   5   6
BRANCH   5   9
HETATM    9  C           1     -20.154  12.125 -16.960  0.00  0.00     0.036 C 
BRANCH   9  10
HETATM   10  C           1     -19.040  11.372 -16.246  0.00  0.00     0.004 C 
BRANCH  10  11
HETATM   11  C           1     -17.708  12.058 -16.517  0.00  0.00     0.027 C 
BRANCH  11  12
HETATM   12  C           1     -16.570  11.081 -16.248  0.00  0.00     0.229 C 
BRANCH  12  13
HETATM   13  N           1     -15.622  11.680 -15.251  0.00  0.00    -0.079 N 
HETATM   14  H           1     -14.659  11.307 -15.417  0.00  0.00     0.274 HD
HETATM   15  H           1     -15.616  12.720 -15.357  0.00  0.00     0.274 HD
HETATM   16  H           1     -15.929  11.430 -14.284  0.00  0.00     0.274 HD
ENDBRANCH  12  13
ENDBRANCH  11  12
ENDBRANCH  10  11
ENDBRANCH   9  10
ENDBRANCH   5   9
ENDBRANCH   2   5
BRANCH   3  17
HETATM   17  C           1     -22.722  11.153 -13.149  0.00  0.00     0.278 C 
BRANCH  17  18
HETATM   18  C           1     -24.185  11.245 -12.735  0.00  0.00     0.081 C 
BRANCH  18  19
HETATM   19  C           1     -24.606   9.955 -12.100  0.00  0.00    -0.056 A 
HETATM   20  C           1     -23.868   8.793 -12.327  0.00  0.00     0.007 A 
HETATM   21  C           1     -24.260   7.592 -11.737  0.00  0.00     0.001 A 
HETATM   22  C           1     -25.390   7.553 -10.919  0.00  0.00     0.000 A 
HETATM   23  C           1     -26.128   8.715 -10.693  0.00  0.00     0.001 A 
HETATM   24  C           1     -25.736   9.916 -11.284  0.00  0.00     0.007 A 
ENDBRANCH  18  19
ENDBRANCH  17  18
BRANCH  17  25
HETATM   25  N           1     -21.902  12.071 -12.291  0.00  0.00    -0.066 N 
HETATM   26  H           1     -21.641  11.580 -11.407  0.00  0.00     0.275 HD
HETATM   27  H           1     -22.458  12.925 -12.064  0.00  0.00     0.275 HD
HETATM   28  H           1     -21.034  12.345 -12.805  0.00  0.00     0.275 HD
ENDBRANCH  17  25
ENDBRANCH   3  17
TORSDOF 11
ENDMDL
MODEL 5
REMARK VINA RESULT:      -6.0     15.746     16.940
REMARK  11 active torsions:
REMARK  status: ('A' for Active; 'I' for Inactive)
REMARK    1  A    between atoms: N_3  and  C_9 
REMARK    2  A    between atoms: C_7  and  C_15 
REMARK    3  A    between atoms: C_7  and  C_19 
REMARK    4  A    between atoms: C_7  and  N_27 
REMARK    5  A    between atoms: C_8  and  C_11 
REMARK    6  A    between atoms: C_9  and  C_14 
REMARK    7  A    between atoms: N_10  and  C_11 
REMARK       I    between atoms: N_10  and  C_15 
REMARK    8  A    between atoms: C_11  and  C_12 
REMARK    9  A    between atoms: C_12  and  C_13 
REMARK   10  A    between atoms: C_13  and  C_14 
REMARK   11  A    between atoms: C_18  and  C_19 
ROOT
HETATM    1  H           1     -20.690  -7.979  -3.499  0.00  0.00     0.163 HD
HETATM    2  N           1     -20.080  -8.119  -4.295  0.00  0.00    -0.345 N 
HETATM    3  C           1     -20.197  -7.315  -5.397  0.00  0.00     0.249 C 
HETATM    4  O           1     -19.471  -7.482  -6.347  0.00  0.00    -0.271 OA
ENDROOT
BRANCH   2   5
HETATM    5  C           1     -19.083  -9.172  -4.270  0.00  0.00     0.185 C 
BRANCH   5   6
HETATM    6  C           1     -19.734 -10.487  -4.626  0.00  0.00     0.196 C 
HETATM    7  O           1     -19.090 -11.351  -5.259  0.00  0.00    -0.646 OA
HETATM    8  O           1     -20.915 -10.712  -4.286  0.00  0.00    -0.646 OA
ENDBRANCH   5   6
BRANCH   5   9
HETATM    9  C           1     -18.480  -9.267  -2.875  0.00  0.00     0.036 C 
BRANCH   9  10
HETATM   10  C           1     -16.978  -9.494  -2.985  0.00  0.00     0.004 C 
BRANCH  10  11
HETATM   11  C           1     -16.601 -10.767  -2.239  0.00  0.00     0.027 C 
BRANCH  11  12
HETATM   12  C           1     -16.199 -11.843  -3.241  0.00  0.00     0.229 C 
BRANCH  12  13
HETATM   13  N           1     -16.057 -11.231  -4.603  0.00  0.00    -0.079 N 
HETATM   14  H           1     -15.892 -10.203  -4.507  0.00  0.00     0.274 HD
HETATM   15  H           1     -15.248 -11.668  -5.099  0.00  0.00     0.274 HD
HETATM   16  H           1     -16.932 -11.392  -5.151  0.00  0.00     0.274 HD
ENDBRANCH  12  13
ENDBRANCH  11  12
ENDBRANCH  10  11
ENDBRANCH   9  10
ENDBRANCH   5   9
ENDBRANCH   2   5
BRANCH   3  17
HETATM   17  C           1     -21.235  -6.220  -5.423  0.00  0.00     0.278 C 
BRANCH  17  18
HETATM   18  C           1     -20.578  -4.907  -5.832  0.00  0.00     0.081 C 
BRANCH  18  19
HETATM   19  C           1     -20.985  -4.559  -7.230  0.00  0.00    -0.056 A 
HETATM   20  C           1     -22.313  -4.237  -7.510  0.00  0.00     0.007 A 
HETATM   21  C           1     -22.692  -3.912  -8.812  0.00  0.00     0.001 A 
HETATM   22  C           1     -21.743  -3.910  -9.835  0.00  0.00     0.000 A 
HETATM   23  C           1     -20.416  -4.233  -9.555  0.00  0.00     0.001 A 
HETATM   24  C           1     -20.036  -4.558  -8.253  0.00  0.00     0.007 A 
ENDBRANCH  18  19
ENDBRANCH  17  18
BRANCH  17  25
HETATM   25  N           1     -21.839  -6.071  -4.058  0.00  0.00    -0.066 N 
HETATM   26  H           1     -21.083  -6.091  -3.338  0.00  0.00     0.275 HD
HETATM   27  H           1     -22.506  -6.857  -3.885  0.00  0.00     0.275 HD
HETATM   28  H           1     -22.350  -5.161  -4.001  0.00  0.00     0.275 HD
ENDBRANCH  17  25
ENDBRANCH   3  17
TORSDOF 11
ENDMDL
MODEL 6
REMARK VINA RESULT:      -6.0      3.089      7.079
REMARK  11 active torsions:
REMARK  status: ('A' for Active; 'I' for Inactive)
REMARK    1  A    between atoms: N_3  and  C_9 
REMARK    2  A    between atoms: C_7  and  C_15 
REMARK    3  A    between atoms: C_7  and  C_19 
REMARK    4  A    between atoms: C_7  and  N_27 
REMARK    5  A    between atoms: C_8  and  C_11 
REMARK    6  A    between atoms: C_9  and  C_14 
REMARK    7  A    between atoms: N_10  and  C_11 
REMARK       I    between atoms: N_10  and  C_15 
REMARK    8  A    between atoms: C_11  and  C_12 
REMARK    9  A    between atoms: C_12  and  C_13 
REMARK   10  A    between atoms: C_13  and  C_14 
REMARK   11  A    between atoms: C_18  and  C_19 
ROOT
HETATM    1  H           1     -32.400  -5.521 -15.458  0.00  0.00     0.163 HD
HETATM    2  N           1     -32.056  -5.047 -16.284  0.00  0.00    -0.345 N 
HETATM    3  C           1     -32.611  -3.857 -16.672  0.00  0.00     0.249 C 
HETATM    4  O           1     -32.202  -3.291 -17.657  0.00  0.00    -0.271 OA
ENDROOT
BRANCH   2   5
HETATM    5  C           1     -30.977  -5.629 -17.058  0.00  0.00     0.185 C 
BRANCH   5   6
HETATM    6  C           1     -31.435  -6.940 -17.652  0.00  0.00     0.196 C 
HETATM    7  O           1     -32.653  -7.213 -17.698  0.00  0.00    -0.646 OA
HETATM    8  O           1     -30.595  -7.750 -18.097  0.00  0.00    -0.646 OA
ENDBRANCH   5   6
BRANCH   5   9
HETATM    9  C           1     -29.777  -5.874 -16.153  0.00  0.00     0.036 C 
BRANCH   9  10
HETATM   10  C           1     -28.509  -5.397 -16.848  0.00  0.00     0.004 C 
BRANCH  10  11
HETATM   11  C           1     -28.842  -4.230 -17.768  0.00  0.00     0.027 C 
BRANCH  11  12
HETATM   12  C           1     -28.577  -2.918 -17.040  0.00  0.00     0.229 C 
BRANCH  12  13
HETATM   13  N           1     -29.587  -1.895 -17.470  0.00  0.00    -0.079 N 
HETATM   14  H           1     -30.442  -2.379 -17.829  0.00  0.00     0.274 HD
HETATM   15  H           1     -29.843  -1.295 -16.655  0.00  0.00     0.274 HD
HETATM   16  H           1     -29.181  -1.301 -18.228  0.00  0.00     0.274 HD
ENDBRANCH  12  13
ENDBRANCH  11  12
ENDBRANCH  10  11
ENDBRANCH   9  10
ENDBRANCH   5   9
ENDBRANCH   2   5
BRANCH   3  17
HETATM   17  C           1     -33.735  -3.252 -15.866  0.00  0.00     0.278 C 
BRANCH  17  18
HETATM   18  C           1     -34.213  -4.257 -14.826  0.00  0.00     0.081 C 
BRANCH  18  19
HETATM   19  C           1     -34.016  -3.689 -13.455  0.00  0.00    -0.056 A 
HETATM   20  C           1     -34.730  -2.556 -13.061  0.00  0.00     0.007 A 
HETATM   21  C           1     -34.547  -2.026 -11.784  0.00  0.00     0.001 A 
HETATM   22  C           1     -33.651  -2.629 -10.901  0.00  0.00     0.000 A 
HETATM   23  C           1     -32.937  -3.760 -11.295  0.00  0.00     0.001 A 
HETATM   24  C           1     -33.120  -4.290 -12.572  0.00  0.00     0.007 A 
ENDBRANCH  18  19
ENDBRANCH  17  18
BRANCH  17  25
HETATM   25  N           1     -34.871  -2.902 -16.781  0.00  0.00    -0.066 N 
HETATM   26  H           1     -35.633  -2.446 -16.231  0.00  0.00     0.275 HD
HETATM   27  H           1     -35.238  -3.771 -17.229  0.00  0.00     0.275 HD
HETATM   28  H           1     -34.534  -2.243 -17.519  0.00  0.00     0.275 HD
ENDBRANCH  17  25
ENDBRANCH   3  17
TORSDOF 11
ENDMDL
MODEL 7
REMARK VINA RESULT:      -5.9     15.438     17.133
REMARK  11 active torsions:
REMARK  status: ('A' for Active; 'I' for Inactive)
REMARK    1  A    between atoms: N_3  and  C_9 
REMARK    2  A    between atoms: C_7  and  C_15 
REMARK    3  A    between atoms: C_7  and  C_19 
REMARK    4  A    between atoms: C_7  and  N_27 
REMARK    5  A    between atoms: C_8  and  C_11 
REMARK    6  A    between atoms: C_9  and  C_14 
REMARK    7  A    between atoms: N_10  and  C_11 
REMARK       I    between atoms: N_10  and  C_15 
REMARK    8  A    between atoms: C_11  and  C_12 
REMARK    9  A    between atoms: C_12  and  C_13 
REMARK   10  A    between atoms: C_13  and  C_14 
REMARK   11  A    between atoms: C_18  and  C_19 
ROOT
HETATM    1  H           1     -21.239  -9.591  -1.888  0.00  0.00     0.163 HD
HETATM    2  N           1     -21.610  -8.729  -1.508  0.00  0.00    -0.345 N 
HETATM    3  C           1     -21.579  -7.583  -2.256  0.00  0.00     0.249 C 
HETATM    4  O           1     -22.022  -6.554  -1.805  0.00  0.00    -0.271 OA
ENDROOT
BRANCH   2   5
HETATM    5  C           1     -22.175  -8.707  -0.173  0.00  0.00     0.185 C 
BRANCH   5   6
HETATM    6  C           1     -21.145  -9.200   0.815  0.00  0.00     0.196 C 
HETATM    7  O           1     -20.843  -8.500   1.805  0.00  0.00    -0.646 OA
HETATM    8  O           1     -20.595 -10.309   0.643  0.00  0.00    -0.646 OA
ENDBRANCH   5   6
BRANCH   5   9
HETATM    9  C           1     -23.398  -9.612  -0.123  0.00  0.00     0.036 C 
BRANCH   9  10
HETATM   10  C           1     -23.279 -10.689  -1.192  0.00  0.00     0.004 C 
BRANCH  10  11
HETATM   11  C           1     -23.847 -11.998  -0.661  0.00  0.00     0.027 C 
BRANCH  11  12
HETATM   12  C           1     -22.708 -12.973  -0.387  0.00  0.00     0.229 C 
BRANCH  12  13
HETATM   13  N           1     -22.289 -12.861   1.049  0.00  0.00    -0.079 N 
HETATM   14  H           1     -23.129 -12.679   1.644  0.00  0.00     0.274 HD
HETATM   15  H           1     -21.836 -13.753   1.350  0.00  0.00     0.274 HD
HETATM   16  H           1     -21.612 -12.072   1.154  0.00  0.00     0.274 HD
ENDBRANCH  12  13
ENDBRANCH  11  12
ENDBRANCH  10  11
ENDBRANCH   9  10
ENDBRANCH   5   9
ENDBRANCH   2   5
BRANCH   3  17
HETATM   17  C           1     -20.991  -7.606  -3.646  0.00  0.00     0.278 C 
BRANCH  17  18
HETATM   18  C           1     -22.073  -7.255  -4.661  0.00  0.00     0.081 C 
BRANCH  18  19
HETATM   19  C           1     -21.605  -6.119  -5.517  0.00  0.00    -0.056 A 
HETATM   20  C           1     -20.267  -5.724  -5.482  0.00  0.00     0.007 A 
HETATM   21  C           1     -19.831  -4.666  -6.279  0.00  0.00     0.001 A 
HETATM   22  C           1     -20.733  -4.003  -7.111  0.00  0.00     0.000 A 
HETATM   23  C           1     -22.070  -4.397  -7.146  0.00  0.00     0.001 A 
HETATM   24  C           1     -22.506  -5.455  -6.348  0.00  0.00     0.007 A 
ENDBRANCH  18  19
ENDBRANCH  17  18
BRANCH  17  25
HETATM   25  N           1     -20.458  -8.977  -3.940  0.00  0.00    -0.066 N 
HETATM   26  H           1     -20.114  -9.414  -3.056  0.00  0.00     0.275 HD
HETATM   27  H           1     -19.669  -8.904  -4.622  0.00  0.00     0.275 HD
HETATM   28  H           1     -21.218  -9.566  -4.347  0.00  0.00     0.275 HD
ENDBRANCH  17  25
ENDBRANCH   3  17
TORSDOF 11
ENDMDL
MODEL 8
REMARK VINA RESULT:      -5.9      2.937      7.197
REMARK  11 active torsions:
REMARK  status: ('A' for Active; 'I' for Inactive)
REMARK    1  A    between atoms: N_3  and  C_9 
REMARK    2  A    between atoms: C_7  and  C_15 
REMARK    3  A    between atoms: C_7  and  C_19 
REMARK    4  A    between atoms: C_7  and  N_27 
REMARK    5  A    between atoms: C_8  and  C_11 
REMARK    6  A    between atoms: C_9  and  C_14 
REMARK    7  A    between atoms: N_10  and  C_11 
REMARK       I    between atoms: N_10  and  C_15 
REMARK    8  A    between atoms: C_11  and  C_12 
REMARK    9  A    between atoms: C_12  and  C_13 
REMARK   10  A    between atoms: C_13  and  C_14 
REMARK   11  A    between atoms: C_18  and  C_19 
ROOT
HETATM    1  H           1     -31.756  -5.819 -15.548  0.00  0.00     0.163 HD
HETATM    2  N           1     -31.736  -5.112 -16.272  0.00  0.00    -0.345 N 
HETATM    3  C           1     -32.725  -4.168 -16.334  0.00  0.00     0.249 C 
HETATM    4  O           1     -32.702  -3.323 -17.197  0.00  0.00    -0.271 OA
ENDROOT
BRANCH   2   5
HETATM    5  C           1     -30.660  -5.098 -17.244  0.00  0.00     0.185 C 
BRANCH   5   6
HETATM    6  C           1     -30.527  -6.468 -17.864  0.00  0.00     0.196 C 
HETATM    7  O           1     -31.365  -7.357 -17.602  0.00  0.00    -0.646 OA
HETATM    8  O           1     -29.580  -6.712 -18.641  0.00  0.00    -0.646 OA
ENDBRANCH   5   6
BRANCH   5   9
HETATM    9  C           1     -29.355  -4.727 -16.552  0.00  0.00     0.036 C 
BRANCH   9  10
HETATM   10  C           1     -29.086  -5.703 -15.415  0.00  0.00     0.004 C 
BRANCH  10  11
HETATM   11  C           1     -27.742  -6.384 -15.637  0.00  0.00     0.027 C 
BRANCH  11  12
HETATM   12  C           1     -26.961  -5.632 -16.707  0.00  0.00     0.229 C 
BRANCH  12  13
HETATM   13  N           1     -26.592  -6.575 -17.813  0.00  0.00    -0.079 N 
HETATM   14  H           1     -27.348  -6.579 -18.535  0.00  0.00     0.274 HD
HETATM   15  H           1     -25.695  -6.265 -18.251  0.00  0.00     0.274 HD
HETATM   16  H           1     -26.477  -7.539 -17.426  0.00  0.00     0.274 HD
ENDBRANCH  12  13
ENDBRANCH  11  12
ENDBRANCH  10  11
ENDBRANCH   9  10
ENDBRANCH   5   9
ENDBRANCH   2   5
BRANCH   3  17
HETATM   17  C           1     -33.846  -4.182 -15.323  0.00  0.00     0.278 C 
BRANCH  17  18
HETATM   18  C           1     -33.296  -4.590 -13.962  0.00  0.00     0.081 C 
BRANCH  18  19
HETATM   19  C           1     -33.737  -3.600 -12.928  0.00  0.00    -0.056 A 
HETATM   20  C           1     -33.155  -3.609 -11.661  0.00  0.00     0.007 A 
HETATM   21  C           1     -33.565  -2.688 -10.698  0.00  0.00     0.001 A 
HETATM   22  C           1     -34.558  -1.757 -11.003  0.00  0.00     0.000 A 
HETATM   23  C           1     -35.141  -1.748 -12.270  0.00  0.00     0.001 A 
HETATM   24  C           1     -34.731  -2.670 -13.232  0.00  0.00     0.007 A 
ENDBRANCH  18  19
ENDBRANCH  17  18
BRANCH  17  25
HETATM   25  N           1     -34.893  -5.166 -15.753  0.00  0.00    -0.066 N 
HETATM   26  H           1     -35.646  -4.667 -16.279  0.00  0.00     0.275 HD
HETATM   27  H           1     -35.305  -5.627 -14.911  0.00  0.00     0.275 HD
HETATM   28  H           1     -34.459  -5.889 -16.371  0.00  0.00     0.275 HD
ENDBRANCH  17  25
ENDBRANCH   3  17
TORSDOF 11
ENDMDL
MODEL 9
REMARK VINA RESULT:      -5.9     27.592     29.058
REMARK  11 active torsions:
REMARK  status: ('A' for Active; 'I' for Inactive)
REMARK    1  A    between atoms: N_3  and  C_9 
REMARK    2  A    between atoms: C_7  and  C_15 
REMARK    3  A    between atoms: C_7  and  C_19 
REMARK    4  A    between atoms: C_7  and  N_27 
REMARK    5  A    between atoms: C_8  and  C_11 
REMARK    6  A    between atoms: C_9  and  C_14 
REMARK    7  A    between atoms: N_10  and  C_11 
REMARK       I    between atoms: N_10  and  C_15 
REMARK    8  A    between atoms: C_11  and  C_12 
REMARK    9  A    between atoms: C_12  and  C_13 
REMARK   10  A    between atoms: C_13  and  C_14 
REMARK   11  A    between atoms: C_18  and  C_19 
ROOT
HETATM    1  H           1     -17.388   8.321   5.575  0.00  0.00     0.163 HD
HETATM    2  N           1     -17.423   9.304   5.333  0.00  0.00    -0.345 N 
HETATM    3  C           1     -16.273  10.044   5.311  0.00  0.00     0.249 C 
HETATM    4  O           1     -16.313  11.216   5.024  0.00  0.00    -0.271 OA
ENDROOT
BRANCH   2   5
HETATM    5  C           1     -18.692   9.927   5.012  0.00  0.00     0.185 C 
BRANCH   5   6
HETATM    6  C           1     -19.534  10.025   6.262  0.00  0.00     0.196 C 
HETATM    7  O           1     -20.389   9.148   6.509  0.00  0.00    -0.646 OA
HETATM    8  O           1     -19.374  10.981   7.049  0.00  0.00    -0.646 OA
ENDBRANCH   5   6
BRANCH   5   9
HETATM    9  C           1     -19.423   9.086   3.974  0.00  0.00     0.036 C 
BRANCH   9  10
HETATM   10  C           1     -18.582   8.998   2.707  0.00  0.00     0.004 C 
BRANCH  10  11
HETATM   11  C           1     -18.685  10.308   1.937  0.00  0.00     0.027 C 
BRANCH  11  12
HETATM   12  C           1     -17.290  10.775   1.540  0.00  0.00     0.229 C 
BRANCH  12  13
HETATM   13  N           1     -16.974  12.061   2.243  0.00  0.00    -0.079 N 
HETATM   14  H           1     -16.848  11.878   3.265  0.00  0.00     0.274 HD
HETATM   15  H           1     -16.094  12.466   1.852  0.00  0.00     0.274 HD
HETATM   16  H           1     -17.760  12.736   2.106  0.00  0.00     0.274 HD
ENDBRANCH  12  13
ENDBRANCH  11  12
ENDBRANCH  10  11
ENDBRANCH   9  10
ENDBRANCH   5   9
ENDBRANCH   2   5
BRANCH   3  17
HETATM   17  C           1     -14.952   9.396   5.647  0.00  0.00     0.278 C 
BRANCH  17  18
HETATM   18  C           1     -14.775   8.138   4.804  0.00  0.00     0.081 C 
BRANCH  18  19
HETATM   19  C           1     -14.374   8.522   3.413  0.00  0.00    -0.056 A 
HETATM   20  C           1     -13.361   9.460   3.213  0.00  0.00     0.007 A 
HETATM   21  C           1     -12.987   9.817   1.918  0.00  0.00     0.001 A 
HETATM   22  C           1     -13.626   9.235   0.823  0.00  0.00     0.000 A 
HETATM   23  C           1     -14.640   8.298   1.023  0.00  0.00     0.001 A 
HETATM   24  C           1     -15.014   7.941   2.318  0.00  0.00     0.007 A 
ENDBRANCH  18  19
ENDBRANCH  17  18
BRANCH  17  25
HETATM   25  N           1     -14.930   9.029   7.101  0.00  0.00    -0.066 N 
HETATM   26  H           1     -13.997   8.629   7.346  0.00  0.00     0.275 HD
HETATM   27  H           1     -15.674   8.320   7.292  0.00  0.00     0.275 HD
HETATM   28  H           1     -15.105   9.883   7.678  0.00  0.00     0.275 HD
ENDBRANCH  17  25
ENDBRANCH   3  17
TORSDOF 11
ENDMDL
