MODEL 1
REMARK VINA RESULT:      -7.5      0.000      0.000
REMARK  11 active torsions:
REMARK  status: ('A' for Active; 'I' for Inactive)
REMARK    1  A    between atoms: C_1  and  C_6 
REMARK    2  A    between atoms: C_5  and  C_18 
REMARK    3  A    between atoms: C_5  and  C_6 
REMARK    4  A    between atoms: C_5  and  N_13 
REMARK    5  A    between atoms: O_7  and  P_27 
REMARK    6  A    between atoms: S_10  and  C_11 
REMARK    7  A    between atoms: C_11  and  C_12 
REMARK    8  A    between atoms: C_12  and  C_26 
REMARK    9  A    between atoms: C_12  and  N_16 
REMARK       I    between atoms: N_13  and  C_26 
REMARK   10  A    between atoms: O_19  and  C_21 
REMARK   11  A    between atoms: O_19  and  P_27 
ROOT
HETATM    1  C           1     -32.490  -4.331 -16.236  0.00  0.00     0.189 C 
ENDROOT
BRANCH   1   2
HETATM    2  C           1     -32.578  -3.290 -17.325  0.00  0.00     0.197 C 
HETATM    3  O           1     -33.668  -2.728 -17.566  0.00  0.00    -0.646 OA
HETATM    4  O           1     -31.560  -2.990 -17.987  0.00  0.00    -0.646 OA
ENDBRANCH   1   2
BRANCH   1   5
HETATM    5  C           1     -31.969  -5.637 -16.821  0.00  0.00     0.074 C 
BRANCH   5   6
HETATM    6  C           1     -30.472  -5.623 -16.818  0.00  0.00    -0.056 A 
HETATM    7  C           1     -29.780  -5.203 -15.682  0.00  0.00     0.010 A 
HETATM    8  C           1     -28.386  -5.190 -15.679  0.00  0.00     0.038 A 
HETATM    9  C           1     -27.682  -5.596 -16.813  0.00  0.00     0.081 A 
HETATM   10  C           1     -28.374  -6.017 -17.949  0.00  0.00     0.038 A 
HETATM   11  C           1     -29.769  -6.029 -17.952  0.00  0.00     0.010 A 
BRANCH   9  12
HETATM   12  O           1     -26.328  -5.584 -16.810  0.00  0.00    -0.247 OA
BRANCH  12  13
HETATM   13  P           1     -25.561  -6.693 -15.921  0.00  0.00     0.411 P 
HETATM   14  O           1     -26.544  -7.665 -15.390  0.00  0.00    -0.624 OA
HETATM   15  O           1     -24.572  -7.404 -16.762  0.00  0.00    -0.624 OA
BRANCH  13  16
HETATM   16  O           1     -24.802  -5.968 -14.694  0.00  0.00    -0.300 OA
HETATM   17  H           1     -25.398  -6.032 -13.967  0.00  0.00     0.223 HD
ENDBRANCH  13  16
ENDBRANCH  12  13
ENDBRANCH   9  12
ENDBRANCH   5   6
ENDBRANCH   1   5
BRANCH   1  18
HETATM   18  N           1     -33.807  -4.548 -15.669  0.00  0.00    -0.344 N 
HETATM   19  C           1     -34.144  -3.966 -14.477  0.00  0.00     0.249 C 
HETATM   20  O           1     -34.650  -2.870 -14.462  0.00  0.00    -0.271 OA
HETATM   21  H           1     -34.477  -5.131 -16.155  0.00  0.00     0.163 HD
BRANCH  19  22
HETATM   22  C           1     -33.881  -4.693 -13.182  0.00  0.00     0.283 C 
BRANCH  22  23
HETATM   23  C           1     -34.799  -4.147 -12.096  0.00  0.00     0.113 C 
BRANCH  23  24
HETATM   24  S           1     -33.818  -3.217 -10.885  0.00  0.00    -0.180 SA
HETATM   25  H           1     -33.872  -4.148  -9.915  0.00  0.00     0.101 HD
ENDBRANCH  23  24
ENDBRANCH  22  23
BRANCH  22  26
HETATM   26  N           1     -32.451  -4.490 -12.775  0.00  0.00    -0.066 N 
HETATM   27  H           1     -31.884  -4.229 -13.613  0.00  0.00     0.275 HD
HETATM   28  H           1     -32.397  -3.723 -12.067  0.00  0.00     0.275 HD
HETATM   29  H           1     -32.077  -5.374 -12.362  0.00  0.00     0.275 HD
ENDBRANCH  22  26
ENDBRANCH  19  22
ENDBRANCH   1  18
TORSDOF 11
ENDMDL
MODEL 2
REMARK VINA RESULT:      -6.7     11.910     14.385
REMARK  11 active torsions:
REMARK  status: ('A' for Active; 'I' for Inactive)
REMARK    1  A    between atoms: C_1  and  C_6 
REMARK    2  A    between atoms: C_5  and  C_18 
REMARK    3  A    between atoms: C_5  and  C_6 
REMARK    4  A    between atoms: C_5  and  N_13 
REMARK    5  A    between atoms: O_7  and  P_27 
REMARK    6  A    between atoms: S_10  and  C_11 
REMARK    7  A    between atoms: C_11  and  C_12 
REMARK    8  A    between atoms: C_12  and  C_26 
REMARK    9  A    between atoms: C_12  and  N_16 
REMARK       I    between atoms: N_13  and  C_26 
REMARK   10  A    between atoms: O_19  and  C_21 
REMARK   11  A    between atoms: O_19  and  P_27 
ROOT
HETATM    1  C           1     -21.151  -7.825  -5.393  0.00  0.00     0.189 C 
ENDROOT
BRANCH   1   2
HETATM    2  C           1     -20.248  -8.957  -4.970  0.00  0.00     0.197 C 
HETATM    3  O           1     -19.043  -8.735  -4.721  0.00  0.00    -0.646 OA
HETATM    4  O           1     -20.704 -10.116  -4.867  0.00  0.00    -0.646 OA
ENDBRANCH   1   2
BRANCH   1   5
HETATM    5  C           1     -20.330  -6.552  -5.555  0.00  0.00     0.074 C 
BRANCH   5   6
HETATM    6  C           1     -20.915  -5.716  -6.650  0.00  0.00    -0.056 A 
HETATM    7  C           1     -22.160  -5.113  -6.478  0.00  0.00     0.010 A 
HETATM    8  C           1     -22.706  -4.334  -7.498  0.00  0.00     0.038 A 
HETATM    9  C           1     -22.006  -4.159  -8.692  0.00  0.00     0.081 A 
HETATM   10  C           1     -20.760  -4.762  -8.865  0.00  0.00     0.038 A 
HETATM   11  C           1     -20.215  -5.541  -7.844  0.00  0.00     0.010 A 
BRANCH   9  12
HETATM   12  O           1     -22.535  -3.402  -9.683  0.00  0.00    -0.247 OA
BRANCH  12  13
HETATM   13  P           1     -23.552  -4.112 -10.718  0.00  0.00     0.411 P 
HETATM   14  O           1     -22.894  -4.253 -12.037  0.00  0.00    -0.624 OA
HETATM   15  O           1     -23.922  -5.451 -10.208  0.00  0.00    -0.624 OA
BRANCH  13  16
HETATM   16  O           1     -24.881  -3.208 -10.872  0.00  0.00    -0.300 OA
HETATM   17  H           1     -25.524  -3.783 -11.251  0.00  0.00     0.223 HD
ENDBRANCH  13  16
ENDBRANCH  12  13
ENDBRANCH   9  12
ENDBRANCH   5   6
ENDBRANCH   1   5
BRANCH   1  18
HETATM   18  N           1     -22.170  -7.616  -4.382  0.00  0.00    -0.344 N 
HETATM   19  C           1     -21.829  -7.098  -3.163  0.00  0.00     0.249 C 
HETATM   20  O           1     -21.840  -5.903  -2.989  0.00  0.00    -0.271 OA
HETATM   21  H           1     -23.134  -7.853  -4.579  0.00  0.00     0.163 HD
BRANCH  19  22
HETATM   22  C           1     -21.436  -8.020  -2.035  0.00  0.00     0.283 C 
BRANCH  22  23
HETATM   23  C           1     -22.149  -7.595  -0.758  0.00  0.00     0.113 C 
BRANCH  23  24
HETATM   24  S           1     -21.491  -8.538   0.646  0.00  0.00    -0.180 SA
HETATM   25  H           1     -21.343  -7.483   1.467  0.00  0.00     0.101 HD
ENDBRANCH  23  24
ENDBRANCH  22  23
BRANCH  22  26
HETATM   26  N           1     -19.952  -7.950  -1.825  0.00  0.00    -0.066 N 
HETATM   27  H           1     -19.717  -8.312  -0.874  0.00  0.00     0.275 HD
HETATM   28  H           1     -19.471  -8.531  -2.548  0.00  0.00     0.275 HD
HETATM   29  H           1     -19.635  -6.958  -1.909  0.00  0.00     0.275 HD
ENDBRANCH  22  26
ENDBRANCH  19  22
ENDBRANCH   1  18
TORSDOF 11
ENDMDL
MODEL 3
REMARK VINA RESULT:      -6.4     12.908     15.329
REMARK  11 active torsions:
REMARK  status: ('A' for Active; 'I' for Inactive)
REMARK    1  A    between atoms: C_1  and  C_6 
REMARK    2  A    between atoms: C_5  and  C_18 
REMARK    3  A    between atoms: C_5  and  C_6 
REMARK    4  A    between atoms: C_5  and  N_13 
REMARK    5  A    between atoms: O_7  and  P_27 
REMARK    6  A    between atoms: S_10  and  C_11 
REMARK    7  A    between atoms: C_11  and  C_12 
REMARK    8  A    between atoms: C_12  and  C_26 
REMARK    9  A    between atoms: C_12  and  N_16 
REMARK       I    between atoms: N_13  and  C_26 
REMARK   10  A    between atoms: O_19  and  C_21 
REMARK   11  A    between atoms: O_19  and  P_27 
ROOT
HETATM    1  C           1     -20.761  -5.033  -6.156  0.00  0.00     0.189 C 
ENDROOT
BRANCH   1   2
HETATM    2  C           1     -19.600  -5.387  -7.053  0.00  0.00     0.197 C 
HETATM    3  O           1     -19.477  -6.554  -7.484  0.00  0.00    -0.646 OA
HETATM    4  O           1     -18.762  -4.514  -7.364  0.00  0.00    -0.646 OA
ENDBRANCH   1   2
BRANCH   1   5
HETATM    5  C           1     -21.612  -6.273  -5.913  0.00  0.00     0.074 C 
BRANCH   5   6
HETATM    6  C           1     -21.354  -6.793  -4.534  0.00  0.00    -0.056 A 
HETATM    7  C           1     -20.510  -7.888  -4.347  0.00  0.00     0.010 A 
HETATM    8  C           1     -20.270  -8.373  -3.062  0.00  0.00     0.038 A 
HETATM    9  C           1     -20.875  -7.764  -1.962  0.00  0.00     0.081 A 
HETATM   10  C           1     -21.719  -6.669  -2.148  0.00  0.00     0.038 A 
HETATM   11  C           1     -21.959  -6.184  -3.434  0.00  0.00     0.010 A 
BRANCH   9  12
HETATM   12  O           1     -20.642  -8.235  -0.714  0.00  0.00    -0.247 OA
BRANCH  12  13
HETATM   13  P           1     -21.821  -9.061   0.018  0.00  0.00     0.411 P 
HETATM   14  O           1     -21.228 -10.051   0.944  0.00  0.00    -0.624 OA
HETATM   15  O           1     -22.679  -8.126   0.780  0.00  0.00    -0.624 OA
BRANCH  13  16
HETATM   16  O           1     -22.711  -9.825  -1.092  0.00  0.00    -0.300 OA
HETATM   17  H           1     -22.863  -9.183  -1.766  0.00  0.00     0.223 HD
ENDBRANCH  13  16
ENDBRANCH  12  13
ENDBRANCH   9  12
ENDBRANCH   5   6
ENDBRANCH   1   5
BRANCH   1  18
HETATM   18  N           1     -21.569  -4.011  -6.793  0.00  0.00    -0.344 N 
HETATM   19  C           1     -22.712  -4.357  -7.459  0.00  0.00     0.249 C 
HETATM   20  O           1     -23.766  -4.396  -6.870  0.00  0.00    -0.271 OA
HETATM   21  H           1     -21.286  -3.040  -6.744  0.00  0.00     0.163 HD
BRANCH  19  22
HETATM   22  C           1     -22.657  -4.694  -8.928  0.00  0.00     0.283 C 
BRANCH  22  23
HETATM   23  C           1     -21.614  -3.820  -9.611  0.00  0.00     0.113 C 
BRANCH  23  24
HETATM   24  S           1     -21.583  -4.190 -11.388  0.00  0.00    -0.180 SA
HETATM   25  H           1     -20.334  -4.689 -11.406  0.00  0.00     0.101 HD
ENDBRANCH  23  24
ENDBRANCH  22  23
BRANCH  22  26
HETATM   26  N           1     -24.000  -4.445  -9.549  0.00  0.00    -0.066 N 
HETATM   27  H           1     -24.187  -5.169 -10.278  0.00  0.00     0.275 HD
HETATM   28  H           1     -24.739  -4.496  -8.811  0.00  0.00     0.275 HD
HETATM   29  H           1     -24.011  -3.497  -9.988  0.00  0.00     0.275 HD
ENDBRANCH  22  26
ENDBRANCH  19  22
ENDBRANCH   1  18
TORSDOF 11
ENDMDL
MODEL 4
REMARK VINA RESULT:      -6.2     12.082     14.554
REMARK  11 active torsions:
REMARK  status: ('A' for Active; 'I' for Inactive)
REMARK    1  A    between atoms: C_1  and  C_6 
REMARK    2  A    between atoms: C_5  and  C_18 
REMARK    3  A    between atoms: C_5  and  C_6 
REMARK    4  A    between atoms: C_5  and  N_13 
REMARK    5  A    between atoms: O_7  and  P_27 
REMARK    6  A    between atoms: S_10  and  C_11 
REMARK    7  A    between atoms: C_11  and  C_12 
REMARK    8  A    between atoms: C_12  and  C_26 
REMARK    9  A    between atoms: C_12  and  N_16 
REMARK       I    between atoms: N_13  and  C_26 
REMARK   10  A    between atoms: O_19  and  C_21 
REMARK   11  A    between atoms: O_19  and  P_27 
ROOT
HETATM    1  C           1     -20.998  -7.054  -3.998  0.00  0.00     0.189 C 
ENDROOT
BRANCH   1   2
HETATM    2  C           1     -21.503  -6.737  -2.612  0.00  0.00     0.197 C 
HETATM    3  O           1     -22.444  -5.928  -2.460  0.00  0.00    -0.646 OA
HETATM    4  O           1     -20.981  -7.283  -1.617  0.00  0.00    -0.646 OA
ENDBRANCH   1   2
BRANCH   1   5
HETATM    5  C           1     -22.163  -7.040  -4.980  0.00  0.00     0.074 C 
BRANCH   5   6
HETATM    6  C           1     -21.869  -6.081  -6.090  0.00  0.00    -0.056 A 
HETATM    7  C           1     -20.627  -6.105  -6.723  0.00  0.00     0.010 A 
HETATM    8  C           1     -20.353  -5.211  -7.757  0.00  0.00     0.038 A 
HETATM    9  C           1     -21.321  -4.291  -8.159  0.00  0.00     0.081 A 
HETATM   10  C           1     -22.565  -4.266  -7.527  0.00  0.00     0.038 A 
HETATM   11  C           1     -22.838  -5.161  -6.492  0.00  0.00     0.010 A 
BRANCH   9  12
HETATM   12  O           1     -21.056  -3.423  -9.164  0.00  0.00    -0.247 OA
BRANCH  12  13
HETATM   13  P           1     -21.219  -3.948 -10.683  0.00  0.00     0.411 P 
HETATM   14  O           1     -20.047  -4.776 -11.047  0.00  0.00    -0.624 OA
HETATM   15  O           1     -22.450  -4.761 -10.795  0.00  0.00    -0.624 OA
BRANCH  13  16
HETATM   16  O           1     -21.317  -2.683 -11.682  0.00  0.00    -0.300 OA
HETATM   17  H           1     -21.569  -1.959 -11.133  0.00  0.00     0.223 HD
ENDBRANCH  13  16
ENDBRANCH  12  13
ENDBRANCH   9  12
ENDBRANCH   5   6
ENDBRANCH   1   5
BRANCH   1  18
HETATM   18  N           1     -20.382  -8.367  -4.000  0.00  0.00    -0.344 N 
HETATM   19  C           1     -21.012  -9.418  -4.608  0.00  0.00     0.249 C 
HETATM   20  O           1     -20.805  -9.653  -5.775  0.00  0.00    -0.271 OA
HETATM   21  H           1     -19.486  -8.505  -3.551  0.00  0.00     0.163 HD
BRANCH  19  22
HETATM   22  C           1     -21.966 -10.283  -3.823  0.00  0.00     0.283 C 
BRANCH  22  23
HETATM   23  C           1     -21.362 -10.600  -2.461  0.00  0.00     0.113 C 
BRANCH  23  24
HETATM   24  S           1     -22.647 -10.476  -1.185  0.00  0.00    -0.180 SA
HETATM   25  H           1     -23.094 -11.738  -1.313  0.00  0.00     0.101 HD
ENDBRANCH  23  24
ENDBRANCH  22  23
BRANCH  22  26
HETATM   26  N           1     -22.212 -11.561  -4.569  0.00  0.00    -0.066 N 
HETATM   27  H           1     -21.335 -11.858  -5.052  0.00  0.00     0.275 HD
HETATM   28  H           1     -22.508 -12.305  -3.897  0.00  0.00     0.275 HD
HETATM   29  H           1     -22.966 -11.411  -5.277  0.00  0.00     0.275 HD
ENDBRANCH  22  26
ENDBRANCH  19  22
ENDBRANCH   1  18
TORSDOF 11
ENDMDL
MODEL 5
REMARK VINA RESULT:      -6.2     12.735     15.358
REMARK  11 active torsions:
REMARK  status: ('A' for Active; 'I' for Inactive)
REMARK    1  A    between atoms: C_1  and  C_6 
REMARK    2  A    between atoms: C_5  and  C_18 
REMARK    3  A    between atoms: C_5  and  C_6 
REMARK    4  A    between atoms: C_5  and  N_13 
REMARK    5  A    between atoms: O_7  and  P_27 
REMARK    6  A    between atoms: S_10  and  C_11 
REMARK    7  A    between atoms: C_11  and  C_12 
REMARK    8  A    between atoms: C_12  and  C_26 
REMARK    9  A    between atoms: C_12  and  N_16 
REMARK       I    between atoms: N_13  and  C_26 
REMARK   10  A    between atoms: O_19  and  C_21 
REMARK   11  A    between atoms: O_19  and  P_27 
ROOT
HETATM    1  C           1     -20.903  -7.445  -3.730  0.00  0.00     0.189 C 
ENDROOT
BRANCH   1   2
HETATM    2  C           1     -21.476  -6.855  -2.465  0.00  0.00     0.197 C 
HETATM    3  O           1     -22.291  -5.909  -2.530  0.00  0.00    -0.646 OA
HETATM    4  O           1     -21.136  -7.310  -1.352  0.00  0.00    -0.646 OA
ENDBRANCH   1   2
BRANCH   1   5
HETATM    5  C           1     -21.959  -7.418  -4.827  0.00  0.00     0.074 C 
BRANCH   5   6
HETATM    6  C           1     -21.566  -6.423  -5.874  0.00  0.00    -0.056 A 
HETATM    7  C           1     -20.288  -6.464  -6.431  0.00  0.00     0.010 A 
HETATM    8  C           1     -19.922  -5.537  -7.406  0.00  0.00     0.038 A 
HETATM    9  C           1     -20.834  -4.567  -7.824  0.00  0.00     0.081 A 
HETATM   10  C           1     -22.112  -4.526  -7.267  0.00  0.00     0.038 A 
HETATM   11  C           1     -22.478  -5.454  -6.292  0.00  0.00     0.010 A 
BRANCH   9  12
HETATM   12  O           1     -20.478  -3.667  -8.772  0.00  0.00    -0.247 OA
BRANCH  12  13
HETATM   13  P           1     -20.674  -4.079 -10.321  0.00  0.00     0.411 P 
HETATM   14  O           1     -19.717  -5.153 -10.670  0.00  0.00    -0.624 OA
HETATM   15  O           1     -22.056  -4.564 -10.533  0.00  0.00    -0.624 OA
BRANCH  13  16
HETATM   16  O           1     -20.406  -2.791 -11.258  0.00  0.00    -0.300 OA
HETATM   17  H           1     -21.236  -2.612 -11.668  0.00  0.00     0.223 HD
ENDBRANCH  13  16
ENDBRANCH  12  13
ENDBRANCH   9  12
ENDBRANCH   5   6
ENDBRANCH   1   5
BRANCH   1  18
HETATM   18  N           1     -20.499  -8.815  -3.483  0.00  0.00    -0.344 N 
HETATM   19  C           1     -19.311  -9.279  -3.980  0.00  0.00     0.249 C 
HETATM   20  O           1     -18.302  -9.182  -3.322  0.00  0.00    -0.271 OA
HETATM   21  H           1     -21.095  -9.430  -2.944  0.00  0.00     0.163 HD
BRANCH  19  22
HETATM   22  C           1     -19.260  -9.909  -5.350  0.00  0.00     0.283 C 
BRANCH  22  23
HETATM   23  C           1     -18.955 -11.395  -5.215  0.00  0.00     0.113 C 
BRANCH  23  24
HETATM   24  S           1     -17.321 -11.744  -5.924  0.00  0.00    -0.180 SA
HETATM   25  H           1     -16.662 -10.797  -5.233  0.00  0.00     0.101 HD
ENDBRANCH  23  24
ENDBRANCH  22  23
BRANCH  22  26
HETATM   26  N           1     -18.186  -9.251  -6.164  0.00  0.00    -0.066 N 
HETATM   27  H           1     -18.355  -9.434  -7.178  0.00  0.00     0.275 HD
HETATM   28  H           1     -18.199  -8.220  -5.989  0.00  0.00     0.275 HD
HETATM   29  H           1     -17.255  -9.638  -5.890  0.00  0.00     0.275 HD
ENDBRANCH  22  26
ENDBRANCH  19  22
ENDBRANCH   1  18
TORSDOF 11
ENDMDL
MODEL 6
REMARK VINA RESULT:      -5.8     16.763     18.701
REMARK  11 active torsions:
REMARK  status: ('A' for Active; 'I' for Inactive)
REMARK    1  A    between atoms: C_1  and  C_6 
REMARK    2  A    between atoms: C_5  and  C_18 
REMARK    3  A    between atoms: C_5  and  C_6 
REMARK    4  A    between atoms: C_5  and  N_13 
REMARK    5  A    between atoms: O_7  and  P_27 
REMARK    6  A    between atoms: S_10  and  C_11 
REMARK    7  A    between atoms: C_11  and  C_12 
REMARK    8  A    between atoms: C_12  and  C_26 
REMARK    9  A    between atoms: C_12  and  N_16 
REMARK       I    between atoms: N_13  and  C_26 
REMARK   10  A    between atoms: O_19  and  C_21 
REMARK   11  A    between atoms: O_19  and  P_27 
ROOT
HETATM    1  C           1     -21.565  -7.989  -1.780  0.00  0.00     0.189 C 
ENDROOT
BRANCH   1   2
HETATM    2  C           1     -22.013  -6.579  -2.080  0.00  0.00     0.197 C 
HETATM    3  O           1     -21.990  -6.152  -3.254  0.00  0.00    -0.646 OA
HETATM    4  O           1     -22.407  -5.838  -1.154  0.00  0.00    -0.646 OA
ENDBRANCH   1   2
BRANCH   1   5
HETATM    5  C           1     -21.653  -8.243  -0.281  0.00  0.00     0.074 C 
BRANCH   5   6
HETATM    6  C           1     -22.100  -9.649  -0.038  0.00  0.00    -0.056 A 
HETATM    7  C           1     -21.221 -10.575   0.523  0.00  0.00     0.010 A 
HETATM    8  C           1     -21.638 -11.886   0.750  0.00  0.00     0.038 A 
HETATM    9  C           1     -22.935 -12.273   0.414  0.00  0.00     0.081 A 
HETATM   10  C           1     -23.816 -11.348  -0.147  0.00  0.00     0.038 A 
HETATM   11  C           1     -23.398 -10.037  -0.373  0.00  0.00     0.010 A 
BRANCH   9  12
HETATM   12  O           1     -23.341 -13.547   0.634  0.00  0.00    -0.247 OA
BRANCH  12  13
HETATM   13  P           1     -23.422 -14.546  -0.632  0.00  0.00     0.411 P 
HETATM   14  O           1     -22.978 -15.898  -0.223  0.00  0.00    -0.624 OA
HETATM   15  O           1     -24.817 -14.613  -1.120  0.00  0.00    -0.624 OA
BRANCH  13  16
HETATM   16  O           1     -22.465 -13.998  -1.812  0.00  0.00    -0.300 OA
HETATM   17  H           1     -21.597 -14.272  -1.568  0.00  0.00     0.223 HD
ENDBRANCH  13  16
ENDBRANCH  12  13
ENDBRANCH   9  12
ENDBRANCH   5   6
ENDBRANCH   1   5
BRANCH   1  18
HETATM   18  N           1     -20.195  -8.164  -2.220  0.00  0.00    -0.344 N 
HETATM   19  C           1     -19.889  -9.135  -3.135  0.00  0.00     0.249 C 
HETATM   20  O           1     -19.916  -8.882  -4.316  0.00  0.00    -0.271 OA
HETATM   21  H           1     -19.465  -7.569  -1.851  0.00  0.00     0.163 HD
BRANCH  19  22
HETATM   22  C           1     -19.518 -10.521  -2.669  0.00  0.00     0.283 C 
BRANCH  22  23
HETATM   23  C           1     -18.286 -11.000  -3.426  0.00  0.00     0.113 C 
BRANCH  23  24
HETATM   24  S           1     -16.831 -10.074  -2.863  0.00  0.00    -0.180 SA
HETATM   25  H           1     -16.203 -10.061  -4.053  0.00  0.00     0.101 HD
ENDBRANCH  23  24
ENDBRANCH  22  23
BRANCH  22  26
HETATM   26  N           1     -20.660 -11.458  -2.930  0.00  0.00    -0.066 N 
HETATM   27  H           1     -20.912 -11.428  -3.943  0.00  0.00     0.275 HD
HETATM   28  H           1     -20.378 -12.431  -2.671  0.00  0.00     0.275 HD
HETATM   29  H           1     -21.484 -11.170  -2.356  0.00  0.00     0.275 HD
ENDBRANCH  22  26
ENDBRANCH  19  22
ENDBRANCH   1  18
TORSDOF 11
ENDMDL
MODEL 7
REMARK VINA RESULT:      -5.7     13.390     15.725
REMARK  11 active torsions:
REMARK  status: ('A' for Active; 'I' for Inactive)
REMARK    1  A    between atoms: C_1  and  C_6 
REMARK    2  A    between atoms: C_5  and  C_18 
REMARK    3  A    between atoms: C_5  and  C_6 
REMARK    4  A    between atoms: C_5  and  N_13 
REMARK    5  A    between atoms: O_7  and  P_27 
REMARK    6  A    between atoms: S_10  and  C_11 
REMARK    7  A    between atoms: C_11  and  C_12 
REMARK    8  A    between atoms: C_12  and  C_26 
REMARK    9  A    between atoms: C_12  and  N_16 
REMARK       I    between atoms: N_13  and  C_26 
REMARK   10  A    between atoms: O_19  and  C_21 
REMARK   11  A    between atoms: O_19  and  P_27 
ROOT
HETATM    1  C           1     -21.075  -7.072  -5.980  0.00  0.00     0.189 C 
ENDROOT
BRANCH   1   2
HETATM    2  C           1     -21.736  -6.187  -4.951  0.00  0.00     0.197 C 
HETATM    3  O           1     -21.039  -5.580  -4.110  0.00  0.00    -0.646 OA
HETATM    4  O           1     -22.979  -6.061  -4.941  0.00  0.00    -0.646 OA
ENDBRANCH   1   2
BRANCH   1   5
HETATM    5  C           1     -19.876  -7.772  -5.354  0.00  0.00     0.074 C 
BRANCH   5   6
HETATM    6  C           1     -20.350  -8.767  -4.342  0.00  0.00    -0.056 A 
HETATM    7  C           1     -19.693  -8.884  -3.117  0.00  0.00     0.010 A 
HETATM    8  C           1     -20.135  -9.811  -2.174  0.00  0.00     0.038 A 
HETATM    9  C           1     -21.233 -10.624  -2.456  0.00  0.00     0.081 A 
HETATM   10  C           1     -21.890 -10.508  -3.681  0.00  0.00     0.038 A 
HETATM   11  C           1     -21.448  -9.580  -4.624  0.00  0.00     0.010 A 
BRANCH   9  12
HETATM   12  O           1     -21.662 -11.525  -1.540  0.00  0.00    -0.247 OA
BRANCH  12  13
HETATM   13  P           1     -22.370 -10.965  -0.200  0.00  0.00     0.411 P 
HETATM   14  O           1     -21.340 -10.708   0.831  0.00  0.00    -0.624 OA
HETATM   15  O           1     -23.084  -9.706  -0.507  0.00  0.00    -0.624 OA
BRANCH  13  16
HETATM   16  O           1     -23.421 -12.061   0.350  0.00  0.00    -0.300 OA
HETATM   17  H           1     -24.131 -12.049  -0.270  0.00  0.00     0.223 HD
ENDBRANCH  13  16
ENDBRANCH  12  13
ENDBRANCH   9  12
ENDBRANCH   5   6
ENDBRANCH   1   5
BRANCH   1  18
HETATM   18  N           1     -20.633  -6.265  -7.100  0.00  0.00    -0.344 N 
HETATM   19  C           1     -21.210  -5.047  -7.337  0.00  0.00     0.249 C 
HETATM   20  O           1     -20.752  -4.052  -6.829  0.00  0.00    -0.271 OA
HETATM   21  H           1     -19.896  -6.602  -7.706  0.00  0.00     0.163 HD
BRANCH  19  22
HETATM   22  C           1     -22.421  -4.948  -8.232  0.00  0.00     0.283 C 
BRANCH  22  23
HETATM   23  C           1     -22.059  -4.172  -9.492  0.00  0.00     0.113 C 
BRANCH  23  24
HETATM   24  S           1     -23.281  -4.519 -10.788  0.00  0.00    -0.180 SA
HETATM   25  H           1     -23.041  -3.408 -11.509  0.00  0.00     0.101 HD
ENDBRANCH  23  24
ENDBRANCH  22  23
BRANCH  22  26
HETATM   26  N           1     -23.523  -4.236  -7.506  0.00  0.00    -0.066 N 
HETATM   27  H           1     -24.286  -4.913  -7.280  0.00  0.00     0.275 HD
HETATM   28  H           1     -23.148  -3.826  -6.620  0.00  0.00     0.275 HD
HETATM   29  H           1     -23.901  -3.472  -8.110  0.00  0.00     0.275 HD
ENDBRANCH  22  26
ENDBRANCH  19  22
ENDBRANCH   1  18
TORSDOF 11
ENDMDL
MODEL 8
REMARK VINA RESULT:      -5.7     14.603     16.905
REMARK  11 active torsions:
REMARK  status: ('A' for Active; 'I' for Inactive)
REMARK    1  A    between atoms: C_1  and  C_6 
REMARK    2  A    between atoms: C_5  and  C_18 
REMARK    3  A    between atoms: C_5  and  C_6 
REMARK    4  A    between atoms: C_5  and  N_13 
REMARK    5  A    between atoms: O_7  and  P_27 
REMARK    6  A    between atoms: S_10  and  C_11 
REMARK    7  A    between atoms: C_11  and  C_12 
REMARK    8  A    between atoms: C_12  and  C_26 
REMARK    9  A    between atoms: C_12  and  N_16 
REMARK       I    between atoms: N_13  and  C_26 
REMARK   10  A    between atoms: O_19  and  C_21 
REMARK   11  A    between atoms: O_19  and  P_27 
ROOT
HETATM    1  C           1     -21.222  -9.274  -0.816  0.00  0.00     0.189 C 
ENDROOT
BRANCH   1   2
HETATM    2  C           1     -20.946  -9.596   0.632  0.00  0.00     0.197 C 
HETATM    3  O           1     -20.463 -10.706   0.945  0.00  0.00    -0.646 OA
HETATM    4  O           1     -21.200  -8.753   1.519  0.00  0.00    -0.646 OA
ENDBRANCH   1   2
BRANCH   1   5
HETATM    5  C           1     -20.895  -7.811  -1.083  0.00  0.00     0.074 C 
BRANCH   5   6
HETATM    6  C           1     -20.949  -7.548  -2.555  0.00  0.00    -0.056 A 
HETATM    7  C           1     -21.831  -6.594  -3.062  0.00  0.00     0.010 A 
HETATM    8  C           1     -21.882  -6.348  -4.433  0.00  0.00     0.038 A 
HETATM    9  C           1     -21.051  -7.058  -5.300  0.00  0.00     0.081 A 
HETATM   10  C           1     -20.168  -8.012  -4.794  0.00  0.00     0.038 A 
HETATM   11  C           1     -20.118  -8.257  -3.422  0.00  0.00     0.010 A 
BRANCH   9  12
HETATM   12  O           1     -21.099  -6.820  -6.633  0.00  0.00    -0.247 OA
BRANCH  12  13
HETATM   13  P           1     -20.685  -5.349  -7.156  0.00  0.00     0.411 P 
HETATM   14  O           1     -19.703  -4.752  -6.223  0.00  0.00    -0.624 OA
HETATM   15  O           1     -20.083  -5.455  -8.503  0.00  0.00    -0.624 OA
BRANCH  13  16
HETATM   16  O           1     -22.000  -4.413  -7.226  0.00  0.00    -0.300 OA
HETATM   17  H           1     -22.703  -4.999  -7.452  0.00  0.00     0.223 HD
ENDBRANCH  13  16
ENDBRANCH  12  13
ENDBRANCH   9  12
ENDBRANCH   5   6
ENDBRANCH   1   5
BRANCH   1  18
HETATM   18  N           1     -22.622  -9.517  -1.107  0.00  0.00    -0.344 N 
HETATM   19  C           1     -23.120 -10.790  -1.060  0.00  0.00     0.249 C 
HETATM   20  O           1     -23.572 -11.225  -0.028  0.00  0.00    -0.271 OA
HETATM   21  H           1     -23.230  -8.744  -1.345  0.00  0.00     0.163 HD
BRANCH  19  22
HETATM   22  C           1     -23.104 -11.653  -2.298  0.00  0.00     0.283 C 
BRANCH  22  23
HETATM   23  C           1     -22.055 -12.747  -2.142  0.00  0.00     0.113 C 
BRANCH  23  24
HETATM   24  S           1     -22.013 -13.763  -3.645  0.00  0.00    -0.180 SA
HETATM   25  H           1     -20.712 -13.554  -3.920  0.00  0.00     0.101 HD
ENDBRANCH  23  24
ENDBRANCH  22  23
BRANCH  22  26
HETATM   26  N           1     -22.770 -10.808  -3.492  0.00  0.00    -0.066 N 
HETATM   27  H           1     -22.453 -11.422  -4.276  0.00  0.00     0.275 HD
HETATM   28  H           1     -23.618 -10.275  -3.789  0.00  0.00     0.275 HD
HETATM   29  H           1     -22.008 -10.139  -3.243  0.00  0.00     0.275 HD
ENDBRANCH  22  26
ENDBRANCH  19  22
ENDBRANCH   1  18
TORSDOF 11
ENDMDL
MODEL 9
REMARK VINA RESULT:      -5.7     14.929     17.517
REMARK  11 active torsions:
REMARK  status: ('A' for Active; 'I' for Inactive)
REMARK    1  A    between atoms: C_1  and  C_6 
REMARK    2  A    between atoms: C_5  and  C_18 
REMARK    3  A    between atoms: C_5  and  C_6 
REMARK    4  A    between atoms: C_5  and  N_13 
REMARK    5  A    between atoms: O_7  and  P_27 
REMARK    6  A    between atoms: S_10  and  C_11 
REMARK    7  A    between atoms: C_11  and  C_12 
REMARK    8  A    between atoms: C_12  and  C_26 
REMARK    9  A    between atoms: C_12  and  N_16 
REMARK       I    between atoms: N_13  and  C_26 
REMARK   10  A    between atoms: O_19  and  C_21 
REMARK   11  A    between atoms: O_19  and  P_27 
ROOT
HETATM    1  C           1     -20.636  -9.749  -1.427  0.00  0.00     0.189 C 
ENDROOT
BRANCH   1   2
HETATM    2  C           1     -21.113  -9.631  -0.001  0.00  0.00     0.197 C 
HETATM    3  O           1     -21.404 -10.660   0.648  0.00  0.00    -0.646 OA
HETATM    4  O           1     -21.218  -8.506   0.533  0.00  0.00    -0.646 OA
ENDBRANCH   1   2
BRANCH   1   5
HETATM    5  C           1     -21.803  -9.503  -2.376  0.00  0.00     0.074 C 
BRANCH   5   6
HETATM    6  C           1     -21.495  -8.330  -3.252  0.00  0.00    -0.056 A 
HETATM    7  C           1     -21.181  -8.526  -4.597  0.00  0.00     0.010 A 
HETATM    8  C           1     -20.894  -7.433  -5.414  0.00  0.00     0.038 A 
HETATM    9  C           1     -20.920  -6.142  -4.886  0.00  0.00     0.081 A 
HETATM   10  C           1     -21.233  -5.945  -3.541  0.00  0.00     0.038 A 
HETATM   11  C           1     -21.520  -7.039  -2.724  0.00  0.00     0.010 A 
BRANCH   9  12
HETATM   12  O           1     -20.641  -5.080  -5.679  0.00  0.00    -0.247 OA
BRANCH  12  13
HETATM   13  P           1     -21.711  -4.687  -6.823  0.00  0.00     0.411 P 
HETATM   14  O           1     -21.419  -5.452  -8.056  0.00  0.00    -0.624 OA
HETATM   15  O           1     -23.077  -5.011  -6.355  0.00  0.00    -0.624 OA
BRANCH  13  16
HETATM   16  O           1     -21.610  -3.105  -7.133  0.00  0.00    -0.300 OA
HETATM   17  H           1     -22.175  -2.966  -7.875  0.00  0.00     0.223 HD
ENDBRANCH  13  16
ENDBRANCH  12  13
ENDBRANCH   9  12
ENDBRANCH   5   6
ENDBRANCH   1   5
BRANCH   1  18
HETATM   18  N           1     -20.105 -11.079  -1.651  0.00  0.00    -0.344 N 
HETATM   19  C           1     -18.755 -11.265  -1.779  0.00  0.00     0.249 C 
HETATM   20  O           1     -18.082 -11.489  -0.801  0.00  0.00    -0.271 OA
HETATM   21  H           1     -20.732 -11.870  -1.714  0.00  0.00     0.163 HD
BRANCH  19  22
HETATM   22  C           1     -18.108 -11.188  -3.139  0.00  0.00     0.283 C 
BRANCH  22  23
HETATM   23  C           1     -17.530  -9.795  -3.349  0.00  0.00     0.113 C 
BRANCH  23  24
HETATM   24  S           1     -16.030  -9.909  -4.366  0.00  0.00    -0.180 SA
HETATM   25  H           1     -15.734 -11.179  -4.037  0.00  0.00     0.101 HD
ENDBRANCH  23  24
ENDBRANCH  22  23
BRANCH  22  26
HETATM   26  N           1     -19.134 -11.468  -4.198  0.00  0.00    -0.066 N 
HETATM   27  H           1     -19.545 -10.567  -4.531  0.00  0.00     0.275 HD
HETATM   28  H           1     -18.680 -11.961  -5.000  0.00  0.00     0.275 HD
HETATM   29  H           1     -19.889 -12.070  -3.800  0.00  0.00     0.275 HD
ENDBRANCH  22  26
ENDBRANCH  19  22
ENDBRANCH   1  18
TORSDOF 11
ENDMDL
