MODEL 1
REMARK VINA RESULT:      -5.2      0.000      0.000
REMARK  8 active torsions:
REMARK  status: ('A' for Active; 'I' for Inactive)
REMARK    1  A    between atoms: N_2  and  C_17 
REMARK       I    between atoms: N_2  and  C_3 
REMARK    2  A    between atoms: C_3  and  C_4 
REMARK    3  A    between atoms: C_4  and  C_5 
REMARK    4  A    between atoms: C_4  and  N_7 
REMARK    5  A    between atoms: C_5  and  Se_6 
REMARK    6  A    between atoms: O_15  and  C_16 
REMARK    7  A    between atoms: C_16  and  C_17 
REMARK    8  A    between atoms: C_17  and  C_18 
ROOT
HETATM    1  N           1     -22.087  -4.854  -9.070  0.00  0.00    -0.343 N 
HETATM    2  C           1     -21.626  -4.558  -7.816  0.00  0.00     0.249 C 
HETATM    3  O           1     -21.572  -3.409  -7.447  0.00  0.00    -0.271 OA
HETATM    4  H           1     -22.133  -5.816  -9.378  0.00  0.00     0.163 HD
ENDROOT
BRANCH   2   5
HETATM    5  C           1     -21.185  -5.667  -6.893  0.00  0.00     0.274 C 
BRANCH   5   6
HETATM    6  C           1     -20.886  -5.094  -5.514  0.00  0.00     0.045 C 
BRANCH   6   7
HETATM    7 Se           1     -21.427  -6.373  -4.147  0.00  0.00     0.000 Se
HETATM    8  H           1     -22.740  -6.644  -4.756  0.00  0.00     0.000 HD
ENDBRANCH   6   7
ENDBRANCH   5   6
BRANCH   5   9
HETATM    9  N           1     -19.947  -6.313  -7.443  0.00  0.00    -0.067 N 
HETATM   10  H           1     -20.212  -7.001  -8.183  0.00  0.00     0.275 HD
HETATM   11  H           1     -19.327  -5.580  -7.855  0.00  0.00     0.275 HD
HETATM   12  H           1     -19.440  -6.806  -6.674  0.00  0.00     0.275 HD
ENDBRANCH   5   9
ENDBRANCH   2   5
BRANCH   1  13
HETATM   13  C           1     -22.511  -3.787  -9.956  0.00  0.00     0.209 C 
BRANCH  13  14
HETATM   14  C           1     -21.755  -3.893 -11.274  0.00  0.00     0.200 C 
BRANCH  14  15
HETATM   15  O           1     -22.589  -4.457 -12.249  0.00  0.00    -0.398 OA
HETATM   16  H           1     -22.241  -5.309 -12.448  0.00  0.00     0.209 HD
ENDBRANCH  14  15
ENDBRANCH  13  14
BRANCH  13  17
HETATM   17  C           1     -23.993  -3.906 -10.215  0.00  0.00     0.198 C 
HETATM   18  O           1     -24.583  -4.984  -9.986  0.00  0.00    -0.646 OA
HETATM   19  O           1     -24.630  -2.927 -10.659  0.00  0.00    -0.646 OA
ENDBRANCH  13  17
ENDBRANCH   1  13
TORSDOF 8
ENDMDL
MODEL 2
REMARK VINA RESULT:      -4.9      9.787     11.106
REMARK  8 active torsions:
REMARK  status: ('A' for Active; 'I' for Inactive)
REMARK    1  A    between atoms: N_2  and  C_17 
REMARK       I    between atoms: N_2  and  C_3 
REMARK    2  A    between atoms: C_3  and  C_4 
REMARK    3  A    between atoms: C_4  and  C_5 
REMARK    4  A    between atoms: C_4  and  N_7 
REMARK    5  A    between atoms: C_5  and  Se_6 
REMARK    6  A    between atoms: O_15  and  C_16 
REMARK    7  A    between atoms: C_16  and  C_17 
REMARK    8  A    between atoms: C_17  and  C_18 
ROOT
HETATM    1  N           1     -26.535  -6.655 -17.787  0.00  0.00    -0.343 N 
HETATM    2  C           1     -27.463  -5.733 -17.387  0.00  0.00     0.249 C 
HETATM    3  O           1     -27.121  -4.772 -16.739  0.00  0.00    -0.271 OA
HETATM    4  H           1     -26.822  -7.459 -18.330  0.00  0.00     0.163 HD
ENDROOT
BRANCH   2   5
HETATM    5  C           1     -28.915  -5.915 -17.756  0.00  0.00     0.274 C 
BRANCH   5   6
HETATM    6  C           1     -29.794  -5.232 -16.717  0.00  0.00     0.045 C 
BRANCH   6   7
HETATM    7 Se           1     -30.712  -3.719 -17.534  0.00  0.00     0.000 Se
HETATM    8  H           1     -30.644  -4.267 -18.899  0.00  0.00     0.000 HD
ENDBRANCH   6   7
ENDBRANCH   5   6
BRANCH   5   9
HETATM    9  N           1     -29.240  -7.379 -17.799  0.00  0.00    -0.067 N 
HETATM   10  H           1     -29.293  -7.753 -16.825  0.00  0.00     0.275 HD
HETATM   11  H           1     -30.160  -7.517 -18.276  0.00  0.00     0.275 HD
HETATM   12  H           1     -28.495  -7.885 -18.328  0.00  0.00     0.275 HD
ENDBRANCH   5   9
ENDBRANCH   2   5
BRANCH   1  13
HETATM   13  C           1     -25.140  -6.479 -17.432  0.00  0.00     0.209 C 
BRANCH  13  14
HETATM   14  C           1     -24.832  -7.283 -16.174  0.00  0.00     0.200 C 
BRANCH  14  15
HETATM   15  O           1     -24.188  -8.477 -16.528  0.00  0.00    -0.398 OA
HETATM   16  H           1     -24.787  -9.178 -16.338  0.00  0.00     0.209 HD
ENDBRANCH  14  15
ENDBRANCH  13  14
BRANCH  13  17
HETATM   17  C           1     -24.268  -6.963 -18.564  0.00  0.00     0.198 C 
HETATM   18  O           1     -24.782  -7.529 -19.552  0.00  0.00    -0.646 OA
HETATM   19  O           1     -23.029  -6.797 -18.513  0.00  0.00    -0.646 OA
ENDBRANCH  13  17
ENDBRANCH   1  13
TORSDOF 8
ENDMDL
MODEL 3
REMARK VINA RESULT:      -4.8     10.266     11.535
REMARK  8 active torsions:
REMARK  status: ('A' for Active; 'I' for Inactive)
REMARK    1  A    between atoms: N_2  and  C_17 
REMARK       I    between atoms: N_2  and  C_3 
REMARK    2  A    between atoms: C_3  and  C_4 
REMARK    3  A    between atoms: C_4  and  C_5 
REMARK    4  A    between atoms: C_4  and  N_7 
REMARK    5  A    between atoms: C_5  and  Se_6 
REMARK    6  A    between atoms: O_15  and  C_16 
REMARK    7  A    between atoms: C_16  and  C_17 
REMARK    8  A    between atoms: C_17  and  C_18 
ROOT
HETATM    1  N           1     -26.520  -6.458 -17.800  0.00  0.00    -0.343 N 
HETATM    2  C           1     -26.346  -6.655 -19.143  0.00  0.00     0.249 C 
HETATM    3  O           1     -27.300  -6.655 -19.883  0.00  0.00    -0.271 OA
HETATM    4  H           1     -25.721  -6.458 -17.180  0.00  0.00     0.163 HD
ENDROOT
BRANCH   2   5
HETATM    5  C           1     -24.960  -6.872 -19.699  0.00  0.00     0.274 C 
BRANCH   5   6
HETATM    6  C           1     -25.033  -7.809 -20.898  0.00  0.00     0.045 C 
BRANCH   6   7
HETATM    7 Se           1     -23.231  -8.293 -21.456  0.00  0.00     0.000 Se
HETATM    8  H           1     -23.015  -9.236 -20.346  0.00  0.00     0.000 HD
ENDBRANCH   6   7
ENDBRANCH   5   6
BRANCH   5   9
HETATM    9  N           1     -24.087  -7.481 -18.643  0.00  0.00    -0.067 N 
HETATM   10  H           1     -23.145  -7.690 -19.045  0.00  0.00     0.275 HD
HETATM   11  H           1     -23.984  -6.811 -17.847  0.00  0.00     0.275 HD
HETATM   12  H           1     -24.523  -8.366 -18.298  0.00  0.00     0.275 HD
ENDBRANCH   5   9
ENDBRANCH   2   5
BRANCH   1  13
HETATM   13  C           1     -27.852  -6.250 -17.266  0.00  0.00     0.209 C 
BRANCH  13  14
HETATM   14  C           1     -27.921  -6.800 -15.846  0.00  0.00     0.200 C 
BRANCH  14  15
HETATM   15  O           1     -26.720  -7.454 -15.539  0.00  0.00    -0.398 OA
HETATM   16  H           1     -26.398  -7.827 -16.341  0.00  0.00     0.209 HD
ENDBRANCH  14  15
ENDBRANCH  13  14
BRANCH  13  17
HETATM   17  C           1     -28.162  -4.773 -17.249  0.00  0.00     0.198 C 
HETATM   18  O           1     -27.611  -4.028 -16.411  0.00  0.00    -0.646 OA
HETATM   19  O           1     -28.971  -4.296 -18.074  0.00  0.00    -0.646 OA
ENDBRANCH  13  17
ENDBRANCH   1  13
TORSDOF 8
ENDMDL
MODEL 4
REMARK VINA RESULT:      -4.7     11.208     12.329
REMARK  8 active torsions:
REMARK  status: ('A' for Active; 'I' for Inactive)
REMARK    1  A    between atoms: N_2  and  C_17 
REMARK       I    between atoms: N_2  and  C_3 
REMARK    2  A    between atoms: C_3  and  C_4 
REMARK    3  A    between atoms: C_4  and  C_5 
REMARK    4  A    between atoms: C_4  and  N_7 
REMARK    5  A    between atoms: C_5  and  Se_6 
REMARK    6  A    between atoms: O_15  and  C_16 
REMARK    7  A    between atoms: C_16  and  C_17 
REMARK    8  A    between atoms: C_17  and  C_18 
ROOT
HETATM    1  N           1     -27.579  -7.281 -19.290  0.00  0.00    -0.343 N 
HETATM    2  C           1     -28.434  -6.341 -18.781  0.00  0.00     0.249 C 
HETATM    3  O           1     -28.372  -5.197 -19.165  0.00  0.00    -0.271 OA
HETATM    4  H           1     -27.632  -8.238 -18.969  0.00  0.00     0.163 HD
ENDROOT
BRANCH   2   5
HETATM    5  C           1     -29.453  -6.732 -17.740  0.00  0.00     0.274 C 
BRANCH   5   6
HETATM    6  C           1     -29.104  -6.073 -16.412  0.00  0.00     0.045 C 
BRANCH   6   7
HETATM    7 Se           1     -27.679  -7.078 -15.542  0.00  0.00     0.000 Se
HETATM    8  H           1     -27.710  -6.277 -14.307  0.00  0.00     0.000 HD
ENDBRANCH   6   7
ENDBRANCH   5   6
BRANCH   5   9
HETATM    9  N           1     -29.449  -8.223 -17.573  0.00  0.00    -0.067 N 
HETATM   10  H           1     -28.679  -8.637 -18.145  0.00  0.00     0.275 HD
HETATM   11  H           1     -29.300  -8.460 -16.566  0.00  0.00     0.275 HD
HETATM   12  H           1     -30.366  -8.611 -17.889  0.00  0.00     0.275 HD
ENDBRANCH   5   9
ENDBRANCH   2   5
BRANCH   1  13
HETATM   13  C           1     -26.600  -6.904 -20.290  0.00  0.00     0.209 C 
BRANCH  13  14
HETATM   14  C           1     -25.287  -6.547 -19.605  0.00  0.00     0.200 C 
BRANCH  14  15
HETATM   15  O           1     -24.653  -7.719 -19.169  0.00  0.00    -0.398 OA
HETATM   16  H           1     -23.728  -7.594 -19.296  0.00  0.00     0.209 HD
ENDBRANCH  14  15
ENDBRANCH  13  14
BRANCH  13  17
HETATM   17  C           1     -26.376  -8.058 -21.236  0.00  0.00     0.198 C 
HETATM   18  O           1     -25.255  -8.229 -21.760  0.00  0.00    -0.646 OA
HETATM   19  O           1     -27.314  -8.844 -21.496  0.00  0.00    -0.646 OA
ENDBRANCH  13  17
ENDBRANCH   1  13
TORSDOF 8
ENDMDL
MODEL 5
REMARK VINA RESULT:      -4.4      3.194      5.125
REMARK  8 active torsions:
REMARK  status: ('A' for Active; 'I' for Inactive)
REMARK    1  A    between atoms: N_2  and  C_17 
REMARK       I    between atoms: N_2  and  C_3 
REMARK    2  A    between atoms: C_3  and  C_4 
REMARK    3  A    between atoms: C_4  and  C_5 
REMARK    4  A    between atoms: C_4  and  N_7 
REMARK    5  A    between atoms: C_5  and  Se_6 
REMARK    6  A    between atoms: O_15  and  C_16 
REMARK    7  A    between atoms: C_16  and  C_17 
REMARK    8  A    between atoms: C_17  and  C_18 
ROOT
HETATM    1  N           1     -21.385  -4.741  -8.453  0.00  0.00    -0.343 N 
HETATM    2  C           1     -20.988  -4.482  -9.738  0.00  0.00     0.249 C 
HETATM    3  O           1     -19.927  -4.899 -10.138  0.00  0.00    -0.271 OA
HETATM    4  H           1     -22.273  -4.394  -8.119  0.00  0.00     0.163 HD
ENDROOT
BRANCH   2   5
HETATM    5  C           1     -21.877  -3.678 -10.654  0.00  0.00     0.274 C 
BRANCH   5   6
HETATM    6  C           1     -23.203  -4.403 -10.843  0.00  0.00     0.045 C 
BRANCH   6   7
HETATM    7 Se           1     -24.605  -3.458  -9.874  0.00  0.00     0.000 Se
HETATM    8  H           1     -24.893  -4.579  -8.965  0.00  0.00     0.000 HD
ENDBRANCH   6   7
ENDBRANCH   5   6
BRANCH   5   9
HETATM    9  N           1     -21.205  -3.513 -11.985  0.00  0.00    -0.067 N 
HETATM   10  H           1     -20.181  -3.700 -11.884  0.00  0.00     0.275 HD
HETATM   11  H           1     -21.616  -4.189 -12.668  0.00  0.00     0.275 HD
HETATM   12  H           1     -21.349  -2.538 -12.329  0.00  0.00     0.275 HD
ENDBRANCH   5   9
ENDBRANCH   2   5
BRANCH   1  13
HETATM   13  C           1     -20.530  -5.515  -7.574  0.00  0.00     0.209 C 
BRANCH  13  14
HETATM   14  C           1     -19.521  -4.589  -6.905  0.00  0.00     0.200 C 
BRANCH  14  15
HETATM   15  O           1     -19.727  -4.596  -5.518  0.00  0.00    -0.398 OA
HETATM   16  H           1     -19.337  -5.386  -5.187  0.00  0.00     0.209 HD
ENDBRANCH  14  15
ENDBRANCH  13  14
BRANCH  13  17
HETATM   17  C           1     -21.372  -6.188  -6.518  0.00  0.00     0.198 C 
HETATM   18  O           1     -22.295  -5.558  -5.958  0.00  0.00    -0.646 OA
HETATM   19  O           1     -21.146  -7.377  -6.203  0.00  0.00    -0.646 OA
ENDBRANCH  13  17
ENDBRANCH   1  13
TORSDOF 8
ENDMDL
MODEL 6
REMARK VINA RESULT:      -4.2      3.220      4.691
REMARK  8 active torsions:
REMARK  status: ('A' for Active; 'I' for Inactive)
REMARK    1  A    between atoms: N_2  and  C_17 
REMARK       I    between atoms: N_2  and  C_3 
REMARK    2  A    between atoms: C_3  and  C_4 
REMARK    3  A    between atoms: C_4  and  C_5 
REMARK    4  A    between atoms: C_4  and  N_7 
REMARK    5  A    between atoms: C_5  and  Se_6 
REMARK    6  A    between atoms: O_15  and  C_16 
REMARK    7  A    between atoms: C_16  and  C_17 
REMARK    8  A    between atoms: C_17  and  C_18 
ROOT
HETATM    1  N           1     -21.183  -5.452  -5.273  0.00  0.00    -0.343 N 
HETATM    2  C           1     -21.526  -6.511  -4.476  0.00  0.00     0.249 C 
HETATM    3  O           1     -22.032  -7.494  -4.963  0.00  0.00    -0.271 OA
HETATM    4  H           1     -20.758  -4.629  -4.865  0.00  0.00     0.163 HD
ENDROOT
BRANCH   2   5
HETATM    5  C           1     -21.272  -6.450  -2.990  0.00  0.00     0.274 C 
BRANCH   5   6
HETATM    6  C           1     -21.036  -7.857  -2.457  0.00  0.00     0.045 C 
BRANCH   6   7
HETATM    7 Se           1     -21.912  -8.052  -0.727  0.00  0.00     0.000 Se
HETATM    8  H           1     -22.777  -9.162  -1.161  0.00  0.00     0.000 HD
ENDBRANCH   6   7
ENDBRANCH   5   6
BRANCH   5   9
HETATM    9  N           1     -22.464  -5.850  -2.304  0.00  0.00    -0.067 N 
HETATM   10  H           1     -22.694  -4.931  -2.743  0.00  0.00     0.275 HD
HETATM   11  H           1     -23.281  -6.495  -2.398  0.00  0.00     0.275 HD
HETATM   12  H           1     -22.247  -5.708  -1.291  0.00  0.00     0.275 HD
ENDBRANCH   5   9
ENDBRANCH   2   5
BRANCH   1  13
HETATM   13  C           1     -21.427  -5.511  -6.701  0.00  0.00     0.209 C 
BRANCH  13  14
HETATM   14  C           1     -22.540  -4.536  -7.065  0.00  0.00     0.200 C 
BRANCH  14  15
HETATM   15  O           1     -21.984  -3.292  -7.396  0.00  0.00    -0.398 OA
HETATM   16  H           1     -22.256  -3.096  -8.276  0.00  0.00     0.209 HD
ENDBRANCH  14  15
ENDBRANCH  13  14
BRANCH  13  17
HETATM   17  C           1     -20.167  -5.136  -7.442  0.00  0.00     0.198 C 
HETATM   18  O           1     -20.097  -5.299  -8.679  0.00  0.00    -0.646 OA
HETATM   19  O           1     -19.193  -4.661  -6.819  0.00  0.00    -0.646 OA
ENDBRANCH  13  17
ENDBRANCH   1  13
TORSDOF 8
ENDMDL
MODEL 7
REMARK VINA RESULT:      -4.0      3.885      6.066
REMARK  8 active torsions:
REMARK  status: ('A' for Active; 'I' for Inactive)
REMARK    1  A    between atoms: N_2  and  C_17 
REMARK       I    between atoms: N_2  and  C_3 
REMARK    2  A    between atoms: C_3  and  C_4 
REMARK    3  A    between atoms: C_4  and  C_5 
REMARK    4  A    between atoms: C_4  and  N_7 
REMARK    5  A    between atoms: C_5  and  Se_6 
REMARK    6  A    between atoms: O_15  and  C_16 
REMARK    7  A    between atoms: C_16  and  C_17 
REMARK    8  A    between atoms: C_17  and  C_18 
ROOT
HETATM    1  N           1     -21.326  -6.042  -6.399  0.00  0.00    -0.343 N 
HETATM    2  C           1     -20.784  -5.137  -7.272  0.00  0.00     0.249 C 
HETATM    3  O           1     -19.684  -4.683  -7.066  0.00  0.00    -0.271 OA
HETATM    4  H           1     -22.247  -6.422  -6.573  0.00  0.00     0.163 HD
ENDROOT
BRANCH   2   5
HETATM    5  C           1     -21.561  -4.707  -8.492  0.00  0.00     0.274 C 
BRANCH   5   6
HETATM    6  C           1     -20.593  -4.279  -9.587  0.00  0.00     0.045 C 
BRANCH   6   7
HETATM    7 Se           1     -21.532  -4.200 -11.291  0.00  0.00     0.000 Se
HETATM    8  H           1     -22.626  -5.087 -10.862  0.00  0.00     0.000 HD
ENDBRANCH   6   7
ENDBRANCH   5   6
BRANCH   5   9
HETATM    9  N           1     -22.453  -3.555  -8.136  0.00  0.00    -0.067 N 
HETATM   10  H           1     -22.145  -2.702  -8.655  0.00  0.00     0.275 HD
HETATM   11  H           1     -23.439  -3.785  -8.397  0.00  0.00     0.275 HD
HETATM   12  H           1     -22.398  -3.376  -7.108  0.00  0.00     0.275 HD
ENDBRANCH   5   9
ENDBRANCH   2   5
BRANCH   1  13
HETATM   13  C           1     -20.579  -6.454  -5.227  0.00  0.00     0.209 C 
BRANCH  13  14
HETATM   14  C           1     -21.370  -6.103  -3.973  0.00  0.00     0.200 C 
BRANCH  14  15
HETATM   15  O           1     -21.631  -7.271  -3.242  0.00  0.00    -0.398 OA
HETATM   16  H           1     -22.547  -7.258  -3.024  0.00  0.00     0.209 HD
ENDBRANCH  14  15
ENDBRANCH  13  14
BRANCH  13  17
HETATM   17  C           1     -20.350  -7.945  -5.276  0.00  0.00     0.198 C 
HETATM   18  O           1     -21.157  -8.683  -5.880  0.00  0.00    -0.646 OA
HETATM   19  O           1     -19.351  -8.442  -4.711  0.00  0.00    -0.646 OA
ENDBRANCH  13  17
ENDBRANCH   1  13
TORSDOF 8
ENDMDL
MODEL 8
REMARK VINA RESULT:      -3.9     10.896     11.839
REMARK  8 active torsions:
REMARK  status: ('A' for Active; 'I' for Inactive)
REMARK    1  A    between atoms: N_2  and  C_17 
REMARK       I    between atoms: N_2  and  C_3 
REMARK    2  A    between atoms: C_3  and  C_4 
REMARK    3  A    between atoms: C_4  and  C_5 
REMARK    4  A    between atoms: C_4  and  N_7 
REMARK    5  A    between atoms: C_5  and  Se_6 
REMARK    6  A    between atoms: O_15  and  C_16 
REMARK    7  A    between atoms: C_16  and  C_17 
REMARK    8  A    between atoms: C_17  and  C_18 
ROOT
HETATM    1  N           1     -26.522  -6.216 -18.373  0.00  0.00    -0.343 N 
HETATM    2  C           1     -27.837  -6.191 -17.996  0.00  0.00     0.249 C 
HETATM    3  O           1     -28.668  -6.760 -18.663  0.00  0.00    -0.271 OA
HETATM    4  H           1     -25.826  -5.740 -17.815  0.00  0.00     0.163 HD
ENDROOT
BRANCH   2   5
HETATM    5  C           1     -28.250  -5.452 -16.747  0.00  0.00     0.274 C 
BRANCH   5   6
HETATM    6  C           1     -29.595  -5.978 -16.265  0.00  0.00     0.045 C 
BRANCH   6   7
HETATM    7 Se           1     -31.012  -4.781 -16.860  0.00  0.00     0.000 Se
HETATM    8  H           1     -31.958  -5.866 -17.170  0.00  0.00     0.000 HD
ENDBRANCH   6   7
ENDBRANCH   5   6
BRANCH   5   9
HETATM    9  N           1     -28.366  -3.987 -17.048  0.00  0.00    -0.067 N 
HETATM   10  H           1     -29.355  -3.759 -17.299  0.00  0.00     0.275 HD
HETATM   11  H           1     -28.085  -3.436 -16.205  0.00  0.00     0.275 HD
HETATM   12  H           1     -27.739  -3.745 -17.848  0.00  0.00     0.275 HD
ENDBRANCH   5   9
ENDBRANCH   2   5
BRANCH   1  13
HETATM   13  C           1     -26.126  -6.926 -19.574  0.00  0.00     0.209 C 
BRANCH  13  14
HETATM   14  C           1     -26.497  -6.098 -20.798  0.00  0.00     0.200 C 
BRANCH  14  15
HETATM   15  O           1     -25.347  -5.484 -21.314  0.00  0.00    -0.398 OA
HETATM   16  H           1     -25.435  -4.560 -21.155  0.00  0.00     0.209 HD
ENDBRANCH  14  15
ENDBRANCH  13  14
BRANCH  13  17
HETATM   17  C           1     -24.635  -7.156 -19.555  0.00  0.00     0.198 C 
HETATM   18  O           1     -24.115  -7.960 -20.358  0.00  0.00    -0.646 OA
HETATM   19  O           1     -23.919  -6.541 -18.734  0.00  0.00    -0.646 OA
ENDBRANCH  13  17
ENDBRANCH   1  13
TORSDOF 8
ENDMDL
MODEL 9
REMARK VINA RESULT:      -3.9      3.727      5.988
REMARK  8 active torsions:
REMARK  status: ('A' for Active; 'I' for Inactive)
REMARK    1  A    between atoms: N_2  and  C_17 
REMARK       I    between atoms: N_2  and  C_3 
REMARK    2  A    between atoms: C_3  and  C_4 
REMARK    3  A    between atoms: C_4  and  C_5 
REMARK    4  A    between atoms: C_4  and  N_7 
REMARK    5  A    between atoms: C_5  and  Se_6 
REMARK    6  A    between atoms: O_15  and  C_16 
REMARK    7  A    between atoms: C_16  and  C_17 
REMARK    8  A    between atoms: C_17  and  C_18 
ROOT
HETATM    1  N           1     -21.138  -5.947  -5.376  0.00  0.00    -0.343 N 
HETATM    2  C           1     -21.796  -5.071  -6.196  0.00  0.00     0.249 C 
HETATM    3  O           1     -23.000  -5.118  -6.290  0.00  0.00    -0.271 OA
HETATM    4  H           1     -20.130  -5.907  -5.297  0.00  0.00     0.163 HD
ENDROOT
BRANCH   2   5
HETATM    5  C           1     -21.018  -4.045  -6.984  0.00  0.00     0.274 C 
BRANCH   5   6
HETATM    6  C           1     -21.693  -3.818  -8.330  0.00  0.00     0.045 C 
BRANCH   6   7
HETATM    7 Se           1     -20.472  -4.322  -9.762  0.00  0.00     0.000 Se
HETATM    8  H           1     -20.934  -3.271 -10.683  0.00  0.00     0.000 HD
ENDBRANCH   6   7
ENDBRANCH   5   6
BRANCH   5   9
HETATM    9  N           1     -19.619  -4.540  -7.204  0.00  0.00    -0.067 N 
HETATM   10  H           1     -19.282  -4.229  -8.143  0.00  0.00     0.275 HD
HETATM   11  H           1     -18.992  -4.152  -6.463  0.00  0.00     0.275 HD
HETATM   12  H           1     -19.608  -5.584  -7.158  0.00  0.00     0.275 HD
ENDBRANCH   5   9
ENDBRANCH   2   5
BRANCH   1  13
HETATM   13  C           1     -21.886  -6.933  -4.620  0.00  0.00     0.209 C 
BRANCH  13  14
HETATM   14  C           1     -21.405  -8.329  -4.992  0.00  0.00     0.200 C 
BRANCH  14  15
HETATM   15  O           1     -20.114  -8.251  -5.533  0.00  0.00    -0.398 OA
HETATM   16  H           1     -19.965  -7.349  -5.757  0.00  0.00     0.209 HD
ENDBRANCH  14  15
ENDBRANCH  13  14
BRANCH  13  17
HETATM   17  C           1     -21.672  -6.703  -3.144  0.00  0.00     0.198 C 
HETATM   18  O           1     -22.386  -5.884  -2.528  0.00  0.00    -0.646 OA
HETATM   19  O           1     -20.778  -7.334  -2.537  0.00  0.00    -0.646 OA
ENDBRANCH  13  17
ENDBRANCH   1  13
TORSDOF 8
ENDMDL
