MODEL 1
REMARK VINA RESULT:      -6.4      0.000      0.000
REMARK  11 active torsions:
REMARK  status: ('A' for Active; 'I' for Inactive)
REMARK    1  A    between atoms: N_2  and  C_3 
REMARK    2  A    between atoms: C_3  and  C_5 
REMARK    3  A    between atoms: C_4  and  C_12 
REMARK    4  A    between atoms: C_4  and  C_14 
REMARK    5  A    between atoms: C_4  and  N_8 
REMARK    6  A    between atoms: C_5  and  C_6 
REMARK    7  A    between atoms: C_6  and  C_12 
REMARK       I    between atoms: N_8  and  C_9 
REMARK    8  A    between atoms: C_9  and  C_10 
REMARK    9  A    between atoms: C_10  and  C_11 
REMARK   10  A    between atoms: C_10  and  N_19 
REMARK   11  A    between atoms: C_11  and  C_24 
ROOT
HETATM    1  H           1     -32.543  -3.514 -14.417  0.00  0.00     0.163 HD
HETATM    2  N           1     -33.432  -3.993 -14.360  0.00  0.00    -0.345 N 
HETATM    3  C           1     -33.993  -4.532 -15.488  0.00  0.00     0.249 C 
HETATM    4  O           1     -35.055  -5.104 -15.420  0.00  0.00    -0.271 OA
ENDROOT
BRANCH   2   5
HETATM    5  C           1     -34.113  -4.108 -13.085  0.00  0.00     0.185 C 
BRANCH   5   6
HETATM    6  C           1     -33.091  -4.356 -11.985  0.00  0.00     0.036 C 
BRANCH   6   7
HETATM    7  C           1     -33.357  -5.709 -11.338  0.00  0.00     0.004 C 
BRANCH   7   8
HETATM    8  C           1     -34.310  -5.533 -10.164  0.00  0.00     0.027 C 
BRANCH   8   9
HETATM    9  C           1     -35.003  -6.857  -9.870  0.00  0.00     0.229 C 
BRANCH   9  10
HETATM   10  N           1     -34.732  -7.823 -10.984  0.00  0.00    -0.079 N 
HETATM   11  H           1     -35.637  -8.166 -11.378  0.00  0.00     0.274 HD
HETATM   12  H           1     -34.186  -7.343 -11.736  0.00  0.00     0.274 HD
HETATM   13  H           1     -34.183  -8.633 -10.617  0.00  0.00     0.274 HD
ENDBRANCH   9  10
ENDBRANCH   8   9
ENDBRANCH   7   8
ENDBRANCH   6   7
ENDBRANCH   5   6
BRANCH   5  14
HETATM   14  C           1     -34.862  -2.829 -12.799  0.00  0.00     0.196 C 
HETATM   15  O           1     -34.821  -1.885 -13.618  0.00  0.00    -0.646 OA
HETATM   16  O           1     -35.522  -2.714 -11.745  0.00  0.00    -0.646 OA
ENDBRANCH   5  14
ENDBRANCH   2   5
BRANCH   3  17
HETATM   17  C           1     -33.284  -4.412 -16.814  0.00  0.00     0.278 C 
BRANCH  17  18
HETATM   18  C           1     -31.788  -4.604 -16.610  0.00  0.00     0.021 C 
HETATM   19  C           1     -31.402  -6.029 -16.983  0.00  0.00     0.012 C 
BRANCH  18  20
HETATM   20  C           1     -31.025  -3.625 -17.493  0.00  0.00     0.002 C 
HETATM   21  C           1     -29.692  -4.238 -17.899  0.00  0.00     0.005 C 
ENDBRANCH  18  20
ENDBRANCH  17  18
BRANCH  17  22
HETATM   22  N           1     -33.539  -3.052 -17.396  0.00  0.00    -0.066 N 
HETATM   23  H           1     -34.262  -2.559 -16.824  0.00  0.00     0.275 HD
HETATM   24  H           1     -33.881  -3.152 -18.378  0.00  0.00     0.275 HD
HETATM   25  H           1     -32.653  -2.498 -17.388  0.00  0.00     0.275 HD
ENDBRANCH  17  22
ENDBRANCH   3  17
TORSDOF 11
ENDMDL
MODEL 2
REMARK VINA RESULT:      -5.9     14.098     14.954
REMARK  11 active torsions:
REMARK  status: ('A' for Active; 'I' for Inactive)
REMARK    1  A    between atoms: N_2  and  C_3 
REMARK    2  A    between atoms: C_3  and  C_5 
REMARK    3  A    between atoms: C_4  and  C_12 
REMARK    4  A    between atoms: C_4  and  C_14 
REMARK    5  A    between atoms: C_4  and  N_8 
REMARK    6  A    between atoms: C_5  and  C_6 
REMARK    7  A    between atoms: C_6  and  C_12 
REMARK       I    between atoms: N_8  and  C_9 
REMARK    8  A    between atoms: C_9  and  C_10 
REMARK    9  A    between atoms: C_10  and  C_11 
REMARK   10  A    between atoms: C_10  and  N_19 
REMARK   11  A    between atoms: C_11  and  C_24 
ROOT
HETATM    1  H           1     -22.154  -6.945  -6.906  0.00  0.00     0.163 HD
HETATM    2  N           1     -21.643  -6.196  -6.457  0.00  0.00    -0.345 N 
HETATM    3  C           1     -21.587  -4.959  -7.042  0.00  0.00     0.249 C 
HETATM    4  O           1     -20.977  -4.065  -6.505  0.00  0.00    -0.271 OA
ENDROOT
BRANCH   2   5
HETATM    5  C           1     -20.970  -6.433  -5.194  0.00  0.00     0.185 C 
BRANCH   5   6
HETATM    6  C           1     -22.005  -6.554  -4.083  0.00  0.00     0.036 C 
BRANCH   6   7
HETATM    7  C           1     -21.417  -6.024  -2.781  0.00  0.00     0.004 C 
BRANCH   7   8
HETATM    8  C           1     -22.280  -6.478  -1.612  0.00  0.00     0.027 C 
BRANCH   8   9
HETATM    9  C           1     -21.716  -7.771  -1.037  0.00  0.00     0.229 C 
BRANCH   9  10
HETATM   10  N           1     -20.300  -7.949  -1.499  0.00  0.00    -0.079 N 
HETATM   11  H           1     -19.722  -7.142  -1.172  0.00  0.00     0.274 HD
HETATM   12  H           1     -19.914  -8.836  -1.103  0.00  0.00     0.274 HD
HETATM   13  H           1     -20.277  -7.994  -2.542  0.00  0.00     0.274 HD
ENDBRANCH   9  10
ENDBRANCH   8   9
ENDBRANCH   7   8
ENDBRANCH   6   7
ENDBRANCH   5   6
BRANCH   5  14
HETATM   14  C           1     -20.174  -7.712  -5.282  0.00  0.00     0.196 C 
HETATM   15  O           1     -19.331  -7.862  -6.193  0.00  0.00    -0.646 OA
HETATM   16  O           1     -20.356  -8.620  -4.443  0.00  0.00    -0.646 OA
ENDBRANCH   5  14
ENDBRANCH   2   5
BRANCH   3  17
HETATM   17  C           1     -22.287  -4.713  -8.355  0.00  0.00     0.278 C 
BRANCH  17  18
HETATM   18  C           1     -21.395  -3.871  -9.257  0.00  0.00     0.021 C 
HETATM   19  C           1     -20.182  -4.689  -9.680  0.00  0.00     0.012 C 
BRANCH  18  20
HETATM   20  C           1     -22.177  -3.447 -10.492  0.00  0.00     0.002 C 
HETATM   21  C           1     -21.813  -4.353 -11.661  0.00  0.00     0.005 C 
ENDBRANCH  18  20
ENDBRANCH  17  18
BRANCH  17  22
HETATM   22  N           1     -23.575  -3.985  -8.105  0.00  0.00    -0.066 N 
HETATM   23  H           1     -24.058  -4.405  -7.280  0.00  0.00     0.275 HD
HETATM   24  H           1     -24.190  -4.067  -8.947  0.00  0.00     0.275 HD
HETATM   25  H           1     -23.375  -2.977  -7.915  0.00  0.00     0.275 HD
ENDBRANCH  17  22
ENDBRANCH   3  17
TORSDOF 11
ENDMDL
MODEL 3
REMARK VINA RESULT:      -5.9     14.158     16.102
REMARK  11 active torsions:
REMARK  status: ('A' for Active; 'I' for Inactive)
REMARK    1  A    between atoms: N_2  and  C_3 
REMARK    2  A    between atoms: C_3  and  C_5 
REMARK    3  A    between atoms: C_4  and  C_12 
REMARK    4  A    between atoms: C_4  and  C_14 
REMARK    5  A    between atoms: C_4  and  N_8 
REMARK    6  A    between atoms: C_5  and  C_6 
REMARK    7  A    between atoms: C_6  and  C_12 
REMARK       I    between atoms: N_8  and  C_9 
REMARK    8  A    between atoms: C_9  and  C_10 
REMARK    9  A    between atoms: C_10  and  C_11 
REMARK   10  A    between atoms: C_10  and  N_19 
REMARK   11  A    between atoms: C_11  and  C_24 
ROOT
HETATM    1  H           1     -20.871  -4.699  -4.581  0.00  0.00     0.163 HD
HETATM    2  N           1     -21.281  -5.528  -4.991  0.00  0.00    -0.345 N 
HETATM    3  C           1     -21.611  -6.593  -4.195  0.00  0.00     0.249 C 
HETATM    4  O           1     -22.100  -7.583  -4.684  0.00  0.00    -0.271 OA
ENDROOT
BRANCH   2   5
HETATM    5  C           1     -21.517  -5.590  -6.420  0.00  0.00     0.185 C 
BRANCH   5   6
HETATM    6  C           1     -22.010  -4.236  -6.912  0.00  0.00     0.036 C 
BRANCH   6   7
HETATM    7  C           1     -23.210  -4.432  -7.828  0.00  0.00     0.004 C 
BRANCH   7   8
HETATM    8  C           1     -22.910  -3.832  -9.195  0.00  0.00     0.027 C 
BRANCH   8   9
HETATM    9  C           1     -24.012  -4.221 -10.173  0.00  0.00     0.229 C 
BRANCH   9  10
HETATM   10  N           1     -25.325  -3.683  -9.688  0.00  0.00    -0.079 N 
HETATM   11  H           1     -26.079  -3.939 -10.364  0.00  0.00     0.274 HD
HETATM   12  H           1     -25.545  -4.093  -8.751  0.00  0.00     0.274 HD
HETATM   13  H           1     -25.267  -2.643  -9.608  0.00  0.00     0.274 HD
ENDBRANCH   9  10
ENDBRANCH   8   9
ENDBRANCH   7   8
ENDBRANCH   6   7
ENDBRANCH   5   6
BRANCH   5  14
HETATM   14  C           1     -20.232  -5.945  -7.127  0.00  0.00     0.196 C 
HETATM   15  O           1     -19.550  -6.915  -6.732  0.00  0.00    -0.646 OA
HETATM   16  O           1     -19.850  -5.270  -8.106  0.00  0.00    -0.646 OA
ENDBRANCH   5  14
ENDBRANCH   2   5
BRANCH   3  17
HETATM   17  C           1     -21.365  -6.528  -2.708  0.00  0.00     0.278 C 
BRANCH  17  18
HETATM   18  C           1     -21.569  -7.908  -2.099  0.00  0.00     0.021 C 
HETATM   19  C           1     -20.215  -8.558  -1.846  0.00  0.00     0.012 C 
BRANCH  18  20
HETATM   20  C           1     -22.321  -7.775  -0.781  0.00  0.00     0.002 C 
HETATM   21  C           1     -21.518  -8.435   0.332  0.00  0.00     0.005 C 
ENDBRANCH  18  20
ENDBRANCH  17  18
BRANCH  17  22
HETATM   22  N           1     -22.326  -5.559  -2.084  0.00  0.00    -0.066 N 
HETATM   23  H           1     -21.806  -4.713  -1.759  0.00  0.00     0.275 HD
HETATM   24  H           1     -22.798  -6.012  -1.268  0.00  0.00     0.275 HD
HETATM   25  H           1     -23.043  -5.277  -2.790  0.00  0.00     0.275 HD
ENDBRANCH  17  22
ENDBRANCH   3  17
TORSDOF 11
ENDMDL
MODEL 4
REMARK VINA RESULT:      -5.6     14.190     16.117
REMARK  11 active torsions:
REMARK  status: ('A' for Active; 'I' for Inactive)
REMARK    1  A    between atoms: N_2  and  C_3 
REMARK    2  A    between atoms: C_3  and  C_5 
REMARK    3  A    between atoms: C_4  and  C_12 
REMARK    4  A    between atoms: C_4  and  C_14 
REMARK    5  A    between atoms: C_4  and  N_8 
REMARK    6  A    between atoms: C_5  and  C_6 
REMARK    7  A    between atoms: C_6  and  C_12 
REMARK       I    between atoms: N_8  and  C_9 
REMARK    8  A    between atoms: C_9  and  C_10 
REMARK    9  A    between atoms: C_10  and  C_11 
REMARK   10  A    between atoms: C_10  and  N_19 
REMARK   11  A    between atoms: C_11  and  C_24 
ROOT
HETATM    1  H           1     -22.301  -5.268  -5.147  0.00  0.00     0.163 HD
HETATM    2  N           1     -21.759  -5.858  -5.764  0.00  0.00    -0.345 N 
HETATM    3  C           1     -21.471  -7.147  -5.402  0.00  0.00     0.249 C 
HETATM    4  O           1     -20.823  -7.851  -6.139  0.00  0.00    -0.271 OA
ENDROOT
BRANCH   2   5
HETATM    5  C           1     -21.286  -5.339  -7.033  0.00  0.00     0.185 C 
BRANCH   5   6
HETATM    6  C           1     -22.275  -4.309  -7.560  0.00  0.00     0.036 C 
BRANCH   6   7
HETATM    7  C           1     -22.722  -4.703  -8.962  0.00  0.00     0.004 C 
BRANCH   7   8
HETATM    8  C           1     -22.283  -3.635  -9.954  0.00  0.00     0.027 C 
BRANCH   8   9
HETATM    9  C           1     -21.052  -4.120 -10.710  0.00  0.00     0.229 C 
BRANCH   9  10
HETATM   10  N           1     -20.587  -3.049 -11.651  0.00  0.00    -0.079 N 
HETATM   11  H           1     -21.386  -2.414 -11.879  0.00  0.00     0.274 HD
HETATM   12  H           1     -19.823  -2.497 -11.200  0.00  0.00     0.274 HD
HETATM   13  H           1     -20.230  -3.488 -12.529  0.00  0.00     0.274 HD
ENDBRANCH   9  10
ENDBRANCH   8   9
ENDBRANCH   7   8
ENDBRANCH   6   7
ENDBRANCH   5   6
BRANCH   5  14
HETATM   14  C           1     -19.938  -4.688  -6.838  0.00  0.00     0.196 C 
HETATM   15  O           1     -19.529  -4.433  -5.684  0.00  0.00    -0.646 OA
HETATM   16  O           1     -19.231  -4.405  -7.828  0.00  0.00    -0.646 OA
ENDBRANCH   5  14
ENDBRANCH   2   5
BRANCH   3  17
HETATM   17  C           1     -21.963  -7.688  -4.082  0.00  0.00     0.278 C 
BRANCH  17  18
HETATM   18  C           1     -21.198  -7.025  -2.944  0.00  0.00     0.021 C 
HETATM   19  C           1     -22.157  -6.191  -2.105  0.00  0.00     0.012 C 
BRANCH  18  20
HETATM   20  C           1     -20.561  -8.096  -2.070  0.00  0.00     0.002 C 
HETATM   21  C           1     -21.180  -8.054  -0.680  0.00  0.00     0.005 C 
ENDBRANCH  18  20
ENDBRANCH  17  18
BRANCH  17  22
HETATM   22  N           1     -21.741  -9.171  -4.036  0.00  0.00    -0.066 N 
HETATM   23  H           1     -22.592  -9.639  -3.650  0.00  0.00     0.275 HD
HETATM   24  H           1     -20.921  -9.382  -3.423  0.00  0.00     0.275 HD
HETATM   25  H           1     -21.557  -9.526  -5.001  0.00  0.00     0.275 HD
ENDBRANCH  17  22
ENDBRANCH   3  17
TORSDOF 11
ENDMDL
MODEL 5
REMARK VINA RESULT:      -5.5     15.701     17.876
REMARK  11 active torsions:
REMARK  status: ('A' for Active; 'I' for Inactive)
REMARK    1  A    between atoms: N_2  and  C_3 
REMARK    2  A    between atoms: C_3  and  C_5 
REMARK    3  A    between atoms: C_4  and  C_12 
REMARK    4  A    between atoms: C_4  and  C_14 
REMARK    5  A    between atoms: C_4  and  N_8 
REMARK    6  A    between atoms: C_5  and  C_6 
REMARK    7  A    between atoms: C_6  and  C_12 
REMARK       I    between atoms: N_8  and  C_9 
REMARK    8  A    between atoms: C_9  and  C_10 
REMARK    9  A    between atoms: C_10  and  C_11 
REMARK   10  A    between atoms: C_10  and  N_19 
REMARK   11  A    between atoms: C_11  and  C_24 
ROOT
HETATM    1  H           1     -20.686  -6.669  -3.170  0.00  0.00     0.163 HD
HETATM    2  N           1     -20.925  -7.635  -3.351  0.00  0.00    -0.345 N 
HETATM    3  C           1     -21.339  -8.441  -2.324  0.00  0.00     0.249 C 
HETATM    4  O           1     -21.624  -9.595  -2.540  0.00  0.00    -0.271 OA
ENDROOT
BRANCH   2   5
HETATM    5  C           1     -20.828  -8.166  -4.697  0.00  0.00     0.185 C 
BRANCH   5   6
HETATM    6  C           1     -21.232  -7.091  -5.697  0.00  0.00     0.036 C 
BRANCH   6   7
HETATM    7  C           1     -20.893  -5.718  -5.133  0.00  0.00     0.004 C 
BRANCH   7   8
HETATM    8  C           1     -20.596  -4.757  -6.276  0.00  0.00     0.027 C 
BRANCH   8   9
HETATM    9  C           1     -21.542  -5.040  -7.436  0.00  0.00     0.229 C 
BRANCH   9  10
HETATM   10  N           1     -22.602  -3.980  -7.488  0.00  0.00    -0.079 N 
HETATM   11  H           1     -22.966  -3.803  -6.525  0.00  0.00     0.274 HD
HETATM   12  H           1     -22.194  -3.099  -7.873  0.00  0.00     0.274 HD
HETATM   13  H           1     -23.384  -4.300  -8.103  0.00  0.00     0.274 HD
ENDBRANCH   9  10
ENDBRANCH   8   9
ENDBRANCH   7   8
ENDBRANCH   6   7
ENDBRANCH   5   6
BRANCH   5  14
HETATM   14  C           1     -19.406  -8.595  -4.966  0.00  0.00     0.196 C 
HETATM   15  O           1     -18.681  -8.982  -4.023  0.00  0.00    -0.646 OA
HETATM   16  O           1     -18.953  -8.564  -6.130  0.00  0.00    -0.646 OA
ENDBRANCH   5  14
ENDBRANCH   2   5
BRANCH   3  17
HETATM   17  C           1     -21.440  -7.888  -0.924  0.00  0.00     0.278 C 
BRANCH  17  18
HETATM   18  C           1     -21.811  -9.007   0.039  0.00  0.00     0.021 C 
HETATM   19  C           1     -21.094  -8.795   1.365  0.00  0.00     0.012 C 
BRANCH  18  20
HETATM   20  C           1     -23.316  -9.000   0.269  0.00  0.00     0.002 C 
HETATM   21  C           1     -23.879 -10.390   0.006  0.00  0.00     0.005 C 
ENDBRANCH  18  20
ENDBRANCH  17  18
BRANCH  17  22
HETATM   22  N           1     -22.496  -6.823  -0.883  0.00  0.00    -0.066 N 
HETATM   23  H           1     -23.318  -7.168  -0.338  0.00  0.00     0.275 HD
HETATM   24  H           1     -22.798  -6.593  -1.858  0.00  0.00     0.275 HD
HETATM   25  H           1     -22.110  -5.966  -0.426  0.00  0.00     0.275 HD
ENDBRANCH  17  22
ENDBRANCH   3  17
TORSDOF 11
ENDMDL
MODEL 6
REMARK VINA RESULT:      -5.4     14.778     15.822
REMARK  11 active torsions:
REMARK  status: ('A' for Active; 'I' for Inactive)
REMARK    1  A    between atoms: N_2  and  C_3 
REMARK    2  A    between atoms: C_3  and  C_5 
REMARK    3  A    between atoms: C_4  and  C_12 
REMARK    4  A    between atoms: C_4  and  C_14 
REMARK    5  A    between atoms: C_4  and  N_8 
REMARK    6  A    between atoms: C_5  and  C_6 
REMARK    7  A    between atoms: C_6  and  C_12 
REMARK       I    between atoms: N_8  and  C_9 
REMARK    8  A    between atoms: C_9  and  C_10 
REMARK    9  A    between atoms: C_10  and  C_11 
REMARK   10  A    between atoms: C_10  and  N_19 
REMARK   11  A    between atoms: C_11  and  C_24 
ROOT
HETATM    1  H           1     -19.963  -6.263  -5.022  0.00  0.00     0.163 HD
HETATM    2  N           1     -20.972  -6.337  -5.034  0.00  0.00    -0.345 N 
HETATM    3  C           1     -21.708  -5.530  -5.860  0.00  0.00     0.249 C 
HETATM    4  O           1     -22.912  -5.619  -5.875  0.00  0.00    -0.271 OA
ENDROOT
BRANCH   2   5
HETATM    5  C           1     -21.638  -7.297  -4.177  0.00  0.00     0.185 C 
BRANCH   5   6
HETATM    6  C           1     -20.905  -8.631  -4.243  0.00  0.00     0.036 C 
BRANCH   6   7
HETATM    7  C           1     -19.626  -8.468  -5.053  0.00  0.00     0.004 C 
BRANCH   7   8
HETATM    8  C           1     -18.562  -9.418  -4.520  0.00  0.00     0.027 C 
BRANCH   8   9
HETATM    9  C           1     -17.672  -9.879  -5.667  0.00  0.00     0.229 C 
BRANCH   9  10
HETATM   10  N           1     -18.484 -10.680  -6.641  0.00  0.00    -0.079 N 
HETATM   11  H           1     -19.369 -10.993  -6.183  0.00  0.00     0.274 HD
HETATM   12  H           1     -18.713 -10.089  -7.472  0.00  0.00     0.274 HD
HETATM   13  H           1     -17.936 -11.515  -6.948  0.00  0.00     0.274 HD
ENDBRANCH   9  10
ENDBRANCH   8   9
ENDBRANCH   7   8
ENDBRANCH   6   7
ENDBRANCH   5   6
BRANCH   5  14
HETATM   14  C           1     -21.632  -6.790  -2.755  0.00  0.00     0.196 C 
HETATM   15  O           1     -22.402  -5.863  -2.420  0.00  0.00    -0.646 OA
HETATM   16  O           1     -20.860  -7.296  -1.914  0.00  0.00    -0.646 OA
ENDBRANCH   5  14
ENDBRANCH   2   5
BRANCH   3  17
HETATM   17  C           1     -21.014  -4.530  -6.753  0.00  0.00     0.278 C 
BRANCH  17  18
HETATM   18  C           1     -21.366  -4.817  -8.206  0.00  0.00     0.021 C 
HETATM   19  C           1     -22.365  -3.780  -8.701  0.00  0.00     0.012 C 
BRANCH  18  20
HETATM   20  C           1     -20.105  -4.751  -9.056  0.00  0.00     0.002 C 
HETATM   21  C           1     -20.468  -4.339 -10.476  0.00  0.00     0.005 C 
ENDBRANCH  18  20
ENDBRANCH  17  18
BRANCH  17  22
HETATM   22  N           1     -19.529  -4.641  -6.567  0.00  0.00    -0.066 N 
HETATM   23  H           1     -19.044  -4.312  -7.432  0.00  0.00     0.275 HD
HETATM   24  H           1     -19.275  -5.639  -6.385  0.00  0.00     0.275 HD
HETATM   25  H           1     -19.234  -4.051  -5.757  0.00  0.00     0.275 HD
ENDBRANCH  17  22
ENDBRANCH   3  17
TORSDOF 11
ENDMDL
MODEL 7
REMARK VINA RESULT:      -5.3     14.497     15.508
REMARK  11 active torsions:
REMARK  status: ('A' for Active; 'I' for Inactive)
REMARK    1  A    between atoms: N_2  and  C_3 
REMARK    2  A    between atoms: C_3  and  C_5 
REMARK    3  A    between atoms: C_4  and  C_12 
REMARK    4  A    between atoms: C_4  and  C_14 
REMARK    5  A    between atoms: C_4  and  N_8 
REMARK    6  A    between atoms: C_5  and  C_6 
REMARK    7  A    between atoms: C_6  and  C_12 
REMARK       I    between atoms: N_8  and  C_9 
REMARK    8  A    between atoms: C_9  and  C_10 
REMARK    9  A    between atoms: C_10  and  C_11 
REMARK   10  A    between atoms: C_10  and  N_19 
REMARK   11  A    between atoms: C_11  and  C_24 
ROOT
HETATM    1  H           1     -19.939  -6.325  -4.964  0.00  0.00     0.163 HD
HETATM    2  N           1     -20.948  -6.390  -4.941  0.00  0.00    -0.345 N 
HETATM    3  C           1     -21.704  -5.577  -5.743  0.00  0.00     0.249 C 
HETATM    4  O           1     -22.909  -5.654  -5.717  0.00  0.00    -0.271 OA
ENDROOT
BRANCH   2   5
HETATM    5  C           1     -21.594  -7.343  -4.060  0.00  0.00     0.185 C 
BRANCH   5   6
HETATM    6  C           1     -20.847  -8.669  -4.112  0.00  0.00     0.036 C 
BRANCH   6   7
HETATM    7  C           1     -21.843  -9.818  -4.020  0.00  0.00     0.004 C 
BRANCH   7   8
HETATM    8  C           1     -21.522 -10.672  -2.801  0.00  0.00     0.027 C 
BRANCH   8   9
HETATM    9  C           1     -22.710 -10.661  -1.847  0.00  0.00     0.229 C 
BRANCH   9  10
HETATM   10  N           1     -22.466  -9.663  -0.754  0.00  0.00    -0.079 N 
HETATM   11  H           1     -22.875 -10.017   0.140  0.00  0.00     0.274 HD
HETATM   12  H           1     -21.437  -9.524  -0.634  0.00  0.00     0.274 HD
HETATM   13  H           1     -22.914  -8.754  -1.007  0.00  0.00     0.274 HD
ENDBRANCH   9  10
ENDBRANCH   8   9
ENDBRANCH   7   8
ENDBRANCH   6   7
ENDBRANCH   5   6
BRANCH   5  14
HETATM   14  C           1     -21.579  -6.812  -2.648  0.00  0.00     0.196 C 
HETATM   15  O           1     -20.803  -7.309  -1.802  0.00  0.00    -0.646 OA
HETATM   16  O           1     -22.340  -5.876  -2.324  0.00  0.00    -0.646 OA
ENDBRANCH   5  14
ENDBRANCH   2   5
BRANCH   3  17
HETATM   17  C           1     -21.031  -4.585  -6.660  0.00  0.00     0.278 C 
BRANCH  17  18
HETATM   18  C           1     -21.409  -4.889  -8.103  0.00  0.00     0.021 C 
HETATM   19  C           1     -22.376  -3.827  -8.610  0.00  0.00     0.012 C 
BRANCH  18  20
HETATM   20  C           1     -20.156  -4.887  -8.967  0.00  0.00     0.002 C 
HETATM   21  C           1     -20.489  -4.336 -10.346  0.00  0.00     0.005 C 
ENDBRANCH  18  20
ENDBRANCH  17  18
BRANCH  17  22
HETATM   22  N           1     -19.543  -4.688  -6.501  0.00  0.00    -0.066 N 
HETATM   23  H           1     -19.243  -5.677  -6.656  0.00  0.00     0.275 HD
HETATM   24  H           1     -19.274  -4.392  -5.535  0.00  0.00     0.275 HD
HETATM   25  H           1     -19.074  -4.069  -7.200  0.00  0.00     0.275 HD
ENDBRANCH  17  22
ENDBRANCH   3  17
TORSDOF 11
ENDMDL
MODEL 8
REMARK VINA RESULT:      -5.3     16.250     17.599
REMARK  11 active torsions:
REMARK  status: ('A' for Active; 'I' for Inactive)
REMARK    1  A    between atoms: N_2  and  C_3 
REMARK    2  A    between atoms: C_3  and  C_5 
REMARK    3  A    between atoms: C_4  and  C_12 
REMARK    4  A    between atoms: C_4  and  C_14 
REMARK    5  A    between atoms: C_4  and  N_8 
REMARK    6  A    between atoms: C_5  and  C_6 
REMARK    7  A    between atoms: C_6  and  C_12 
REMARK       I    between atoms: N_8  and  C_9 
REMARK    8  A    between atoms: C_9  and  C_10 
REMARK    9  A    between atoms: C_10  and  C_11 
REMARK   10  A    between atoms: C_10  and  N_19 
REMARK   11  A    between atoms: C_11  and  C_24 
ROOT
HETATM    1  H           1     -19.604  -7.151  -4.301  0.00  0.00     0.163 HD
HETATM    2  N           1     -20.441  -7.707  -4.179  0.00  0.00    -0.345 N 
HETATM    3  C           1     -20.384  -9.068  -4.315  0.00  0.00     0.249 C 
HETATM    4  O           1     -21.382  -9.732  -4.169  0.00  0.00    -0.271 OA
ENDROOT
BRANCH   2   5
HETATM    5  C           1     -21.700  -7.062  -3.861  0.00  0.00     0.185 C 
BRANCH   5   6
HETATM    6  C           1     -21.509  -6.137  -2.666  0.00  0.00     0.036 C 
BRANCH   6   7
HETATM    7  C           1     -22.305  -6.667  -1.481  0.00  0.00     0.004 C 
BRANCH   7   8
HETATM    8  C           1     -21.524  -7.784  -0.802  0.00  0.00     0.027 C 
BRANCH   8   9
HETATM    9  C           1     -22.042  -7.975   0.618  0.00  0.00     0.229 C 
BRANCH   9  10
HETATM   10  N           1     -23.541  -8.027   0.602  0.00  0.00    -0.079 N 
HETATM   11  H           1     -23.873  -8.209  -0.372  0.00  0.00     0.274 HD
HETATM   12  H           1     -23.869  -8.795   1.230  0.00  0.00     0.274 HD
HETATM   13  H           1     -23.924  -7.115   0.936  0.00  0.00     0.274 HD
ENDBRANCH   9  10
ENDBRANCH   8   9
ENDBRANCH   7   8
ENDBRANCH   6   7
ENDBRANCH   5   6
BRANCH   5  14
HETATM   14  C           1     -22.166  -6.258  -5.050  0.00  0.00     0.196 C 
HETATM   15  O           1     -23.385  -6.033  -5.213  0.00  0.00    -0.646 OA
HETATM   16  O           1     -21.334  -5.816  -5.871  0.00  0.00    -0.646 OA
ENDBRANCH   5  14
ENDBRANCH   2   5
BRANCH   3  17
HETATM   17  C           1     -19.073  -9.740  -4.645  0.00  0.00     0.278 C 
BRANCH  17  18
HETATM   18  C           1     -18.065  -9.456  -3.541  0.00  0.00     0.021 C 
HETATM   19  C           1     -18.418 -10.275  -2.306  0.00  0.00     0.012 C 
BRANCH  18  20
HETATM   20  C           1     -16.669  -9.837  -4.018  0.00  0.00     0.002 C 
HETATM   21  C           1     -15.806 -10.210  -2.820  0.00  0.00     0.005 C 
ENDBRANCH  18  20
ENDBRANCH  17  18
BRANCH  17  22
HETATM   22  N           1     -18.553  -9.204  -5.947  0.00  0.00    -0.066 N 
HETATM   23  H           1     -18.835  -9.843  -6.724  0.00  0.00     0.275 HD
HETATM   24  H           1     -17.510  -9.146  -5.907  0.00  0.00     0.275 HD
HETATM   25  H           1     -18.950  -8.253  -6.116  0.00  0.00     0.275 HD
ENDBRANCH  17  22
ENDBRANCH   3  17
TORSDOF 11
ENDMDL
MODEL 9
REMARK VINA RESULT:      -5.3     16.609     19.067
REMARK  11 active torsions:
REMARK  status: ('A' for Active; 'I' for Inactive)
REMARK    1  A    between atoms: N_2  and  C_3 
REMARK    2  A    between atoms: C_3  and  C_5 
REMARK    3  A    between atoms: C_4  and  C_12 
REMARK    4  A    between atoms: C_4  and  C_14 
REMARK    5  A    between atoms: C_4  and  N_8 
REMARK    6  A    between atoms: C_5  and  C_6 
REMARK    7  A    between atoms: C_6  and  C_12 
REMARK       I    between atoms: N_8  and  C_9 
REMARK    8  A    between atoms: C_9  and  C_10 
REMARK    9  A    between atoms: C_10  and  C_11 
REMARK   10  A    between atoms: C_10  and  N_19 
REMARK   11  A    between atoms: C_11  and  C_24 
ROOT
HETATM    1  H           1     -21.932  -9.757  -1.885  0.00  0.00     0.163 HD
HETATM    2  N           1     -21.529  -9.470  -1.002  0.00  0.00    -0.345 N 
HETATM    3  C           1     -21.340 -10.389  -0.005  0.00  0.00     0.249 C 
HETATM    4  O           1     -20.859 -10.047   1.049  0.00  0.00    -0.271 OA
ENDROOT
BRANCH   2   5
HETATM    5  C           1     -21.152  -8.085  -0.793  0.00  0.00     0.185 C 
BRANCH   5   6
HETATM    6  C           1     -20.261  -7.624  -1.938  0.00  0.00     0.036 C 
BRANCH   6   7
HETATM    7  C           1     -20.412  -8.577  -3.117  0.00  0.00     0.004 C 
BRANCH   7   8
HETATM    8  C           1     -20.468  -7.779  -4.412  0.00  0.00     0.027 C 
BRANCH   8   9
HETATM    9  C           1     -21.920  -7.610  -4.843  0.00  0.00     0.229 C 
BRANCH   9  10
HETATM   10  N           1     -22.370  -6.210  -4.549  0.00  0.00    -0.079 N 
HETATM   11  H           1     -21.555  -5.642  -4.224  0.00  0.00     0.274 HD
HETATM   12  H           1     -22.766  -5.783  -5.417  0.00  0.00     0.274 HD
HETATM   13  H           1     -23.102  -6.229  -3.804  0.00  0.00     0.274 HD
ENDBRANCH   9  10
ENDBRANCH   8   9
ENDBRANCH   7   8
ENDBRANCH   6   7
ENDBRANCH   5   6
BRANCH   5  14
HETATM   14  C           1     -22.394  -7.229  -0.746  0.00  0.00     0.196 C 
HETATM   15  O           1     -22.513  -6.258  -1.524  0.00  0.00    -0.646 OA
HETATM   16  O           1     -23.303  -7.490   0.071  0.00  0.00    -0.646 OA
ENDBRANCH   5  14
ENDBRANCH   2   5
BRANCH   3  17
HETATM   17  C           1     -21.733 -11.830  -0.222  0.00  0.00     0.278 C 
BRANCH  17  18
HETATM   18  C           1     -23.089 -12.089   0.418  0.00  0.00     0.021 C 
HETATM   19  C           1     -24.192 -11.599  -0.511  0.00  0.00     0.012 C 
BRANCH  18  20
HETATM   20  C           1     -23.258 -13.583   0.660  0.00  0.00     0.002 C 
HETATM   21  C           1     -23.511 -13.833   2.141  0.00  0.00     0.005 C 
ENDBRANCH  18  20
ENDBRANCH  17  18
BRANCH  17  22
HETATM   22  N           1     -20.705 -12.727   0.403  0.00  0.00    -0.066 N 
HETATM   23  H           1     -21.134 -13.242   1.205  0.00  0.00     0.275 HD
HETATM   24  H           1     -19.904 -12.151   0.749  0.00  0.00     0.275 HD
HETATM   25  H           1     -20.361 -13.412  -0.307  0.00  0.00     0.275 HD
ENDBRANCH  17  22
ENDBRANCH   3  17
TORSDOF 11
ENDMDL
