MODEL 1
REMARK VINA RESULT:      -7.3      0.000      0.000
REMARK  12 active torsions:
REMARK  status: ('A' for Active; 'I' for Inactive)
REMARK    1  A    between atoms: N_2  and  C_15 
REMARK    2  A    between atoms: O_7  and  P_8 
REMARK    3  A    between atoms: P_8  and  O_9 
REMARK    4  A    between atoms: O_9  and  C_10 
REMARK    5  A    between atoms: C_13  and  C_14 
REMARK    6  A    between atoms: C_14  and  C_15 
REMARK    7  A    between atoms: C_15  and  C_16 
REMARK       I    between atoms: C_16  and  N_17 
REMARK    8  A    between atoms: N_17  and  C_21 
REMARK    9  A    between atoms: C_20  and  C_21 
REMARK   10  A    between atoms: C_21  and  C_22 
REMARK   11  A    between atoms: C_22  and  C_23 
REMARK   12  A    between atoms: C_23  and  S_24 
ROOT
HETATM    1  C           1     -33.658  -4.861 -15.483  0.00  0.00     0.278 C 
ENDROOT
BRANCH   1   2
HETATM    2  N           1     -34.784  -5.657 -16.074  0.00  0.00    -0.066 N 
HETATM    3  H           1     -34.521  -6.668 -16.102  0.00  0.00     0.275 HD
HETATM    4  H           1     -35.641  -5.536 -15.489  0.00  0.00     0.275 HD
HETATM    5  H           1     -34.975  -5.321 -17.045  0.00  0.00     0.275 HD
ENDBRANCH   1   2
BRANCH   1   6
HETATM    6  C           1     -33.083  -3.931 -16.543  0.00  0.00     0.081 C 
BRANCH   6   7
HETATM    7  C           1     -31.775  -4.472 -17.027  0.00  0.00    -0.056 A 
HETATM    8  C           1     -30.824  -3.613 -17.577  0.00  0.00     0.010 A 
HETATM    9  C           1     -29.605  -4.117 -18.028  0.00  0.00     0.038 A 
HETATM   10  C           1     -29.335  -5.482 -17.930  0.00  0.00     0.081 A 
HETATM   11  C           1     -30.286  -6.342 -17.381  0.00  0.00     0.038 A 
HETATM   12  C           1     -31.506  -5.838 -16.929  0.00  0.00     0.010 A 
BRANCH  10  13
HETATM   13  O           1     -28.151  -5.972 -18.368  0.00  0.00    -0.247 OA
BRANCH  13  14
HETATM   14  P           1     -26.946  -6.112 -17.302  0.00  0.00     0.411 P 
HETATM   15  O           1     -26.840  -4.865 -16.513  0.00  0.00    -0.624 OA
HETATM   16  O           1     -25.676  -6.351 -18.023  0.00  0.00    -0.624 OA
BRANCH  14  17
HETATM   17  O           1     -27.244  -7.353 -16.311  0.00  0.00    -0.300 OA
HETATM   18  H           1     -26.567  -7.311 -15.659  0.00  0.00     0.223 HD
ENDBRANCH  14  17
ENDBRANCH  13  14
ENDBRANCH  10  13
ENDBRANCH   6   7
ENDBRANCH   1   6
BRANCH   1  19
HETATM   19  C           1     -34.173  -4.047 -14.323  0.00  0.00     0.249 C 
HETATM   20  O           1     -34.628  -2.944 -14.514  0.00  0.00    -0.271 OA
HETATM   21  N           1     -34.126  -4.557 -13.053  0.00  0.00    -0.345 N 
HETATM   22  H           1     -33.745  -5.481 -12.893  0.00  0.00     0.163 HD
BRANCH  21  23
HETATM   23  C           1     -34.621  -3.773 -11.938  0.00  0.00     0.186 C 
BRANCH  23  24
HETATM   24  C           1     -33.524  -2.867 -11.435  0.00  0.00     0.196 C 
HETATM   25  O           1     -32.346  -3.282 -11.380  0.00  0.00    -0.646 OA
HETATM   26  O           1     -33.794  -1.701 -11.073  0.00  0.00    -0.646 OA
ENDBRANCH  23  24
BRANCH  23  27
HETATM   27  C           1     -35.062  -4.706 -10.817  0.00  0.00     0.046 C 
BRANCH  27  28
HETATM   28  C           1     -34.289  -6.015 -10.910  0.00  0.00     0.076 C 
BRANCH  28  29
HETATM   29  S           1     -34.984  -7.214  -9.738  0.00  0.00    -0.173 SA
HETATM   30  C           1     -33.891  -8.591 -10.193  0.00  0.00     0.089 C 
ENDBRANCH  28  29
ENDBRANCH  27  28
ENDBRANCH  23  27
ENDBRANCH  21  23
ENDBRANCH   1  19
TORSDOF 12
ENDMDL
MODEL 2
REMARK VINA RESULT:      -7.1     12.860     14.431
REMARK  12 active torsions:
REMARK  status: ('A' for Active; 'I' for Inactive)
REMARK    1  A    between atoms: N_2  and  C_15 
REMARK    2  A    between atoms: O_7  and  P_8 
REMARK    3  A    between atoms: P_8  and  O_9 
REMARK    4  A    between atoms: O_9  and  C_10 
REMARK    5  A    between atoms: C_13  and  C_14 
REMARK    6  A    between atoms: C_14  and  C_15 
REMARK    7  A    between atoms: C_15  and  C_16 
REMARK       I    between atoms: C_16  and  N_17 
REMARK    8  A    between atoms: N_17  and  C_21 
REMARK    9  A    between atoms: C_20  and  C_21 
REMARK   10  A    between atoms: C_21  and  C_22 
REMARK   11  A    between atoms: C_22  and  C_23 
REMARK   12  A    between atoms: C_23  and  S_24 
ROOT
HETATM    1  C           1     -21.389  -6.404  -4.964  0.00  0.00     0.278 C 
ENDROOT
BRANCH   1   2
HETATM    2  N           1     -21.710  -6.040  -3.545  0.00  0.00    -0.066 N 
HETATM    3  H           1     -22.153  -5.093  -3.519  0.00  0.00     0.275 HD
HETATM    4  H           1     -22.371  -6.744  -3.146  0.00  0.00     0.275 HD
HETATM    5  H           1     -20.831  -6.028  -2.981  0.00  0.00     0.275 HD
ENDBRANCH   1   2
BRANCH   1   6
HETATM    6  C           1     -20.436  -5.370  -5.550  0.00  0.00     0.081 C 
BRANCH   6   7
HETATM    7  C           1     -20.945  -4.920  -6.883  0.00  0.00    -0.056 A 
HETATM    8  C           1     -22.249  -4.439  -7.006  0.00  0.00     0.010 A 
HETATM    9  C           1     -22.724  -4.019  -8.248  0.00  0.00     0.038 A 
HETATM   10  C           1     -21.895  -4.079  -9.368  0.00  0.00     0.081 A 
HETATM   11  C           1     -20.592  -4.560  -9.246  0.00  0.00     0.038 A 
HETATM   12  C           1     -20.116  -4.981  -8.003  0.00  0.00     0.010 A 
BRANCH  10  13
HETATM   13  O           1     -22.356  -3.671 -10.575  0.00  0.00    -0.247 OA
BRANCH  13  14
HETATM   14  P           1     -23.725  -4.328 -11.126  0.00  0.00     0.411 P 
HETATM   15  O           1     -24.832  -3.357 -10.976  0.00  0.00    -0.624 OA
HETATM   16  O           1     -24.031  -5.551 -10.352  0.00  0.00    -0.624 OA
BRANCH  14  17
HETATM   17  O           1     -23.550  -4.708 -12.686  0.00  0.00    -0.300 OA
HETATM   18  H           1     -22.707  -5.123 -12.743  0.00  0.00     0.223 HD
ENDBRANCH  14  17
ENDBRANCH  13  14
ENDBRANCH  10  13
ENDBRANCH   6   7
ENDBRANCH   1   6
BRANCH   1  19
HETATM   19  C           1     -20.740  -7.765  -4.998  0.00  0.00     0.249 C 
HETATM   20  O           1     -19.727  -7.935  -5.635  0.00  0.00    -0.271 OA
HETATM   21  N           1     -21.298  -8.808  -4.309  0.00  0.00    -0.345 N 
HETATM   22  H           1     -22.146  -8.666  -3.775  0.00  0.00     0.163 HD
BRANCH  21  23
HETATM   23  C           1     -20.673 -10.116  -4.342  0.00  0.00     0.186 C 
BRANCH  23  24
HETATM   24  C           1     -21.388 -10.988  -5.345  0.00  0.00     0.196 C 
HETATM   25  O           1     -21.099 -10.911  -6.559  0.00  0.00    -0.646 OA
HETATM   26  O           1     -22.270 -11.787  -4.962  0.00  0.00    -0.646 OA
ENDBRANCH  23  24
BRANCH  23  27
HETATM   27  C           1     -20.759 -10.757  -2.962  0.00  0.00     0.046 C 
BRANCH  27  28
HETATM   28  C           1     -21.696  -9.942  -2.081  0.00  0.00     0.076 C 
BRANCH  28  29
HETATM   29  S           1     -21.195 -10.112  -0.345  0.00  0.00    -0.173 SA
HETATM   30  C           1     -21.318  -8.349   0.070  0.00  0.00     0.089 C 
ENDBRANCH  28  29
ENDBRANCH  27  28
ENDBRANCH  23  27
ENDBRANCH  21  23
ENDBRANCH   1  19
TORSDOF 12
ENDMDL
MODEL 3
REMARK VINA RESULT:      -7.1     13.896     15.292
REMARK  12 active torsions:
REMARK  status: ('A' for Active; 'I' for Inactive)
REMARK    1  A    between atoms: N_2  and  C_15 
REMARK    2  A    between atoms: O_7  and  P_8 
REMARK    3  A    between atoms: P_8  and  O_9 
REMARK    4  A    between atoms: O_9  and  C_10 
REMARK    5  A    between atoms: C_13  and  C_14 
REMARK    6  A    between atoms: C_14  and  C_15 
REMARK    7  A    between atoms: C_15  and  C_16 
REMARK       I    between atoms: C_16  and  N_17 
REMARK    8  A    between atoms: N_17  and  C_21 
REMARK    9  A    between atoms: C_20  and  C_21 
REMARK   10  A    between atoms: C_21  and  C_22 
REMARK   11  A    between atoms: C_22  and  C_23 
REMARK   12  A    between atoms: C_23  and  S_24 
ROOT
HETATM    1  C           1     -21.251  -6.394  -5.007  0.00  0.00     0.278 C 
ENDROOT
BRANCH   1   2
HETATM    2  N           1     -21.762  -6.014  -3.649  0.00  0.00    -0.066 N 
HETATM    3  H           1     -21.723  -4.975  -3.538  0.00  0.00     0.275 HD
HETATM    4  H           1     -22.750  -6.338  -3.545  0.00  0.00     0.275 HD
HETATM    5  H           1     -21.169  -6.464  -2.915  0.00  0.00     0.275 HD
ENDBRANCH   1   2
BRANCH   1   6
HETATM    6  C           1     -20.386  -5.267  -5.557  0.00  0.00     0.081 C 
BRANCH   6   7
HETATM    7  C           1     -20.908  -4.844  -6.894  0.00  0.00    -0.056 A 
HETATM    8  C           1     -20.104  -4.967  -8.027  0.00  0.00     0.010 A 
HETATM    9  C           1     -20.591  -4.572  -9.273  0.00  0.00     0.038 A 
HETATM   10  C           1     -21.881  -4.055  -9.387  0.00  0.00     0.081 A 
HETATM   11  C           1     -22.684  -3.931  -8.254  0.00  0.00     0.038 A 
HETATM   12  C           1     -22.198  -4.325  -7.007  0.00  0.00     0.010 A 
BRANCH  10  13
HETATM   13  O           1     -22.353  -3.671 -10.598  0.00  0.00    -0.247 OA
BRANCH  13  14
HETATM   14  P           1     -23.727  -4.337 -11.122  0.00  0.00     0.411 P 
HETATM   15  O           1     -24.839  -3.376 -10.944  0.00  0.00    -0.624 OA
HETATM   16  O           1     -24.007  -5.566 -10.347  0.00  0.00    -0.624 OA
BRANCH  14  17
HETATM   17  O           1     -23.583  -4.710 -12.688  0.00  0.00    -0.300 OA
HETATM   18  H           1     -23.033  -5.473 -12.706  0.00  0.00     0.223 HD
ENDBRANCH  14  17
ENDBRANCH  13  14
ENDBRANCH  10  13
ENDBRANCH   6   7
ENDBRANCH   1   6
BRANCH   1  19
HETATM   19  C           1     -20.430  -7.654  -4.900  0.00  0.00     0.249 C 
HETATM   20  O           1     -19.706  -7.983  -5.810  0.00  0.00    -0.271 OA
HETATM   21  N           1     -20.504  -8.427  -3.772  0.00  0.00    -0.345 N 
HETATM   22  H           1     -21.110  -8.152  -3.009  0.00  0.00     0.163 HD
BRANCH  21  23
HETATM   23  C           1     -19.714  -9.639  -3.670  0.00  0.00     0.186 C 
BRANCH  23  24
HETATM   24  C           1     -20.527 -10.711  -2.988  0.00  0.00     0.196 C 
HETATM   25  O           1     -21.239 -11.483  -3.666  0.00  0.00    -0.646 OA
HETATM   26  O           1     -20.488 -10.828  -1.743  0.00  0.00    -0.646 OA
ENDBRANCH  23  24
BRANCH  23  27
HETATM   27  C           1     -18.457  -9.360  -2.855  0.00  0.00     0.046 C 
BRANCH  27  28
HETATM   28  C           1     -17.228  -9.753  -3.664  0.00  0.00     0.076 C 
BRANCH  28  29
HETATM   29  S           1     -15.931 -10.348  -2.544  0.00  0.00    -0.173 SA
HETATM   30  C           1     -16.988 -11.487  -1.604  0.00  0.00     0.089 C 
ENDBRANCH  28  29
ENDBRANCH  27  28
ENDBRANCH  23  27
ENDBRANCH  21  23
ENDBRANCH   1  19
TORSDOF 12
ENDMDL
MODEL 4
REMARK VINA RESULT:      -7.0      1.687      2.342
REMARK  12 active torsions:
REMARK  status: ('A' for Active; 'I' for Inactive)
REMARK    1  A    between atoms: N_2  and  C_15 
REMARK    2  A    between atoms: O_7  and  P_8 
REMARK    3  A    between atoms: P_8  and  O_9 
REMARK    4  A    between atoms: O_9  and  C_10 
REMARK    5  A    between atoms: C_13  and  C_14 
REMARK    6  A    between atoms: C_14  and  C_15 
REMARK    7  A    between atoms: C_15  and  C_16 
REMARK       I    between atoms: C_16  and  N_17 
REMARK    8  A    between atoms: N_17  and  C_21 
REMARK    9  A    between atoms: C_20  and  C_21 
REMARK   10  A    between atoms: C_21  and  C_22 
REMARK   11  A    between atoms: C_22  and  C_23 
REMARK   12  A    between atoms: C_23  and  S_24 
ROOT
HETATM    1  C           1     -32.889  -4.727 -16.898  0.00  0.00     0.278 C 
ENDROOT
BRANCH   1   2
HETATM    2  N           1     -31.882  -3.615 -16.906  0.00  0.00    -0.066 N 
HETATM    3  H           1     -32.373  -2.699 -16.796  0.00  0.00     0.275 HD
HETATM    4  H           1     -31.211  -3.748 -16.117  0.00  0.00     0.275 HD
HETATM    5  H           1     -31.361  -3.623 -17.812  0.00  0.00     0.275 HD
ENDBRANCH   1   2
BRANCH   1   6
HETATM    6  C           1     -32.168  -6.065 -16.998  0.00  0.00     0.081 C 
BRANCH   6   7
HETATM    7  C           1     -30.692  -5.847 -16.883  0.00  0.00    -0.056 A 
HETATM    8  C           1     -29.882  -5.948 -18.014  0.00  0.00     0.010 A 
HETATM    9  C           1     -28.506  -5.745 -17.907  0.00  0.00     0.038 A 
HETATM   10  C           1     -27.940  -5.439 -16.670  0.00  0.00     0.081 A 
HETATM   11  C           1     -28.750  -5.338 -15.539  0.00  0.00     0.038 A 
HETATM   12  C           1     -30.126  -5.541 -15.645  0.00  0.00     0.010 A 
BRANCH  10  13
HETATM   13  O           1     -26.604  -5.241 -16.566  0.00  0.00    -0.247 OA
BRANCH  13  14
HETATM   14  P           1     -25.697  -6.459 -16.017  0.00  0.00     0.411 P 
HETATM   15  O           1     -24.812  -6.942 -17.101  0.00  0.00    -0.624 OA
HETATM   16  O           1     -26.573  -7.562 -15.565  0.00  0.00    -0.624 OA
BRANCH  14  17
HETATM   17  O           1     -24.797  -5.945 -14.777  0.00  0.00    -0.300 OA
HETATM   18  H           1     -23.934  -6.281 -14.948  0.00  0.00     0.223 HD
ENDBRANCH  14  17
ENDBRANCH  13  14
ENDBRANCH  10  13
ENDBRANCH   6   7
ENDBRANCH   1   6
BRANCH   1  19
HETATM   19  C           1     -33.682  -4.677 -15.616  0.00  0.00     0.249 C 
HETATM   20  O           1     -34.793  -5.150 -15.574  0.00  0.00    -0.271 OA
HETATM   21  N           1     -33.144  -4.095 -14.499  0.00  0.00    -0.345 N 
HETATM   22  H           1     -32.213  -3.698 -14.534  0.00  0.00     0.163 HD
BRANCH  21  23
HETATM   23  C           1     -33.907  -4.046 -13.267  0.00  0.00     0.186 C 
BRANCH  23  24
HETATM   24  C           1     -34.622  -2.721 -13.172  0.00  0.00     0.196 C 
HETATM   25  O           1     -34.877  -2.227 -12.052  0.00  0.00    -0.646 OA
HETATM   26  O           1     -34.959  -2.117 -14.214  0.00  0.00    -0.646 OA
ENDBRANCH  23  24
BRANCH  23  27
HETATM   27  C           1     -32.965  -4.201 -12.080  0.00  0.00     0.046 C 
BRANCH  27  28
HETATM   28  C           1     -33.185  -5.561 -11.430  0.00  0.00     0.076 C 
BRANCH  28  29
HETATM   29  S           1     -34.740  -5.541 -10.495  0.00  0.00    -0.173 SA
HETATM   30  C           1     -34.758  -7.313 -10.103  0.00  0.00     0.089 C 
ENDBRANCH  28  29
ENDBRANCH  27  28
ENDBRANCH  23  27
ENDBRANCH  21  23
ENDBRANCH   1  19
TORSDOF 12
ENDMDL
MODEL 5
REMARK VINA RESULT:      -6.8     12.877     14.524
REMARK  12 active torsions:
REMARK  status: ('A' for Active; 'I' for Inactive)
REMARK    1  A    between atoms: N_2  and  C_15 
REMARK    2  A    between atoms: O_7  and  P_8 
REMARK    3  A    between atoms: P_8  and  O_9 
REMARK    4  A    between atoms: O_9  and  C_10 
REMARK    5  A    between atoms: C_13  and  C_14 
REMARK    6  A    between atoms: C_14  and  C_15 
REMARK    7  A    between atoms: C_15  and  C_16 
REMARK       I    between atoms: C_16  and  N_17 
REMARK    8  A    between atoms: N_17  and  C_21 
REMARK    9  A    between atoms: C_20  and  C_21 
REMARK   10  A    between atoms: C_21  and  C_22 
REMARK   11  A    between atoms: C_22  and  C_23 
REMARK   12  A    between atoms: C_23  and  S_24 
ROOT
HETATM    1  C           1     -21.464  -6.621  -4.872  0.00  0.00     0.278 C 
ENDROOT
BRANCH   1   2
HETATM    2  N           1     -21.935  -5.990  -3.595  0.00  0.00    -0.066 N 
HETATM    3  H           1     -22.475  -5.122  -3.813  0.00  0.00     0.275 HD
HETATM    4  H           1     -22.549  -6.661  -3.080  0.00  0.00     0.275 HD
HETATM    5  H           1     -21.110  -5.747  -3.002  0.00  0.00     0.275 HD
ENDBRANCH   1   2
BRANCH   1   6
HETATM    6  C           1     -20.400  -5.739  -5.511  0.00  0.00     0.081 C 
BRANCH   6   7
HETATM    7  C           1     -20.919  -5.183  -6.799  0.00  0.00    -0.056 A 
HETATM    8  C           1     -22.180  -4.587  -6.844  0.00  0.00     0.010 A 
HETATM    9  C           1     -22.664  -4.069  -8.045  0.00  0.00     0.038 A 
HETATM   10  C           1     -21.888  -4.145  -9.202  0.00  0.00     0.081 A 
HETATM   11  C           1     -20.628  -4.742  -9.157  0.00  0.00     0.038 A 
HETATM   12  C           1     -20.143  -5.261  -7.956  0.00  0.00     0.010 A 
BRANCH  10  13
HETATM   13  O           1     -22.359  -3.642 -10.368  0.00  0.00    -0.247 OA
BRANCH  13  14
HETATM   14  P           1     -23.690  -4.304 -10.998  0.00  0.00     0.411 P 
HETATM   15  O           1     -24.820  -3.358 -10.866  0.00  0.00    -0.624 OA
HETATM   16  O           1     -24.006  -5.557 -10.277  0.00  0.00    -0.624 OA
BRANCH  14  17
HETATM   17  O           1     -23.441  -4.631 -12.561  0.00  0.00    -0.300 OA
HETATM   18  H           1     -23.890  -5.444 -12.714  0.00  0.00     0.223 HD
ENDBRANCH  14  17
ENDBRANCH  13  14
ENDBRANCH  10  13
ENDBRANCH   6   7
ENDBRANCH   1   6
BRANCH   1  19
HETATM   19  C           1     -20.881  -7.980  -4.575  0.00  0.00     0.249 C 
HETATM   20  O           1     -20.467  -8.231  -3.467  0.00  0.00    -0.271 OA
HETATM   21  N           1     -20.820  -8.930  -5.559  0.00  0.00    -0.345 N 
HETATM   22  H           1     -21.167  -8.720  -6.487  0.00  0.00     0.163 HD
BRANCH  21  23
HETATM   23  C           1     -20.259 -10.236  -5.273  0.00  0.00     0.186 C 
BRANCH  23  24
HETATM   24  C           1     -18.880 -10.333  -5.877  0.00  0.00     0.196 C 
HETATM   25  O           1     -18.381 -11.453  -6.123  0.00  0.00    -0.646 OA
HETATM   26  O           1     -18.235  -9.292  -6.132  0.00  0.00    -0.646 OA
ENDBRANCH  23  24
BRANCH  23  27
HETATM   27  C           1     -21.152 -11.315  -5.872  0.00  0.00     0.046 C 
BRANCH  27  28
HETATM   28  C           1     -22.053 -11.890  -4.788  0.00  0.00     0.076 C 
BRANCH  28  29
HETATM   29  S           1     -21.200 -11.814  -3.188  0.00  0.00    -0.173 SA
HETATM   30  C           1     -22.610 -12.362  -2.185  0.00  0.00     0.089 C 
ENDBRANCH  28  29
ENDBRANCH  27  28
ENDBRANCH  23  27
ENDBRANCH  21  23
ENDBRANCH   1  19
TORSDOF 12
ENDMDL
MODEL 6
REMARK VINA RESULT:      -6.7     13.930     15.340
REMARK  12 active torsions:
REMARK  status: ('A' for Active; 'I' for Inactive)
REMARK    1  A    between atoms: N_2  and  C_15 
REMARK    2  A    between atoms: O_7  and  P_8 
REMARK    3  A    between atoms: P_8  and  O_9 
REMARK    4  A    between atoms: O_9  and  C_10 
REMARK    5  A    between atoms: C_13  and  C_14 
REMARK    6  A    between atoms: C_14  and  C_15 
REMARK    7  A    between atoms: C_15  and  C_16 
REMARK       I    between atoms: C_16  and  N_17 
REMARK    8  A    between atoms: N_17  and  C_21 
REMARK    9  A    between atoms: C_20  and  C_21 
REMARK   10  A    between atoms: C_21  and  C_22 
REMARK   11  A    between atoms: C_22  and  C_23 
REMARK   12  A    between atoms: C_23  and  S_24 
ROOT
HETATM    1  C           1     -21.259  -6.399  -4.930  0.00  0.00     0.278 C 
ENDROOT
BRANCH   1   2
HETATM    2  N           1     -21.432  -5.909  -3.523  0.00  0.00    -0.066 N 
HETATM    3  H           1     -20.659  -6.281  -2.925  0.00  0.00     0.275 HD
HETATM    4  H           1     -21.407  -4.864  -3.513  0.00  0.00     0.275 HD
HETATM    5  H           1     -22.350  -6.239  -3.149  0.00  0.00     0.275 HD
ENDBRANCH   1   2
BRANCH   1   6
HETATM    6  C           1     -20.228  -5.535  -5.645  0.00  0.00     0.081 C 
BRANCH   6   7
HETATM    7  C           1     -20.816  -5.005  -6.915  0.00  0.00    -0.056 A 
HETATM    8  C           1     -22.088  -4.433  -6.910  0.00  0.00     0.010 A 
HETATM    9  C           1     -22.635  -3.939  -8.094  0.00  0.00     0.038 A 
HETATM   10  C           1     -21.911  -4.016  -9.284  0.00  0.00     0.081 A 
HETATM   11  C           1     -20.639  -4.589  -9.289  0.00  0.00     0.038 A 
HETATM   12  C           1     -20.091  -5.083  -8.105  0.00  0.00     0.010 A 
BRANCH  10  13
HETATM   13  O           1     -22.443  -3.536 -10.433  0.00  0.00    -0.247 OA
BRANCH  13  14
HETATM   14  P           1     -23.809  -4.205 -10.975  0.00  0.00     0.411 P 
HETATM   15  O           1     -23.634  -4.604 -12.389  0.00  0.00    -0.624 OA
HETATM   16  O           1     -24.913  -3.226 -10.869  0.00  0.00    -0.624 OA
BRANCH  14  17
HETATM   17  O           1     -24.160  -5.509 -10.088  0.00  0.00    -0.300 OA
HETATM   18  H           1     -24.302  -5.180  -9.217  0.00  0.00     0.223 HD
ENDBRANCH  14  17
ENDBRANCH  13  14
ENDBRANCH  10  13
ENDBRANCH   6   7
ENDBRANCH   1   6
BRANCH   1  19
HETATM   19  C           1     -20.787  -7.832  -4.908  0.00  0.00     0.249 C 
HETATM   20  O           1     -21.587  -8.730  -4.798  0.00  0.00    -0.271 OA
HETATM   21  N           1     -19.451  -8.115  -5.013  0.00  0.00    -0.345 N 
HETATM   22  H           1     -18.780  -7.363  -5.106  0.00  0.00     0.163 HD
BRANCH  21  23
HETATM   23  C           1     -18.998  -9.492  -4.991  0.00  0.00     0.186 C 
BRANCH  23  24
HETATM   24  C           1     -18.537  -9.847  -3.599  0.00  0.00     0.196 C 
HETATM   25  O           1     -19.255 -10.561  -2.865  0.00  0.00    -0.646 OA
HETATM   26  O           1     -17.437  -9.426  -3.179  0.00  0.00    -0.646 OA
ENDBRANCH  23  24
BRANCH  23  27
HETATM   27  C           1     -17.840  -9.662  -5.967  0.00  0.00     0.046 C 
BRANCH  27  28
HETATM   28  C           1     -17.736 -11.123  -6.383  0.00  0.00     0.076 C 
BRANCH  28  29
HETATM   29  S           1     -16.016 -11.680  -6.214  0.00  0.00    -0.173 SA
HETATM   30  C           1     -16.247 -12.562  -4.645  0.00  0.00     0.089 C 
ENDBRANCH  28  29
ENDBRANCH  27  28
ENDBRANCH  23  27
ENDBRANCH  21  23
ENDBRANCH   1  19
TORSDOF 12
ENDMDL
MODEL 7
REMARK VINA RESULT:      -6.5      1.748      2.389
REMARK  12 active torsions:
REMARK  status: ('A' for Active; 'I' for Inactive)
REMARK    1  A    between atoms: N_2  and  C_15 
REMARK    2  A    between atoms: O_7  and  P_8 
REMARK    3  A    between atoms: P_8  and  O_9 
REMARK    4  A    between atoms: O_9  and  C_10 
REMARK    5  A    between atoms: C_13  and  C_14 
REMARK    6  A    between atoms: C_14  and  C_15 
REMARK    7  A    between atoms: C_15  and  C_16 
REMARK       I    between atoms: C_16  and  N_17 
REMARK    8  A    between atoms: N_17  and  C_21 
REMARK    9  A    between atoms: C_20  and  C_21 
REMARK   10  A    between atoms: C_21  and  C_22 
REMARK   11  A    between atoms: C_22  and  C_23 
REMARK   12  A    between atoms: C_23  and  S_24 
ROOT
HETATM    1  C           1     -32.834  -4.490 -16.611  0.00  0.00     0.278 C 
ENDROOT
BRANCH   1   2
HETATM    2  N           1     -33.172  -3.309 -17.472  0.00  0.00    -0.066 N 
HETATM    3  H           1     -32.293  -2.820 -17.756  0.00  0.00     0.275 HD
HETATM    4  H           1     -33.680  -3.634 -18.326  0.00  0.00     0.275 HD
HETATM    5  H           1     -33.779  -2.649 -16.936  0.00  0.00     0.275 HD
ENDBRANCH   1   2
BRANCH   1   6
HETATM    6  C           1     -31.382  -4.392 -16.164  0.00  0.00     0.081 C 
BRANCH   6   7
HETATM    7  C           1     -30.516  -5.169 -17.104  0.00  0.00    -0.056 A 
HETATM    8  C           1     -30.645  -6.555 -17.189  0.00  0.00     0.010 A 
HETATM    9  C           1     -29.838  -7.279 -18.066  0.00  0.00     0.038 A 
HETATM   10  C           1     -28.901  -6.618 -18.860  0.00  0.00     0.081 A 
HETATM   11  C           1     -28.771  -5.232 -18.775  0.00  0.00     0.038 A 
HETATM   12  C           1     -29.578  -4.507 -17.897  0.00  0.00     0.010 A 
BRANCH  10  13
HETATM   13  O           1     -28.117  -7.321 -19.711  0.00  0.00    -0.247 OA
BRANCH  13  14
HETATM   14  P           1     -26.606  -6.805 -19.955  0.00  0.00     0.411 P 
HETATM   15  O           1     -26.019  -6.375 -18.665  0.00  0.00    -0.624 OA
HETATM   16  O           1     -26.621  -5.663 -20.896  0.00  0.00    -0.624 OA
BRANCH  14  17
HETATM   17  O           1     -25.720  -8.003 -20.576  0.00  0.00    -0.300 OA
HETATM   18  H           1     -25.506  -7.721 -21.449  0.00  0.00     0.223 HD
ENDBRANCH  14  17
ENDBRANCH  13  14
ENDBRANCH  10  13
ENDBRANCH   6   7
ENDBRANCH   1   6
BRANCH   1  19
HETATM   19  C           1     -33.735  -4.503 -15.402  0.00  0.00     0.249 C 
HETATM   20  O           1     -34.865  -4.922 -15.494  0.00  0.00    -0.271 OA
HETATM   21  N           1     -33.273  -4.041 -14.198  0.00  0.00    -0.345 N 
HETATM   22  H           1     -32.327  -3.691 -14.120  0.00  0.00     0.163 HD
BRANCH  21  23
HETATM   23  C           1     -34.139  -4.054 -13.036  0.00  0.00     0.186 C 
BRANCH  23  24
HETATM   24  C           1     -34.906  -2.756 -12.967  0.00  0.00     0.196 C 
HETATM   25  O           1     -34.826  -1.932 -13.904  0.00  0.00    -0.646 OA
HETATM   26  O           1     -35.622  -2.505 -11.973  0.00  0.00    -0.646 OA
ENDBRANCH  23  24
BRANCH  23  27
HETATM   27  C           1     -33.297  -4.212 -11.776  0.00  0.00     0.046 C 
BRANCH  27  28
HETATM   28  C           1     -33.361  -5.657 -11.300  0.00  0.00     0.076 C 
BRANCH  28  29
HETATM   29  S           1     -34.795  -5.874 -10.209  0.00  0.00    -0.173 SA
HETATM   30  C           1     -34.731  -7.687 -10.156  0.00  0.00     0.089 C 
ENDBRANCH  28  29
ENDBRANCH  27  28
ENDBRANCH  23  27
ENDBRANCH  21  23
ENDBRANCH   1  19
TORSDOF 12
ENDMDL
MODEL 8
REMARK VINA RESULT:      -6.5     14.111     15.497
REMARK  12 active torsions:
REMARK  status: ('A' for Active; 'I' for Inactive)
REMARK    1  A    between atoms: N_2  and  C_15 
REMARK    2  A    between atoms: O_7  and  P_8 
REMARK    3  A    between atoms: P_8  and  O_9 
REMARK    4  A    between atoms: O_9  and  C_10 
REMARK    5  A    between atoms: C_13  and  C_14 
REMARK    6  A    between atoms: C_14  and  C_15 
REMARK    7  A    between atoms: C_15  and  C_16 
REMARK       I    between atoms: C_16  and  N_17 
REMARK    8  A    between atoms: N_17  and  C_21 
REMARK    9  A    between atoms: C_20  and  C_21 
REMARK   10  A    between atoms: C_21  and  C_22 
REMARK   11  A    between atoms: C_22  and  C_23 
REMARK   12  A    between atoms: C_23  and  S_24 
ROOT
HETATM    1  C           1     -21.725  -6.396  -4.432  0.00  0.00     0.278 C 
ENDROOT
BRANCH   1   2
HETATM    2  N           1     -22.144  -6.072  -3.028  0.00  0.00    -0.066 N 
HETATM    3  H           1     -21.864  -6.851  -2.390  0.00  0.00     0.275 HD
HETATM    4  H           1     -21.680  -5.187  -2.721  0.00  0.00     0.275 HD
HETATM    5  H           1     -23.182  -5.951  -2.993  0.00  0.00     0.275 HD
ENDBRANCH   1   2
BRANCH   1   6
HETATM    6  C           1     -20.693  -5.379  -4.900  0.00  0.00     0.081 C 
BRANCH   6   7
HETATM    7  C           1     -21.067  -4.878  -6.260  0.00  0.00    -0.056 A 
HETATM    8  C           1     -22.390  -4.958  -6.694  0.00  0.00     0.010 A 
HETATM    9  C           1     -22.738  -4.492  -7.962  0.00  0.00     0.038 A 
HETATM   10  C           1     -21.763  -3.945  -8.796  0.00  0.00     0.081 A 
HETATM   11  C           1     -20.440  -3.866  -8.363  0.00  0.00     0.038 A 
HETATM   12  C           1     -20.091  -4.332  -7.095  0.00  0.00     0.010 A 
BRANCH  10  13
HETATM   13  O           1     -22.101  -3.492 -10.027  0.00  0.00    -0.247 OA
BRANCH  13  14
HETATM   14  P           1     -21.032  -3.675 -11.223  0.00  0.00     0.411 P 
HETATM   15  O           1     -20.161  -4.835 -10.931  0.00  0.00    -0.624 OA
HETATM   16  O           1     -20.206  -2.452 -11.337  0.00  0.00    -0.624 OA
BRANCH  14  17
HETATM   17  O           1     -21.815  -3.927 -12.614  0.00  0.00    -0.300 OA
HETATM   18  H           1     -22.719  -4.024 -12.369  0.00  0.00     0.223 HD
ENDBRANCH  14  17
ENDBRANCH  13  14
ENDBRANCH  10  13
ENDBRANCH   6   7
ENDBRANCH   1   6
BRANCH   1  19
HETATM   19  C           1     -21.124  -7.778  -4.470  0.00  0.00     0.249 C 
HETATM   20  O           1     -21.119  -8.408  -5.501  0.00  0.00    -0.271 OA
HETATM   21  N           1     -20.582  -8.322  -3.335  0.00  0.00    -0.345 N 
HETATM   22  H           1     -20.585  -7.795  -2.471  0.00  0.00     0.163 HD
BRANCH  21  23
HETATM   23  C           1     -20.004  -9.651  -3.372  0.00  0.00     0.186 C 
BRANCH  23  24
HETATM   24  C           1     -20.475 -10.436  -2.173  0.00  0.00     0.196 C 
HETATM   25  O           1     -21.696 -10.510  -1.913  0.00  0.00    -0.646 OA
HETATM   26  O           1     -19.644 -11.014  -1.439  0.00  0.00    -0.646 OA
ENDBRANCH  23  24
BRANCH  23  27
HETATM   27  C           1     -18.485  -9.546  -3.344  0.00  0.00     0.046 C 
BRANCH  27  28
HETATM   28  C           1     -17.925  -9.897  -4.716  0.00  0.00     0.076 C 
BRANCH  28  29
HETATM   29  S           1     -16.111  -9.908  -4.646  0.00  0.00    -0.173 SA
HETATM   30  C           1     -15.981  -9.620  -2.858  0.00  0.00     0.089 C 
ENDBRANCH  28  29
ENDBRANCH  27  28
ENDBRANCH  23  27
ENDBRANCH  21  23
ENDBRANCH   1  19
TORSDOF 12
ENDMDL
MODEL 9
REMARK VINA RESULT:      -6.4     13.634     15.081
REMARK  12 active torsions:
REMARK  status: ('A' for Active; 'I' for Inactive)
REMARK    1  A    between atoms: N_2  and  C_15 
REMARK    2  A    between atoms: O_7  and  P_8 
REMARK    3  A    between atoms: P_8  and  O_9 
REMARK    4  A    between atoms: O_9  and  C_10 
REMARK    5  A    between atoms: C_13  and  C_14 
REMARK    6  A    between atoms: C_14  and  C_15 
REMARK    7  A    between atoms: C_15  and  C_16 
REMARK       I    between atoms: C_16  and  N_17 
REMARK    8  A    between atoms: N_17  and  C_21 
REMARK    9  A    between atoms: C_20  and  C_21 
REMARK   10  A    between atoms: C_21  and  C_22 
REMARK   11  A    between atoms: C_22  and  C_23 
REMARK   12  A    between atoms: C_23  and  S_24 
ROOT
HETATM    1  C           1     -20.391  -7.069  -5.359  0.00  0.00     0.278 C 
ENDROOT
BRANCH   1   2
HETATM    2  N           1     -21.386  -7.801  -6.210  0.00  0.00    -0.066 N 
HETATM    3  H           1     -20.928  -8.633  -6.647  0.00  0.00     0.275 HD
HETATM    4  H           1     -22.186  -8.116  -5.616  0.00  0.00     0.275 HD
HETATM    5  H           1     -21.738  -7.165  -6.960  0.00  0.00     0.275 HD
ENDBRANCH   1   2
BRANCH   1   6
HETATM    6  C           1     -20.787  -5.601  -5.265  0.00  0.00     0.081 C 
BRANCH   6   7
HETATM    7  C           1     -21.203  -5.108  -6.615  0.00  0.00    -0.056 A 
HETATM    8  C           1     -22.489  -4.603  -6.807  0.00  0.00     0.010 A 
HETATM    9  C           1     -22.877  -4.144  -8.065  0.00  0.00     0.038 A 
HETATM   10  C           1     -21.980  -4.188  -9.132  0.00  0.00     0.081 A 
HETATM   11  C           1     -20.694  -4.694  -8.940  0.00  0.00     0.038 A 
HETATM   12  C           1     -20.305  -5.154  -7.682  0.00  0.00     0.010 A 
BRANCH  10  13
HETATM   13  O           1     -22.357  -3.741 -10.354  0.00  0.00    -0.247 OA
BRANCH  13  14
HETATM   14  P           1     -23.737  -4.305 -10.975  0.00  0.00     0.411 P 
HETATM   15  O           1     -24.127  -5.544 -10.265  0.00  0.00    -0.624 OA
HETATM   16  O           1     -23.547  -4.598 -12.413  0.00  0.00    -0.624 OA
BRANCH  14  17
HETATM   17  O           1     -24.899  -3.197 -10.801  0.00  0.00    -0.300 OA
HETATM   18  H           1     -24.623  -2.667 -10.073  0.00  0.00     0.223 HD
ENDBRANCH  14  17
ENDBRANCH  13  14
ENDBRANCH  10  13
ENDBRANCH   6   7
ENDBRANCH   1   6
BRANCH   1  19
HETATM   19  C           1     -20.368  -7.675  -3.978  0.00  0.00     0.249 C 
HETATM   20  O           1     -20.778  -7.042  -3.034  0.00  0.00    -0.271 OA
HETATM   21  N           1     -19.883  -8.943  -3.794  0.00  0.00    -0.345 N 
HETATM   22  H           1     -19.540  -9.473  -4.585  0.00  0.00     0.163 HD
BRANCH  21  23
HETATM   23  C           1     -19.861  -9.524  -2.466  0.00  0.00     0.186 C 
BRANCH  23  24
HETATM   24  C           1     -18.545 -10.230  -2.249  0.00  0.00     0.196 C 
HETATM   25  O           1     -17.484  -9.715  -2.663  0.00  0.00    -0.646 OA
HETATM   26  O           1     -18.517 -11.330  -1.655  0.00  0.00    -0.646 OA
ENDBRANCH  23  24
BRANCH  23  27
HETATM   27  C           1     -21.001 -10.525  -2.331  0.00  0.00     0.046 C 
BRANCH  27  28
HETATM   28  C           1     -22.133  -9.901  -1.525  0.00  0.00     0.076 C 
BRANCH  28  29
HETATM   29  S           1     -21.451  -9.076  -0.060  0.00  0.00    -0.173 SA
HETATM   30  C           1     -22.973  -8.202   0.401  0.00  0.00     0.089 C 
ENDBRANCH  28  29
ENDBRANCH  27  28
ENDBRANCH  23  27
ENDBRANCH  21  23
ENDBRANCH   1  19
TORSDOF 12
ENDMDL
