MODEL 1
REMARK VINA RESULT:      -5.5      0.000      0.000
REMARK  4 active torsions:
REMARK  status: ('A' for Active; 'I' for Inactive)
REMARK    1  A    between atoms: C_1  and  C_8 
REMARK    2  A    between atoms: C_1  and  N_3 
REMARK    3  A    between atoms: N_7  and  C_12 
REMARK       I    between atoms: N_7  and  C_8 
REMARK    4  A    between atoms: C_11  and  C_12 
ROOT
HETATM    1  O           1     -36.048  -1.765 -11.931  0.00  0.00    -0.271 OA
HETATM    2  N           1     -34.783  -1.498 -13.751  0.00  0.00    -0.345 N 
HETATM    3  C           1     -35.116  -2.151 -12.595  0.00  0.00     0.248 C 
HETATM    4  H           1     -34.002  -1.820 -14.308  0.00  0.00     0.163 HD
ENDROOT
BRANCH   3   5
HETATM    5  C           1     -34.317  -3.351 -12.150  0.00  0.00     0.270 C 
HETATM    6  C           1     -33.225  -2.906 -11.187  0.00  0.00     0.050 C 
BRANCH   5   7
HETATM    7  N           1     -33.692  -4.005 -13.347  0.00  0.00    -0.067 N 
HETATM    8  H           1     -33.078  -4.791 -13.033  0.00  0.00     0.275 HD
HETATM    9  H           1     -34.442  -4.379 -13.971  0.00  0.00     0.275 HD
HETATM   10  H           1     -33.120  -3.304 -13.869  0.00  0.00     0.275 HD
ENDBRANCH   5   7
ENDBRANCH   3   5
BRANCH   2  11
HETATM   11  C           1     -35.551  -0.343 -14.179  0.00  0.00     0.181 C 
HETATM   12  C           1     -34.786   0.929 -13.837  0.00  0.00     0.043 C 
BRANCH  11  13
HETATM   13  C           1     -35.773  -0.413 -15.670  0.00  0.00     0.196 C 
HETATM   14  O           1     -35.090  -1.192 -16.368  0.00  0.00    -0.646 OA
HETATM   15  O           1     -36.642   0.309 -16.206  0.00  0.00    -0.646 OA
ENDBRANCH  11  13
ENDBRANCH   2  11
TORSDOF 4
ENDMDL
MODEL 2
REMARK VINA RESULT:      -5.3      2.042      4.884
REMARK  4 active torsions:
REMARK  status: ('A' for Active; 'I' for Inactive)
REMARK    1  A    between atoms: C_1  and  C_8 
REMARK    2  A    between atoms: C_1  and  N_3 
REMARK    3  A    between atoms: N_7  and  C_12 
REMARK       I    between atoms: N_7  and  C_8 
REMARK    4  A    between atoms: C_11  and  C_12 
ROOT
HETATM    1  O           1     -35.044  -1.911 -14.162  0.00  0.00    -0.271 OA
HETATM    2  N           1     -34.833  -2.013 -11.941  0.00  0.00    -0.345 N 
HETATM    3  C           1     -35.145  -1.350 -13.098  0.00  0.00     0.248 C 
HETATM    4  H           1     -34.917  -1.543 -11.049  0.00  0.00     0.163 HD
ENDROOT
BRANCH   3   5
HETATM    5  C           1     -35.616   0.083 -13.042  0.00  0.00     0.270 C 
HETATM    6  C           1     -34.674   0.959 -13.858  0.00  0.00     0.050 C 
BRANCH   5   7
HETATM    7  N           1     -35.622   0.550 -11.616  0.00  0.00    -0.067 N 
HETATM    8  H           1     -34.817   0.121 -11.105  0.00  0.00     0.275 HD
HETATM    9  H           1     -35.533   1.591 -11.591  0.00  0.00     0.275 HD
HETATM   10  H           1     -36.517   0.265 -11.159  0.00  0.00     0.275 HD
ENDBRANCH   5   7
ENDBRANCH   3   5
BRANCH   2  11
HETATM   11  C           1     -34.381  -3.390 -11.995  0.00  0.00     0.181 C 
HETATM   12  C           1     -32.921  -3.462 -11.565  0.00  0.00     0.043 C 
BRANCH  11  13
HETATM   13  C           1     -35.221  -4.231 -11.066  0.00  0.00     0.196 C 
HETATM   14  O           1     -36.338  -3.817 -10.687  0.00  0.00    -0.646 OA
HETATM   15  O           1     -34.801  -5.342 -10.676  0.00  0.00    -0.646 OA
ENDBRANCH  11  13
ENDBRANCH   2  11
TORSDOF 4
ENDMDL
MODEL 3
REMARK VINA RESULT:      -5.3      9.576     10.505
REMARK  4 active torsions:
REMARK  status: ('A' for Active; 'I' for Inactive)
REMARK    1  A    between atoms: C_1  and  C_8 
REMARK    2  A    between atoms: C_1  and  N_3 
REMARK    3  A    between atoms: N_7  and  C_12 
REMARK       I    between atoms: N_7  and  C_8 
REMARK    4  A    between atoms: C_11  and  C_12 
ROOT
HETATM    1  O           1     -25.939  -7.386 -15.306  0.00  0.00    -0.271 OA
HETATM    2  N           1     -26.904  -6.473 -17.100  0.00  0.00    -0.345 N 
HETATM    3  C           1     -25.816  -6.963 -16.430  0.00  0.00     0.248 C 
HETATM    4  H           1     -26.801  -6.117 -18.042  0.00  0.00     0.163 HD
ENDROOT
BRANCH   3   5
HETATM    5  C           1     -24.462  -6.973 -17.096  0.00  0.00     0.270 C 
HETATM    6  C           1     -24.639  -7.086 -18.605  0.00  0.00     0.050 C 
BRANCH   5   7
HETATM    7  N           1     -23.669  -8.144 -16.597  0.00  0.00    -0.067 N 
HETATM    8  H           1     -23.663  -8.896 -17.323  0.00  0.00     0.275 HD
HETATM    9  H           1     -22.687  -7.842 -16.403  0.00  0.00     0.275 HD
HETATM   10  H           1     -24.102  -8.510 -15.719  0.00  0.00     0.275 HD
ENDBRANCH   5   7
ENDBRANCH   3   5
BRANCH   2  11
HETATM   11  C           1     -28.206  -6.462 -16.460  0.00  0.00     0.181 C 
HETATM   12  C           1     -28.539  -5.046 -16.012  0.00  0.00     0.043 C 
BRANCH  11  13
HETATM   13  C           1     -29.250  -6.940 -17.438  0.00  0.00     0.196 C 
HETATM   14  O           1     -29.683  -8.111 -17.370  0.00  0.00    -0.646 OA
HETATM   15  O           1     -29.683  -6.165 -18.319  0.00  0.00    -0.646 OA
ENDBRANCH  11  13
ENDBRANCH   2  11
TORSDOF 4
ENDMDL
MODEL 4
REMARK VINA RESULT:      -5.2     12.799     14.341
REMARK  4 active torsions:
REMARK  status: ('A' for Active; 'I' for Inactive)
REMARK    1  A    between atoms: C_1  and  C_8 
REMARK    2  A    between atoms: C_1  and  N_3 
REMARK    3  A    between atoms: N_7  and  C_12 
REMARK       I    between atoms: N_7  and  C_8 
REMARK    4  A    between atoms: C_11  and  C_12 
ROOT
HETATM    1  O           1     -21.539  -3.239  -7.285  0.00  0.00    -0.271 OA
HETATM    2  N           1     -21.845  -4.703  -8.943  0.00  0.00    -0.345 N 
HETATM    3  C           1     -21.483  -4.385  -7.661  0.00  0.00     0.248 C 
HETATM    4  H           1     -21.797  -5.664  -9.258  0.00  0.00     0.163 HD
ENDROOT
BRANCH   3   5
HETATM    5  C           1     -21.013  -5.467  -6.720  0.00  0.00     0.270 C 
HETATM    6  C           1     -20.360  -4.831  -5.500  0.00  0.00     0.050 C 
BRANCH   5   7
HETATM    7  N           1     -20.015  -6.340  -7.421  0.00  0.00    -0.067 N 
HETATM    8  H           1     -19.752  -7.138  -6.799  0.00  0.00     0.275 HD
HETATM    9  H           1     -20.436  -6.712  -8.302  0.00  0.00     0.275 HD
HETATM   10  H           1     -19.163  -5.781  -7.651  0.00  0.00     0.275 HD
ENDBRANCH   5   7
ENDBRANCH   3   5
BRANCH   2  11
HETATM   11  C           1     -22.296  -3.664  -9.848  0.00  0.00     0.181 C 
HETATM   12  C           1     -21.365  -3.600 -11.051  0.00  0.00     0.043 C 
BRANCH  11  13
HETATM   13  C           1     -23.698  -3.975 -10.311  0.00  0.00     0.196 C 
HETATM   14  O           1     -24.467  -3.048 -10.642  0.00  0.00    -0.646 OA
HETATM   15  O           1     -24.090  -5.162 -10.363  0.00  0.00    -0.646 OA
ENDBRANCH  11  13
ENDBRANCH   2  11
TORSDOF 4
ENDMDL
MODEL 5
REMARK VINA RESULT:      -5.2     10.042     10.858
REMARK  4 active torsions:
REMARK  status: ('A' for Active; 'I' for Inactive)
REMARK    1  A    between atoms: C_1  and  C_8 
REMARK    2  A    between atoms: C_1  and  N_3 
REMARK    3  A    between atoms: N_7  and  C_12 
REMARK       I    between atoms: N_7  and  C_8 
REMARK    4  A    between atoms: C_11  and  C_12 
ROOT
HETATM    1  O           1     -26.072  -6.153 -17.657  0.00  0.00    -0.271 OA
HETATM    2  N           1     -27.708  -6.627 -19.100  0.00  0.00    -0.345 N 
HETATM    3  C           1     -26.385  -6.521 -18.763  0.00  0.00     0.248 C 
HETATM    4  H           1     -27.971  -6.935 -20.028  0.00  0.00     0.163 HD
ENDROOT
BRANCH   3   5
HETATM    5  C           1     -25.319  -6.866 -19.774  0.00  0.00     0.270 C 
HETATM    6  C           1     -25.916  -7.754 -20.858  0.00  0.00     0.050 C 
BRANCH   5   7
HETATM    7  N           1     -24.201  -7.595 -19.092  0.00  0.00    -0.067 N 
HETATM    8  H           1     -24.518  -8.557 -18.833  0.00  0.00     0.275 HD
HETATM    9  H           1     -23.383  -7.662 -19.739  0.00  0.00     0.275 HD
HETATM   10  H           1     -23.921  -7.076 -18.229  0.00  0.00     0.275 HD
ENDBRANCH   5   7
ENDBRANCH   3   5
BRANCH   2  11
HETATM   11  C           1     -28.733  -6.295 -18.129  0.00  0.00     0.181 C 
HETATM   12  C           1     -29.294  -4.913 -18.434  0.00  0.00     0.043 C 
BRANCH  11  13
HETATM   13  C           1     -29.841  -7.316 -18.201  0.00  0.00     0.196 C 
HETATM   14  O           1     -29.711  -8.331 -18.919  0.00  0.00    -0.646 OA
HETATM   15  O           1     -30.890  -7.148 -17.541  0.00  0.00    -0.646 OA
ENDBRANCH  11  13
ENDBRANCH   2  11
TORSDOF 4
ENDMDL
MODEL 6
REMARK VINA RESULT:      -5.0      9.948     10.954
REMARK  4 active torsions:
REMARK  status: ('A' for Active; 'I' for Inactive)
REMARK    1  A    between atoms: C_1  and  C_8 
REMARK    2  A    between atoms: C_1  and  N_3 
REMARK    3  A    between atoms: N_7  and  C_12 
REMARK       I    between atoms: N_7  and  C_8 
REMARK    4  A    between atoms: C_11  and  C_12 
ROOT
HETATM    1  O           1     -27.176  -6.622 -19.980  0.00  0.00    -0.271 OA
HETATM    2  N           1     -26.626  -6.402 -17.827  0.00  0.00    -0.345 N 
HETATM    3  C           1     -26.307  -6.614 -19.142  0.00  0.00     0.248 C 
HETATM    4  H           1     -25.898  -6.396 -17.124  0.00  0.00     0.163 HD
ENDROOT
BRANCH   3   5
HETATM    5  C           1     -24.869  -6.839 -19.542  0.00  0.00     0.270 C 
HETATM    6  C           1     -24.818  -7.737 -20.771  0.00  0.00     0.050 C 
BRANCH   5   7
HETATM    7  N           1     -24.134  -7.497 -18.412  0.00  0.00    -0.067 N 
HETATM    8  H           1     -23.159  -7.723 -18.715  0.00  0.00     0.275 HD
HETATM    9  H           1     -24.101  -6.849 -17.593  0.00  0.00     0.275 HD
HETATM   10  H           1     -24.627  -8.378 -18.141  0.00  0.00     0.275 HD
ENDBRANCH   5   7
ENDBRANCH   3   5
BRANCH   2  11
HETATM   11  C           1     -28.008  -6.187 -17.442  0.00  0.00     0.181 C 
HETATM   12  C           1     -28.265  -6.839 -16.090  0.00  0.00     0.043 C 
BRANCH  11  13
HETATM   13  C           1     -28.277  -4.705 -17.346  0.00  0.00     0.196 C 
HETATM   14  O           1     -29.072  -4.161 -18.142  0.00  0.00    -0.646 OA
HETATM   15  O           1     -27.704  -4.021 -16.470  0.00  0.00    -0.646 OA
ENDBRANCH  11  13
ENDBRANCH   2  11
TORSDOF 4
ENDMDL
MODEL 7
REMARK VINA RESULT:      -4.7     12.981     14.261
REMARK  4 active torsions:
REMARK  status: ('A' for Active; 'I' for Inactive)
REMARK    1  A    between atoms: C_1  and  C_8 
REMARK    2  A    between atoms: C_1  and  N_3 
REMARK    3  A    between atoms: N_7  and  C_12 
REMARK       I    between atoms: N_7  and  C_8 
REMARK    4  A    between atoms: C_11  and  C_12 
ROOT
HETATM    1  O           1     -20.740  -5.347  -8.532  0.00  0.00    -0.271 OA
HETATM    2  N           1     -22.582  -4.382  -9.346  0.00  0.00    -0.345 N 
HETATM    3  C           1     -21.786  -4.787  -8.308  0.00  0.00     0.248 C 
HETATM    4  H           1     -23.459  -3.914  -9.158  0.00  0.00     0.163 HD
ENDROOT
BRANCH   3   5
HETATM    5  C           1     -22.217  -4.535  -6.884  0.00  0.00     0.270 C 
HETATM    6  C           1     -21.669  -5.635  -5.985  0.00  0.00     0.050 C 
BRANCH   5   7
HETATM    7  N           1     -23.715  -4.531  -6.809  0.00  0.00    -0.067 N 
HETATM    8  H           1     -24.023  -5.030  -5.944  0.00  0.00     0.275 HD
HETATM    9  H           1     -24.060  -3.544  -6.782  0.00  0.00     0.275 HD
HETATM   10  H           1     -24.108  -5.014  -7.649  0.00  0.00     0.275 HD
ENDBRANCH   5   7
ENDBRANCH   3   5
BRANCH   2  11
HETATM   11  C           1     -22.168  -4.625 -10.714  0.00  0.00     0.181 C 
HETATM   12  C           1     -23.399  -4.823 -11.589  0.00  0.00     0.043 C 
BRANCH  11  13
HETATM   13  C           1     -21.378  -3.442 -11.217  0.00  0.00     0.196 C 
HETATM   14  O           1     -20.129  -3.489 -11.240  0.00  0.00    -0.646 OA
HETATM   15  O           1     -21.972  -2.414 -11.609  0.00  0.00    -0.646 OA
ENDBRANCH  11  13
ENDBRANCH   2  11
TORSDOF 4
ENDMDL
MODEL 8
REMARK VINA RESULT:      -4.6      7.472      8.413
REMARK  4 active torsions:
REMARK  status: ('A' for Active; 'I' for Inactive)
REMARK    1  A    between atoms: C_1  and  C_8 
REMARK    2  A    between atoms: C_1  and  N_3 
REMARK    3  A    between atoms: N_7  and  C_12 
REMARK       I    between atoms: N_7  and  C_8 
REMARK    4  A    between atoms: C_11  and  C_12 
ROOT
HETATM    1  O           1     -28.013  -5.864 -18.692  0.00  0.00    -0.271 OA
HETATM    2  N           1     -29.249  -5.685 -16.841  0.00  0.00    -0.345 N 
HETATM    3  C           1     -28.057  -5.880 -17.485  0.00  0.00     0.248 C 
HETATM    4  H           1     -29.287  -5.698 -15.830  0.00  0.00     0.163 HD
ENDROOT
BRANCH   3   5
HETATM    5  C           1     -26.798  -6.114 -16.686  0.00  0.00     0.270 C 
HETATM    6  C           1     -25.661  -6.486 -17.628  0.00  0.00     0.050 C 
BRANCH   5   7
HETATM    7  N           1     -27.026  -7.232 -15.713  0.00  0.00    -0.067 N 
HETATM    8  H           1     -27.705  -6.924 -14.980  0.00  0.00     0.275 HD
HETATM    9  H           1     -27.414  -8.061 -16.218  0.00  0.00     0.275 HD
HETATM   10  H           1     -26.120  -7.491 -15.261  0.00  0.00     0.275 HD
ENDBRANCH   5   7
ENDBRANCH   3   5
BRANCH   2  11
HETATM   11  C           1     -30.460  -5.460 -17.608  0.00  0.00     0.181 C 
HETATM   12  C           1     -31.388  -6.657 -17.454  0.00  0.00     0.043 C 
BRANCH  11  13
HETATM   13  C           1     -31.150  -4.217 -17.103  0.00  0.00     0.196 C 
HETATM   14  O           1     -30.745  -3.089 -17.457  0.00  0.00    -0.646 OA
HETATM   15  O           1     -32.128  -4.316 -16.331  0.00  0.00    -0.646 OA
ENDBRANCH  11  13
ENDBRANCH   2  11
TORSDOF 4
ENDMDL
MODEL 9
REMARK VINA RESULT:      -4.6     12.852     14.267
REMARK  4 active torsions:
REMARK  status: ('A' for Active; 'I' for Inactive)
REMARK    1  A    between atoms: C_1  and  C_8 
REMARK    2  A    between atoms: C_1  and  N_3 
REMARK    3  A    between atoms: N_7  and  C_12 
REMARK       I    between atoms: N_7  and  C_8 
REMARK    4  A    between atoms: C_11  and  C_12 
ROOT
HETATM    1  O           1     -21.748  -5.730  -8.111  0.00  0.00    -0.271 OA
HETATM    2  N           1     -22.312  -3.665  -8.747  0.00  0.00    -0.345 N 
HETATM    3  C           1     -21.558  -4.541  -8.013  0.00  0.00     0.248 C 
HETATM    4  H           1     -22.153  -2.669  -8.665  0.00  0.00     0.163 HD
ENDROOT
BRANCH   3   5
HETATM    5  C           1     -20.490  -4.021  -7.082  0.00  0.00     0.270 C 
HETATM    6  C           1     -19.117  -4.300  -7.678  0.00  0.00     0.050 C 
BRANCH   5   7
HETATM    7  N           1     -20.607  -4.709  -5.755  0.00  0.00    -0.067 N 
HETATM    8  H           1     -20.186  -5.664  -5.818  0.00  0.00     0.275 HD
HETATM    9  H           1     -20.100  -4.154  -5.029  0.00  0.00     0.275 HD
HETATM   10  H           1     -21.616  -4.790  -5.491  0.00  0.00     0.275 HD
ENDBRANCH   5   7
ENDBRANCH   3   5
BRANCH   2  11
HETATM   11  C           1     -23.339  -4.164  -9.641  0.00  0.00     0.181 C 
HETATM   12  C           1     -24.604  -3.333  -9.475  0.00  0.00     0.043 C 
BRANCH  11  13
HETATM   13  C           1     -22.854  -4.064 -11.067  0.00  0.00     0.196 C 
HETATM   14  O           1     -23.318  -4.828 -11.940  0.00  0.00    -0.646 OA
HETATM   15  O           1     -21.988  -3.216 -11.374  0.00  0.00    -0.646 OA
ENDBRANCH  11  13
ENDBRANCH   2  11
TORSDOF 4
ENDMDL
