MODEL 1
REMARK VINA RESULT:      -6.6      0.000      0.000
REMARK  5 active torsions:
REMARK  status: ('A' for Active; 'I' for Inactive)
REMARK    1  A    between atoms: C_4  and  C_13 
REMARK    2  A    between atoms: C_4  and  C_18 
REMARK       I    between atoms: C_7  and  N_15 
REMARK    3  A    between atoms: C_7  and  C_16 
REMARK    4  A    between atoms: C_8  and  C_18 
REMARK    5  A    between atoms: N_15  and  C_18 
ROOT
HETATM    1  H           1     -34.738  -0.855 -11.447  0.00  0.00     0.163 HD
HETATM    2  C           1     -34.228  -2.543 -12.531  0.00  0.00     0.251 C 
HETATM    3  O           1     -34.398  -3.144 -13.565  0.00  0.00    -0.271 OA
HETATM    4  N           1     -34.880  -1.358 -12.313  0.00  0.00    -0.344 N 
ENDROOT
BRANCH   4   5
HETATM    5  C           1     -35.774  -0.827 -13.323  0.00  0.00     0.195 C 
BRANCH   5   6
HETATM    6  C           1     -36.992  -0.210 -12.651  0.00  0.00     0.149 C 
BRANCH   6   7
HETATM    7  C           1     -36.868  -0.353 -11.154  0.00  0.00     0.175 C 
HETATM    8  O           1     -36.362   0.568 -10.479  0.00  0.00    -0.648 OA
HETATM    9  O           1     -37.272  -1.393 -10.590  0.00  0.00    -0.648 OA
ENDBRANCH   6   7
ENDBRANCH   5   6
BRANCH   5  10
HETATM   10  C           1     -35.053   0.229 -14.125  0.00  0.00     0.197 C 
HETATM   11  O           1     -34.776   0.019 -15.327  0.00  0.00    -0.646 OA
HETATM   12  O           1     -34.734   1.312 -13.590  0.00  0.00    -0.646 OA
ENDBRANCH   5  10
ENDBRANCH   4   5
BRANCH   2  13
HETATM   13  C           1     -33.298  -3.097 -11.479  0.00  0.00     0.311 C 
HETATM   14  N           1     -34.038  -3.467 -10.276  0.00  0.00     0.097 N 
HETATM   15  C           1     -34.656  -4.751 -10.591  0.00  0.00     0.271 C 
HETATM   16  H           1     -33.406  -3.579  -9.483  0.00  0.00     0.317 HD
HETATM   17  C           1     -33.575  -5.494 -11.360  0.00  0.00     0.033 C 
HETATM   18  C           1     -32.681  -4.405 -11.940  0.00  0.00     0.047 C 
ENDBRANCH   2  13
TORSDOF 5
ENDMDL
MODEL 2
REMARK VINA RESULT:      -6.1      2.187      5.253
REMARK  5 active torsions:
REMARK  status: ('A' for Active; 'I' for Inactive)
REMARK    1  A    between atoms: C_4  and  C_13 
REMARK    2  A    between atoms: C_4  and  C_18 
REMARK       I    between atoms: C_7  and  N_15 
REMARK    3  A    between atoms: C_7  and  C_16 
REMARK    4  A    between atoms: C_8  and  C_18 
REMARK    5  A    between atoms: N_15  and  C_18 
ROOT
HETATM    1  H           1     -33.909  -1.115 -13.309  0.00  0.00     0.163 HD
HETATM    2  C           1     -35.940  -0.751 -13.469  0.00  0.00     0.251 C 
HETATM    3  O           1     -37.032  -1.023 -13.029  0.00  0.00    -0.271 OA
HETATM    4  N           1     -34.823  -1.343 -12.941  0.00  0.00    -0.344 N 
ENDROOT
BRANCH   4   5
HETATM    5  C           1     -34.952  -2.295 -11.855  0.00  0.00     0.195 C 
BRANCH   5   6
HETATM    6  C           1     -33.985  -3.449 -12.073  0.00  0.00     0.149 C 
BRANCH   6   7
HETATM    7  C           1     -34.423  -4.256 -13.271  0.00  0.00     0.175 C 
HETATM    8  O           1     -35.062  -5.318 -13.108  0.00  0.00    -0.648 OA
HETATM    9  O           1     -34.148  -3.862 -14.425  0.00  0.00    -0.648 OA
ENDBRANCH   6   7
ENDBRANCH   5   6
BRANCH   5  10
HETATM   10  C           1     -34.634  -1.611 -10.548  0.00  0.00     0.197 C 
HETATM   11  O           1     -35.530  -0.993  -9.933  0.00  0.00    -0.646 OA
HETATM   12  O           1     -33.476  -1.663 -10.081  0.00  0.00    -0.646 OA
ENDBRANCH   5  10
ENDBRANCH   4   5
BRANCH   2  13
HETATM   13  C           1     -35.806   0.239 -14.599  0.00  0.00     0.311 C 
HETATM   14  N           1     -34.817  -0.215 -15.573  0.00  0.00     0.097 N 
HETATM   15  C           1     -35.508  -1.227 -16.368  0.00  0.00     0.271 C 
HETATM   16  H           1     -34.527   0.553 -16.178  0.00  0.00     0.317 HD
HETATM   17  C           1     -36.899  -0.648 -16.563  0.00  0.00     0.033 C 
HETATM   18  C           1     -37.093   0.319 -15.402  0.00  0.00     0.047 C 
ENDBRANCH   2  13
TORSDOF 5
ENDMDL
MODEL 3
REMARK VINA RESULT:      -6.1      1.702      2.228
REMARK  5 active torsions:
REMARK  status: ('A' for Active; 'I' for Inactive)
REMARK    1  A    between atoms: C_4  and  C_13 
REMARK    2  A    between atoms: C_4  and  C_18 
REMARK       I    between atoms: C_7  and  N_15 
REMARK    3  A    between atoms: C_7  and  C_16 
REMARK    4  A    between atoms: C_8  and  C_18 
REMARK    5  A    between atoms: N_15  and  C_18 
ROOT
HETATM    1  H           1     -34.555  -0.817 -10.968  0.00  0.00     0.163 HD
HETATM    2  C           1     -35.364  -2.701 -10.683  0.00  0.00     0.251 C 
HETATM    3  O           1     -36.380  -3.354 -10.695  0.00  0.00    -0.271 OA
HETATM    4  N           1     -35.406  -1.364 -10.978  0.00  0.00    -0.344 N 
ENDROOT
BRANCH   4   5
HETATM    5  C           1     -36.671  -0.733 -11.303  0.00  0.00     0.195 C 
BRANCH   5   6
HETATM    6  C           1     -36.872   0.490 -10.419  0.00  0.00     0.149 C 
BRANCH   6   7
HETATM    7  C           1     -36.817   0.078  -8.969  0.00  0.00     0.175 C 
HETATM    8  O           1     -35.745   0.170  -8.333  0.00  0.00    -0.648 OA
HETATM    9  O           1     -37.843  -0.357  -8.403  0.00  0.00    -0.648 OA
ENDBRANCH   6   7
ENDBRANCH   5   6
BRANCH   5  10
HETATM   10  C           1     -36.663  -0.311 -12.752  0.00  0.00     0.197 C 
HETATM   11  O           1     -35.777   0.466 -13.170  0.00  0.00    -0.646 OA
HETATM   12  O           1     -37.540  -0.738 -13.533  0.00  0.00    -0.646 OA
ENDBRANCH   5  10
ENDBRANCH   4   5
BRANCH   2  13
HETATM   13  C           1     -34.048  -3.357 -10.344  0.00  0.00     0.311 C 
HETATM   14  N           1     -34.162  -4.811 -10.410  0.00  0.00     0.097 N 
HETATM   15  C           1     -34.102  -5.131 -11.833  0.00  0.00     0.271 C 
HETATM   16  H           1     -33.381  -5.257  -9.928  0.00  0.00     0.317 HD
HETATM   17  C           1     -33.034  -4.194 -12.371  0.00  0.00     0.033 C 
HETATM   18  C           1     -32.996  -3.030 -11.389  0.00  0.00     0.047 C 
ENDBRANCH   2  13
TORSDOF 5
ENDMDL
MODEL 4
REMARK VINA RESULT:      -6.0     12.141     13.835
REMARK  5 active torsions:
REMARK  status: ('A' for Active; 'I' for Inactive)
REMARK    1  A    between atoms: C_4  and  C_13 
REMARK    2  A    between atoms: C_4  and  C_18 
REMARK       I    between atoms: C_7  and  N_15 
REMARK    3  A    between atoms: C_7  and  C_16 
REMARK    4  A    between atoms: C_8  and  C_18 
REMARK    5  A    between atoms: N_15  and  C_18 
ROOT
HETATM    1  H           1     -22.968  -3.673  -8.965  0.00  0.00     0.163 HD
HETATM    2  C           1     -21.207  -4.539  -8.306  0.00  0.00     0.251 C 
HETATM    3  O           1     -20.227  -5.163  -8.635  0.00  0.00    -0.271 OA
HETATM    4  N           1     -22.147  -4.196  -9.241  0.00  0.00    -0.344 N 
ENDROOT
BRANCH   4   5
HETATM    5  C           1     -21.964  -4.582 -10.627  0.00  0.00     0.195 C 
BRANCH   5   6
HETATM    6  C           1     -23.322  -4.722 -11.299  0.00  0.00     0.149 C 
BRANCH   6   7
HETATM    7  C           1     -24.386  -4.116 -10.418  0.00  0.00     0.175 C 
HETATM    8  O           1     -24.998  -4.832  -9.596  0.00  0.00    -0.648 OA
HETATM    9  O           1     -24.656  -2.899 -10.510  0.00  0.00    -0.648 OA
ENDBRANCH   6   7
ENDBRANCH   5   6
BRANCH   5  10
HETATM   10  C           1     -21.156  -3.526 -11.340  0.00  0.00     0.197 C 
HETATM   11  O           1     -21.704  -2.464 -11.708  0.00  0.00    -0.646 OA
HETATM   12  O           1     -19.940  -3.712 -11.561  0.00  0.00    -0.646 OA
ENDBRANCH   5  10
ENDBRANCH   4   5
BRANCH   2  13
HETATM   13  C           1     -21.398  -4.138  -6.863  0.00  0.00     0.311 C 
HETATM   14  N           1     -22.496  -4.886  -6.257  0.00  0.00     0.097 N 
HETATM   15  C           1     -21.936  -6.199  -5.953  0.00  0.00     0.271 C 
HETATM   16  H           1     -22.804  -4.439  -5.394  0.00  0.00     0.317 HD
HETATM   17  C           1     -20.542  -5.887  -5.434  0.00  0.00     0.033 C 
HETATM   18  C           1     -20.191  -4.530  -6.030  0.00  0.00     0.047 C 
ENDBRANCH   2  13
TORSDOF 5
ENDMDL
MODEL 5
REMARK VINA RESULT:      -5.6     12.135     14.034
REMARK  5 active torsions:
REMARK  status: ('A' for Active; 'I' for Inactive)
REMARK    1  A    between atoms: C_4  and  C_13 
REMARK    2  A    between atoms: C_4  and  C_18 
REMARK       I    between atoms: C_7  and  N_15 
REMARK    3  A    between atoms: C_7  and  C_16 
REMARK    4  A    between atoms: C_8  and  C_18 
REMARK    5  A    between atoms: N_15  and  C_18 
ROOT
HETATM    1  H           1     -21.729  -5.061  -9.624  0.00  0.00     0.163 HD
HETATM    2  C           1     -22.318  -4.807  -7.656  0.00  0.00     0.251 C 
HETATM    3  O           1     -23.016  -4.166  -6.907  0.00  0.00    -0.271 OA
HETATM    4  N           1     -22.314  -4.524  -8.997  0.00  0.00    -0.344 N 
ENDROOT
BRANCH   4   5
HETATM    5  C           1     -23.146  -3.456  -9.515  0.00  0.00     0.195 C 
BRANCH   5   6
HETATM    6  C           1     -22.478  -2.836 -10.734  0.00  0.00     0.149 C 
BRANCH   6   7
HETATM    7  C           1     -21.456  -3.796 -11.291  0.00  0.00     0.175 C 
HETATM    8  O           1     -21.814  -4.709 -12.066  0.00  0.00    -0.648 OA
HETATM    9  O           1     -20.251  -3.678 -10.977  0.00  0.00    -0.648 OA
ENDBRANCH   6   7
ENDBRANCH   5   6
BRANCH   5  10
HETATM   10  C           1     -24.492  -4.015  -9.908  0.00  0.00     0.197 C 
HETATM   11  O           1     -24.606  -5.229 -10.188  0.00  0.00    -0.646 OA
HETATM   12  O           1     -25.491  -3.266  -9.954  0.00  0.00    -0.646 OA
ENDBRANCH   5  10
ENDBRANCH   4   5
BRANCH   2  13
HETATM   13  C           1     -21.451  -5.918  -7.117  0.00  0.00     0.311 C 
HETATM   14  N           1     -20.112  -5.859  -7.697  0.00  0.00     0.097 N 
HETATM   15  C           1     -19.429  -4.796  -6.967  0.00  0.00     0.271 C 
HETATM   16  H           1     -19.619  -6.741  -7.556  0.00  0.00     0.317 HD
HETATM   17  C           1     -19.880  -4.996  -5.529  0.00  0.00     0.033 C 
HETATM   18  C           1     -21.207  -5.737  -5.629  0.00  0.00     0.047 C 
ENDBRANCH   2  13
TORSDOF 5
ENDMDL
MODEL 6
REMARK VINA RESULT:      -5.3      9.692     11.772
REMARK  5 active torsions:
REMARK  status: ('A' for Active; 'I' for Inactive)
REMARK    1  A    between atoms: C_4  and  C_13 
REMARK    2  A    between atoms: C_4  and  C_18 
REMARK       I    between atoms: C_7  and  N_15 
REMARK    3  A    between atoms: C_7  and  C_16 
REMARK    4  A    between atoms: C_8  and  C_18 
REMARK    5  A    between atoms: N_15  and  C_18 
ROOT
HETATM    1  H           1     -26.201  -5.626 -17.737  0.00  0.00     0.163 HD
HETATM    2  C           1     -27.402  -6.621 -19.098  0.00  0.00     0.251 C 
HETATM    3  O           1     -28.401  -7.286 -19.235  0.00  0.00    -0.271 OA
HETATM    4  N           1     -27.038  -6.183 -17.852  0.00  0.00    -0.344 N 
ENDROOT
BRANCH   4   5
HETATM    5  C           1     -27.852  -6.517 -16.700  0.00  0.00     0.195 C 
BRANCH   5   6
HETATM    6  C           1     -26.967  -7.079 -15.597  0.00  0.00     0.149 C 
BRANCH   6   7
HETATM    7  C           1     -25.520  -6.794 -15.918  0.00  0.00     0.175 C 
HETATM    8  O           1     -24.745  -7.735 -16.194  0.00  0.00    -0.648 OA
HETATM    9  O           1     -25.097  -5.618 -15.907  0.00  0.00    -0.648 OA
ENDBRANCH   6   7
ENDBRANCH   5   6
BRANCH   5  10
HETATM   10  C           1     -28.549  -5.274 -16.202  0.00  0.00     0.197 C 
HETATM   11  O           1     -27.961  -4.171 -16.239  0.00  0.00    -0.646 OA
HETATM   12  O           1     -29.713  -5.348 -15.752  0.00  0.00    -0.646 OA
ENDBRANCH   5  10
ENDBRANCH   4   5
BRANCH   2  13
HETATM   13  C           1     -26.554  -6.275 -20.297  0.00  0.00     0.311 C 
HETATM   14  N           1     -25.151  -6.134 -19.918  0.00  0.00     0.097 N 
HETATM   15  C           1     -24.653  -7.501 -19.798  0.00  0.00     0.271 C 
HETATM   16  H           1     -24.629  -5.644 -20.643  0.00  0.00     0.317 HD
HETATM   17  C           1     -25.297  -8.226 -20.969  0.00  0.00     0.033 C 
HETATM   18  C           1     -26.545  -7.416 -21.299  0.00  0.00     0.047 C 
ENDBRANCH   2  13
TORSDOF 5
ENDMDL
MODEL 7
REMARK VINA RESULT:      -5.2     15.053     17.163
REMARK  5 active torsions:
REMARK  status: ('A' for Active; 'I' for Inactive)
REMARK    1  A    between atoms: C_4  and  C_13 
REMARK    2  A    between atoms: C_4  and  C_18 
REMARK       I    between atoms: C_7  and  N_15 
REMARK    3  A    between atoms: C_7  and  C_16 
REMARK    4  A    between atoms: C_8  and  C_18 
REMARK    5  A    between atoms: N_15  and  C_18 
ROOT
HETATM    1  H           1     -19.922  -6.227  -4.422  0.00  0.00     0.163 HD
HETATM    2  C           1     -21.416  -5.394  -5.588  0.00  0.00     0.251 C 
HETATM    3  O           1     -22.589  -5.435  -5.872  0.00  0.00    -0.271 OA
HETATM    4  N           1     -20.905  -6.262  -4.660  0.00  0.00    -0.344 N 
ENDROOT
BRANCH   4   5
HETATM    5  C           1     -21.773  -7.231  -4.019  0.00  0.00     0.195 C 
BRANCH   5   6
HETATM    6  C           1     -21.248  -8.635  -4.278  0.00  0.00     0.149 C 
BRANCH   6   7
HETATM    7  C           1     -19.814  -8.559  -4.742  0.00  0.00     0.175 C 
HETATM    8  O           1     -19.558  -8.326  -5.943  0.00  0.00    -0.648 OA
HETATM    9  O           1     -18.883  -8.730  -3.926  0.00  0.00    -0.648 OA
ENDBRANCH   6   7
ENDBRANCH   5   6
BRANCH   5  10
HETATM   10  C           1     -21.803  -6.971  -2.533  0.00  0.00     0.197 C 
HETATM   11  O           1     -21.387  -7.842  -1.738  0.00  0.00    -0.646 OA
HETATM   12  O           1     -22.244  -5.886  -2.096  0.00  0.00    -0.646 OA
ENDBRANCH   5  10
ENDBRANCH   4   5
BRANCH   2  13
HETATM   13  C           1     -20.512  -4.387  -6.256  0.00  0.00     0.311 C 
HETATM   14  N           1     -19.473  -5.057  -7.033  0.00  0.00     0.097 N 
HETATM   15  C           1     -20.134  -5.474  -8.266  0.00  0.00     0.271 C 
HETATM   16  H           1     -18.716  -4.411  -7.255  0.00  0.00     0.317 HD
HETATM   17  C           1     -21.031  -4.298  -8.614  0.00  0.00     0.033 C 
HETATM   18  C           1     -21.275  -3.580  -7.292  0.00  0.00     0.047 C 
ENDBRANCH   2  13
TORSDOF 5
ENDMDL
MODEL 8
REMARK VINA RESULT:      -5.2     12.818     14.561
REMARK  5 active torsions:
REMARK  status: ('A' for Active; 'I' for Inactive)
REMARK    1  A    between atoms: C_4  and  C_13 
REMARK    2  A    between atoms: C_4  and  C_18 
REMARK       I    between atoms: C_7  and  N_15 
REMARK    3  A    between atoms: C_7  and  C_16 
REMARK    4  A    between atoms: C_8  and  C_18 
REMARK    5  A    between atoms: N_15  and  C_18 
ROOT
HETATM    1  H           1     -20.720  -5.858  -8.476  0.00  0.00     0.163 HD
HETATM    2  C           1     -20.899  -4.394  -7.024  0.00  0.00     0.251 C 
HETATM    3  O           1     -21.287  -3.275  -6.790  0.00  0.00    -0.271 OA
HETATM    4  N           1     -21.045  -4.920  -8.280  0.00  0.00    -0.344 N 
ENDROOT
BRANCH   4   5
HETATM    5  C           1     -21.664  -4.133  -9.328  0.00  0.00     0.195 C 
BRANCH   5   6
HETATM    6  C           1     -21.016  -4.464 -10.665  0.00  0.00     0.149 C 
BRANCH   6   7
HETATM    7  C           1     -21.516  -3.507 -11.719  0.00  0.00     0.175 C 
HETATM    8  O           1     -22.060  -3.947 -12.754  0.00  0.00    -0.648 OA
HETATM    9  O           1     -21.384  -2.275 -11.557  0.00  0.00    -0.648 OA
ENDBRANCH   6   7
ENDBRANCH   5   6
BRANCH   5  10
HETATM   10  C           1     -23.138  -4.452  -9.391  0.00  0.00     0.197 C 
HETATM   11  O           1     -23.547  -5.370 -10.134  0.00  0.00    -0.646 OA
HETATM   12  O           1     -23.949  -3.799  -8.700  0.00  0.00    -0.646 OA
ENDBRANCH   5  10
ENDBRANCH   4   5
BRANCH   2  13
HETATM   13  C           1     -20.254  -5.214  -5.934  0.00  0.00     0.311 C 
HETATM   14  N           1     -21.129  -5.307  -4.768  0.00  0.00     0.097 N 
HETATM   15  C           1     -22.120  -6.319  -5.120  0.00  0.00     0.271 C 
HETATM   16  H           1     -20.606  -5.614  -3.948  0.00  0.00     0.317 HD
HETATM   17  C           1     -21.311  -7.384  -5.842  0.00  0.00     0.033 C 
HETATM   18  C           1     -20.082  -6.657  -6.373  0.00  0.00     0.047 C 
ENDBRANCH   2  13
TORSDOF 5
ENDMDL
MODEL 9
REMARK VINA RESULT:      -4.9     10.043     12.075
REMARK  5 active torsions:
REMARK  status: ('A' for Active; 'I' for Inactive)
REMARK    1  A    between atoms: C_4  and  C_13 
REMARK    2  A    between atoms: C_4  and  C_18 
REMARK       I    between atoms: C_7  and  N_15 
REMARK    3  A    between atoms: C_7  and  C_16 
REMARK    4  A    between atoms: C_8  and  C_18 
REMARK    5  A    between atoms: N_15  and  C_18 
ROOT
HETATM    1  H           1     -27.293  -6.920 -18.486  0.00  0.00     0.163 HD
HETATM    2  C           1     -25.224  -6.905 -18.541  0.00  0.00     0.251 C 
HETATM    3  O           1     -24.221  -6.573 -17.957  0.00  0.00    -0.271 OA
HETATM    4  N           1     -26.453  -6.642 -17.996  0.00  0.00    -0.344 N 
ENDROOT
BRANCH   4   5
HETATM    5  C           1     -26.549  -5.964 -16.718  0.00  0.00     0.195 C 
BRANCH   5   6
HETATM    6  C           1     -27.853  -5.183 -16.652  0.00  0.00     0.149 C 
BRANCH   6   7
HETATM    7  C           1     -28.731  -5.569 -17.817  0.00  0.00     0.175 C 
HETATM    8  O           1     -28.866  -4.788 -18.783  0.00  0.00    -0.648 OA
HETATM    9  O           1     -29.324  -6.670 -17.815  0.00  0.00    -0.648 OA
ENDBRANCH   6   7
ENDBRANCH   5   6
BRANCH   5  10
HETATM   10  C           1     -26.515  -6.983 -15.606  0.00  0.00     0.197 C 
HETATM   11  O           1     -25.418  -7.363 -15.140  0.00  0.00    -0.646 OA
HETATM   12  O           1     -27.582  -7.448 -15.151  0.00  0.00    -0.646 OA
ENDBRANCH   5  10
ENDBRANCH   4   5
BRANCH   2  13
HETATM   13  C           1     -25.125  -7.610 -19.872  0.00  0.00     0.311 C 
HETATM   14  N           1     -26.422  -7.637 -20.543  0.00  0.00     0.097 N 
HETATM   15  C           1     -26.580  -6.303 -21.114  0.00  0.00     0.271 C 
HETATM   16  H           1     -26.427  -8.330 -21.291  0.00  0.00     0.317 HD
HETATM   17  C           1     -25.195  -5.969 -21.644  0.00  0.00     0.033 C 
HETATM   18  C           1     -24.240  -6.832 -20.830  0.00  0.00     0.047 C 
ENDBRANCH   2  13
TORSDOF 5
ENDMDL
