MODEL 1
REMARK VINA RESULT:      -6.7      0.000      0.000
REMARK  12 active torsions:
REMARK  status: ('A' for Active; 'I' for Inactive)
REMARK    1  A    between atoms: C_3  and  C_25 
REMARK    2  A    between atoms: C_3  and  C_12 
REMARK    3  A    between atoms: C_5  and  C_12 
REMARK    4  A    between atoms: C_5  and  C_21 
REMARK    5  A    between atoms: C_5  and  N_7 
REMARK       I    between atoms: N_7  and  C_8 
REMARK    6  A    between atoms: C_8  and  C_20 
REMARK    7  A    between atoms: C_10  and  C_26 
REMARK    8  A    between atoms: C_10  and  C_22 
REMARK    9  A    between atoms: C_17  and  C_22 
REMARK   10  A    between atoms: C_17  and  N_18 
REMARK   11  A    between atoms: N_19  and  C_20 
REMARK   12  A    between atoms: C_20  and  C_26 
ROOT
HETATM    1  O           1     -26.210  -5.956 -17.297  0.00  0.00    -0.271 OA
HETATM    2  N           1     -27.641  -6.506 -18.920  0.00  0.00    -0.345 N 
HETATM    3  C           1     -26.373  -6.334 -18.432  0.00  0.00     0.249 C 
HETATM    4  H           1     -27.779  -6.823 -19.870  0.00  0.00     0.163 HD
ENDROOT
BRANCH   3   5
HETATM    5  C           1     -25.182  -6.618 -19.312  0.00  0.00     0.274 C 
BRANCH   5   6
HETATM    6  N           1     -24.310  -7.648 -18.657  0.00  0.00    -0.067 N 
HETATM    7  H           1     -24.852  -8.533 -18.531  0.00  0.00     0.275 HD
HETATM    8  H           1     -23.996  -7.296 -17.724  0.00  0.00     0.275 HD
HETATM    9  H           1     -23.476  -7.833 -19.259  0.00  0.00     0.275 HD
ENDBRANCH   5   6
BRANCH   5  10
HETATM   10  C           1     -25.659  -7.141 -20.661  0.00  0.00     0.042 C 
BRANCH  10  11
HETATM   11  C           1     -24.710  -8.227 -21.149  0.00  0.00     0.004 C 
BRANCH  11  12
HETATM   12  C           1     -24.052  -7.781 -22.448  0.00  0.00     0.027 C 
BRANCH  12  13
HETATM   13  C           1     -22.701  -8.469 -22.596  0.00  0.00     0.229 C 
BRANCH  13  14
HETATM   14  N           1     -22.404  -9.262 -21.359  0.00  0.00    -0.079 N 
HETATM   15  H           1     -21.785 -10.067 -21.601  0.00  0.00     0.274 HD
HETATM   16  H           1     -21.923  -8.650 -20.661  0.00  0.00     0.274 HD
HETATM   17  H           1     -23.298  -9.620 -20.952  0.00  0.00     0.274 HD
ENDBRANCH  13  14
ENDBRANCH  12  13
ENDBRANCH  11  12
ENDBRANCH  10  11
ENDBRANCH   5  10
ENDBRANCH   3   5
BRANCH   2  18
HETATM   18  C           1     -28.787  -6.234 -18.074  0.00  0.00     0.186 C 
BRANCH  18  19
HETATM   19  C           1     -29.455  -4.942 -18.525  0.00  0.00     0.046 C 
BRANCH  19  20
HETATM   20  C           1     -29.732  -4.062 -17.313  0.00  0.00     0.116 C 
BRANCH  20  21
HETATM   21  C           1     -31.218  -3.827 -17.191  0.00  0.00     0.172 C 
HETATM   22  O           1     -31.886  -4.465 -16.349  0.00  0.00    -0.648 OA
HETATM   23  O           1     -31.781  -2.993 -17.932  0.00  0.00    -0.648 OA
ENDBRANCH  20  21
ENDBRANCH  19  20
ENDBRANCH  18  19
BRANCH  18  24
HETATM   24  C           1     -29.770  -7.373 -18.177  0.00  0.00     0.196 C 
HETATM   25  O           1     -29.587  -8.283 -19.015  0.00  0.00    -0.646 OA
HETATM   26  O           1     -30.767  -7.409 -17.425  0.00  0.00    -0.646 OA
ENDBRANCH  18  24
ENDBRANCH   2  18
TORSDOF 12
ENDMDL
MODEL 2
REMARK VINA RESULT:      -6.6     10.479     12.074
REMARK  12 active torsions:
REMARK  status: ('A' for Active; 'I' for Inactive)
REMARK    1  A    between atoms: C_3  and  C_25 
REMARK    2  A    between atoms: C_3  and  C_12 
REMARK    3  A    between atoms: C_5  and  C_12 
REMARK    4  A    between atoms: C_5  and  C_21 
REMARK    5  A    between atoms: C_5  and  N_7 
REMARK       I    between atoms: N_7  and  C_8 
REMARK    6  A    between atoms: C_8  and  C_20 
REMARK    7  A    between atoms: C_10  and  C_26 
REMARK    8  A    between atoms: C_10  and  C_22 
REMARK    9  A    between atoms: C_17  and  C_22 
REMARK   10  A    between atoms: C_17  and  N_18 
REMARK   11  A    between atoms: N_19  and  C_20 
REMARK   12  A    between atoms: C_20  and  C_26 
ROOT
HETATM    1  O           1     -34.531  -3.069 -13.439  0.00  0.00    -0.271 OA
HETATM    2  N           1     -34.975  -1.229 -12.256  0.00  0.00    -0.345 N 
HETATM    3  C           1     -34.336  -2.426 -12.435  0.00  0.00     0.249 C 
HETATM    4  H           1     -34.813  -0.689 -11.416  0.00  0.00     0.163 HD
ENDROOT
BRANCH   3   5
HETATM    5  C           1     -33.389  -2.940 -11.380  0.00  0.00     0.274 C 
BRANCH   5   6
HETATM    6  N           1     -33.951  -2.652 -10.020  0.00  0.00    -0.067 N 
HETATM    7  H           1     -34.368  -1.693 -10.012  0.00  0.00     0.275 HD
HETATM    8  H           1     -33.188  -2.707  -9.309  0.00  0.00     0.275 HD
HETATM    9  H           1     -34.692  -3.354  -9.792  0.00  0.00     0.275 HD
ENDBRANCH   5   6
BRANCH   5  10
HETATM   10  C           1     -33.210  -4.444 -11.547  0.00  0.00     0.042 C 
BRANCH  10  11
HETATM   11  C           1     -34.029  -5.173 -10.491  0.00  0.00     0.004 C 
BRANCH  11  12
HETATM   12  C           1     -34.532  -6.494 -11.058  0.00  0.00     0.027 C 
BRANCH  12  13
HETATM   13  C           1     -34.652  -7.516  -9.936  0.00  0.00     0.229 C 
BRANCH  13  14
HETATM   14  N           1     -33.741  -8.675 -10.213  0.00  0.00    -0.079 N 
HETATM   15  H           1     -33.010  -8.729  -9.469  0.00  0.00     0.274 HD
HETATM   16  H           1     -34.297  -9.560 -10.220  0.00  0.00     0.274 HD
HETATM   17  H           1     -33.284  -8.543 -11.143  0.00  0.00     0.274 HD
ENDBRANCH  13  14
ENDBRANCH  12  13
ENDBRANCH  11  12
ENDBRANCH  10  11
ENDBRANCH   5  10
ENDBRANCH   3   5
BRANCH   2  18
HETATM   18  C           1     -35.886  -0.733 -13.270  0.00  0.00     0.186 C 
BRANCH  18  19
HETATM   19  C           1     -37.023   0.029 -12.602  0.00  0.00     0.046 C 
BRANCH  19  20
HETATM   20  C           1     -37.415  -0.672 -11.308  0.00  0.00     0.116 C 
BRANCH  20  21
HETATM   21  C           1     -36.968   0.159 -10.130  0.00  0.00     0.172 C 
HETATM   22  O           1     -37.576   1.213  -9.842  0.00  0.00    -0.648 OA
HETATM   23  O           1     -35.991  -0.207  -9.443  0.00  0.00    -0.648 OA
ENDBRANCH  20  21
ENDBRANCH  19  20
ENDBRANCH  18  19
BRANCH  18  24
HETATM   24  C           1     -35.143   0.187 -14.205  0.00  0.00     0.196 C 
HETATM   25  O           1     -34.897  -0.176 -15.376  0.00  0.00    -0.646 OA
HETATM   26  O           1     -34.774   1.315 -13.812  0.00  0.00    -0.646 OA
ENDBRANCH  18  24
ENDBRANCH   2  18
TORSDOF 12
ENDMDL
MODEL 3
REMARK VINA RESULT:      -5.9     14.285     15.825
REMARK  12 active torsions:
REMARK  status: ('A' for Active; 'I' for Inactive)
REMARK    1  A    between atoms: C_3  and  C_25 
REMARK    2  A    between atoms: C_3  and  C_12 
REMARK    3  A    between atoms: C_5  and  C_12 
REMARK    4  A    between atoms: C_5  and  C_21 
REMARK    5  A    between atoms: C_5  and  N_7 
REMARK       I    between atoms: N_7  and  C_8 
REMARK    6  A    between atoms: C_8  and  C_20 
REMARK    7  A    between atoms: C_10  and  C_26 
REMARK    8  A    between atoms: C_10  and  C_22 
REMARK    9  A    between atoms: C_17  and  C_22 
REMARK   10  A    between atoms: C_17  and  N_18 
REMARK   11  A    between atoms: N_19  and  C_20 
REMARK   12  A    between atoms: C_20  and  C_26 
ROOT
HETATM    1  O           1     -19.833  -7.317  -6.009  0.00  0.00    -0.271 OA
HETATM    2  N           1     -21.578  -7.762  -4.690  0.00  0.00    -0.345 N 
HETATM    3  C           1     -20.952  -7.027  -5.661  0.00  0.00     0.249 C 
HETATM    4  H           1     -22.516  -7.520  -4.398  0.00  0.00     0.163 HD
ENDROOT
BRANCH   3   5
HETATM    5  C           1     -21.661  -5.855  -6.293  0.00  0.00     0.274 C 
BRANCH   5   6
HETATM    6  N           1     -22.963  -5.619  -5.588  0.00  0.00    -0.067 N 
HETATM    7  H           1     -22.806  -5.627  -4.555  0.00  0.00     0.275 HD
HETATM    8  H           1     -23.640  -6.373  -5.844  0.00  0.00     0.275 HD
HETATM    9  H           1     -23.352  -4.691  -5.874  0.00  0.00     0.275 HD
ENDBRANCH   5   6
BRANCH   5  10
HETATM   10  C           1     -20.789  -4.612  -6.179  0.00  0.00     0.042 C 
BRANCH  10  11
HETATM   11  C           1     -21.178  -3.616  -7.263  0.00  0.00     0.004 C 
BRANCH  11  12
HETATM   12  C           1     -21.553  -4.369  -8.534  0.00  0.00     0.027 C 
BRANCH  12  13
HETATM   13  C           1     -22.720  -3.666  -9.215  0.00  0.00     0.229 C 
BRANCH  13  14
HETATM   14  N           1     -23.967  -3.869  -8.408  0.00  0.00    -0.079 N 
HETATM   15  H           1     -23.716  -3.975  -7.400  0.00  0.00     0.274 HD
HETATM   16  H           1     -24.595  -3.041  -8.526  0.00  0.00     0.274 HD
HETATM   17  H           1     -24.458  -4.730  -8.738  0.00  0.00     0.274 HD
ENDBRANCH  13  14
ENDBRANCH  12  13
ENDBRANCH  11  12
ENDBRANCH  10  11
ENDBRANCH   5  10
ENDBRANCH   3   5
BRANCH   2  18
HETATM   18  C           1     -20.898  -8.889  -4.082  0.00  0.00     0.186 C 
BRANCH  18  19
HETATM   19  C           1     -21.232  -8.942  -2.597  0.00  0.00     0.046 C 
BRANCH  19  20
HETATM   20  C           1     -20.837  -7.627  -1.939  0.00  0.00     0.116 C 
BRANCH  20  21
HETATM   21  C           1     -22.072  -6.795  -1.693  0.00  0.00     0.172 C 
HETATM   22  O           1     -22.423  -5.936  -2.530  0.00  0.00    -0.648 OA
HETATM   23  O           1     -22.744  -6.966  -0.654  0.00  0.00    -0.648 OA
ENDBRANCH  20  21
ENDBRANCH  19  20
ENDBRANCH  18  19
BRANCH  18  24
HETATM   24  C           1     -21.348 -10.166  -4.746  0.00  0.00     0.196 C 
HETATM   25  O           1     -20.896 -10.481  -5.869  0.00  0.00    -0.646 OA
HETATM   26  O           1     -22.172 -10.912  -4.174  0.00  0.00    -0.646 OA
ENDBRANCH  18  24
ENDBRANCH   2  18
TORSDOF 12
ENDMDL
MODEL 4
REMARK VINA RESULT:      -5.8      1.717      2.737
REMARK  12 active torsions:
REMARK  status: ('A' for Active; 'I' for Inactive)
REMARK    1  A    between atoms: C_3  and  C_25 
REMARK    2  A    between atoms: C_3  and  C_12 
REMARK    3  A    between atoms: C_5  and  C_12 
REMARK    4  A    between atoms: C_5  and  C_21 
REMARK    5  A    between atoms: C_5  and  N_7 
REMARK       I    between atoms: N_7  and  C_8 
REMARK    6  A    between atoms: C_8  and  C_20 
REMARK    7  A    between atoms: C_10  and  C_26 
REMARK    8  A    between atoms: C_10  and  C_22 
REMARK    9  A    between atoms: C_17  and  C_22 
REMARK   10  A    between atoms: C_17  and  N_18 
REMARK   11  A    between atoms: N_19  and  C_20 
REMARK   12  A    between atoms: C_20  and  C_26 
ROOT
HETATM    1  O           1     -25.337  -5.496 -15.832  0.00  0.00    -0.271 OA
HETATM    2  N           1     -26.918  -6.258 -17.211  0.00  0.00    -0.345 N 
HETATM    3  C           1     -25.611  -6.129 -16.823  0.00  0.00     0.249 C 
HETATM    4  H           1     -27.149  -6.789 -18.041  0.00  0.00     0.163 HD
ENDROOT
BRANCH   3   5
HETATM    5  C           1     -24.517  -6.779 -17.632  0.00  0.00     0.274 C 
BRANCH   5   6
HETATM    6  N           1     -24.219  -8.137 -17.070  0.00  0.00    -0.067 N 
HETATM    7  H           1     -23.349  -8.514 -17.512  0.00  0.00     0.275 HD
HETATM    8  H           1     -25.018  -8.780 -17.269  0.00  0.00     0.275 HD
HETATM    9  H           1     -24.080  -8.065 -16.036  0.00  0.00     0.275 HD
ENDBRANCH   5   6
BRANCH   5  10
HETATM   10  C           1     -24.968  -6.917 -19.080  0.00  0.00     0.042 C 
BRANCH  10  11
HETATM   11  C           1     -24.071  -7.916 -19.798  0.00  0.00     0.004 C 
BRANCH  11  12
HETATM   12  C           1     -24.413  -7.932 -21.282  0.00  0.00     0.027 C 
BRANCH  12  13
HETATM   13  C           1     -23.186  -8.347 -22.083  0.00  0.00     0.229 C 
BRANCH  13  14
HETATM   14  N           1     -22.263  -9.142 -21.208  0.00  0.00    -0.079 N 
HETATM   15  H           1     -22.336 -10.155 -21.456  0.00  0.00     0.274 HD
HETATM   16  H           1     -21.280  -8.818 -21.354  0.00  0.00     0.274 HD
HETATM   17  H           1     -22.530  -9.008 -20.207  0.00  0.00     0.274 HD
ENDBRANCH  13  14
ENDBRANCH  12  13
ENDBRANCH  11  12
ENDBRANCH  10  11
ENDBRANCH   5  10
ENDBRANCH   3   5
BRANCH   2  18
HETATM   18  C           1     -27.971  -5.635 -16.434  0.00  0.00     0.186 C 
BRANCH  18  19
HETATM   19  C           1     -29.177  -5.376 -17.328  0.00  0.00     0.046 C 
BRANCH  19  20
HETATM   20  C           1     -29.157  -6.345 -18.503  0.00  0.00     0.116 C 
BRANCH  20  21
HETATM   21  C           1     -30.243  -7.377 -18.322  0.00  0.00     0.172 C 
HETATM   22  O           1     -31.139  -7.199 -17.468  0.00  0.00    -0.648 OA
HETATM   23  O           1     -30.247  -8.409 -19.026  0.00  0.00    -0.648 OA
ENDBRANCH  20  21
ENDBRANCH  19  20
ENDBRANCH  18  19
BRANCH  18  24
HETATM   24  C           1     -28.370  -6.550 -15.303  0.00  0.00     0.196 C 
HETATM   25  O           1     -29.265  -6.201 -14.503  0.00  0.00    -0.646 OA
HETATM   26  O           1     -27.807  -7.657 -15.166  0.00  0.00    -0.646 OA
ENDBRANCH  18  24
ENDBRANCH   2  18
TORSDOF 12
ENDMDL
MODEL 5
REMARK VINA RESULT:      -5.8     13.559     15.081
REMARK  12 active torsions:
REMARK  status: ('A' for Active; 'I' for Inactive)
REMARK    1  A    between atoms: C_3  and  C_25 
REMARK    2  A    between atoms: C_3  and  C_12 
REMARK    3  A    between atoms: C_5  and  C_12 
REMARK    4  A    between atoms: C_5  and  C_21 
REMARK    5  A    between atoms: C_5  and  N_7 
REMARK       I    between atoms: N_7  and  C_8 
REMARK    6  A    between atoms: C_8  and  C_20 
REMARK    7  A    between atoms: C_10  and  C_26 
REMARK    8  A    between atoms: C_10  and  C_22 
REMARK    9  A    between atoms: C_17  and  C_22 
REMARK   10  A    between atoms: C_17  and  N_18 
REMARK   11  A    between atoms: N_19  and  C_20 
REMARK   12  A    between atoms: C_20  and  C_26 
ROOT
HETATM    1  O           1     -20.365  -4.378  -5.733  0.00  0.00    -0.271 OA
HETATM    2  N           1     -21.133  -6.423  -6.194  0.00  0.00    -0.345 N 
HETATM    3  C           1     -20.901  -5.115  -6.526  0.00  0.00     0.249 C 
HETATM    4  H           1     -21.582  -7.041  -6.858  0.00  0.00     0.163 HD
ENDROOT
BRANCH   3   5
HETATM    5  C           1     -21.313  -4.595  -7.880  0.00  0.00     0.274 C 
BRANCH   5   6
HETATM    6  N           1     -22.274  -3.457  -7.707  0.00  0.00    -0.067 N 
HETATM    7  H           1     -21.842  -2.577  -8.071  0.00  0.00     0.275 HD
HETATM    8  H           1     -22.498  -3.341  -6.693  0.00  0.00     0.275 HD
HETATM    9  H           1     -23.153  -3.658  -8.237  0.00  0.00     0.275 HD
ENDBRANCH   5   6
BRANCH   5  10
HETATM   10  C           1     -20.083  -4.109  -8.635  0.00  0.00     0.042 C 
BRANCH  10  11
HETATM   11  C           1     -20.110  -4.654 -10.056  0.00  0.00     0.004 C 
BRANCH  11  12
HETATM   12  C           1     -20.827  -3.665 -10.966  0.00  0.00     0.027 C 
BRANCH  12  13
HETATM   13  C           1     -21.891  -4.397 -11.774  0.00  0.00     0.229 C 
BRANCH  13  14
HETATM   14  N           1     -23.172  -4.437 -10.995  0.00  0.00    -0.079 N 
HETATM   15  H           1     -23.870  -3.799 -11.440  0.00  0.00     0.274 HD
HETATM   16  H           1     -23.545  -5.413 -10.991  0.00  0.00     0.274 HD
HETATM   17  H           1     -22.992  -4.127 -10.014  0.00  0.00     0.274 HD
ENDBRANCH  13  14
ENDBRANCH  12  13
ENDBRANCH  11  12
ENDBRANCH  10  11
ENDBRANCH   5  10
ENDBRANCH   3   5
BRANCH   2  18
HETATM   18  C           1     -20.736  -6.923  -4.893  0.00  0.00     0.186 C 
BRANCH  18  19
HETATM   19  C           1     -21.939  -6.914  -3.957  0.00  0.00     0.046 C 
BRANCH  19  20
HETATM   20  C           1     -21.582  -6.169  -2.678  0.00  0.00     0.116 C 
BRANCH  20  21
HETATM   21  C           1     -21.807  -7.073  -1.490  0.00  0.00     0.172 C 
HETATM   22  O           1     -21.026  -8.024  -1.271  0.00  0.00    -0.648 OA
HETATM   23  O           1     -22.774  -6.869  -0.725  0.00  0.00    -0.648 OA
ENDBRANCH  20  21
ENDBRANCH  19  20
ENDBRANCH  18  19
BRANCH  18  24
HETATM   24  C           1     -20.217  -8.332  -5.033  0.00  0.00     0.196 C 
HETATM   25  O           1     -20.810  -9.147  -5.772  0.00  0.00    -0.646 OA
HETATM   26  O           1     -19.193  -8.686  -4.410  0.00  0.00    -0.646 OA
ENDBRANCH  18  24
ENDBRANCH   2  18
TORSDOF 12
ENDMDL
MODEL 6
REMARK VINA RESULT:      -5.8      3.081      6.370
REMARK  12 active torsions:
REMARK  status: ('A' for Active; 'I' for Inactive)
REMARK    1  A    between atoms: C_3  and  C_25 
REMARK    2  A    between atoms: C_3  and  C_12 
REMARK    3  A    between atoms: C_5  and  C_12 
REMARK    4  A    between atoms: C_5  and  C_21 
REMARK    5  A    between atoms: C_5  and  N_7 
REMARK       I    between atoms: N_7  and  C_8 
REMARK    6  A    between atoms: C_8  and  C_20 
REMARK    7  A    between atoms: C_10  and  C_26 
REMARK    8  A    between atoms: C_10  and  C_22 
REMARK    9  A    between atoms: C_17  and  C_22 
REMARK   10  A    between atoms: C_17  and  N_18 
REMARK   11  A    between atoms: N_19  and  C_20 
REMARK   12  A    between atoms: C_20  and  C_26 
ROOT
HETATM    1  O           1     -28.091  -6.811 -15.859  0.00  0.00    -0.271 OA
HETATM    2  N           1     -26.927  -5.728 -17.426  0.00  0.00    -0.345 N 
HETATM    3  C           1     -27.936  -5.802 -16.504  0.00  0.00     0.249 C 
HETATM    4  H           1     -26.796  -4.883 -17.967  0.00  0.00     0.163 HD
ENDROOT
BRANCH   3   5
HETATM    5  C           1     -28.853  -4.623 -16.294  0.00  0.00     0.274 C 
BRANCH   5   6
HETATM    6  N           1     -28.800  -3.728 -17.497  0.00  0.00    -0.067 N 
HETATM    7  H           1     -28.516  -4.287 -18.334  0.00  0.00     0.275 HD
HETATM    8  H           1     -28.103  -2.967 -17.333  0.00  0.00     0.275 HD
HETATM    9  H           1     -29.743  -3.308 -17.661  0.00  0.00     0.275 HD
ENDBRANCH   5   6
BRANCH   5  10
HETATM   10  C           1     -30.280  -5.118 -16.093  0.00  0.00     0.042 C 
BRANCH  10  11
HETATM   11  C           1     -30.889  -5.473 -17.443  0.00  0.00     0.004 C 
BRANCH  11  12
HETATM   12  C           1     -31.245  -6.954 -17.466  0.00  0.00     0.027 C 
BRANCH  12  13
HETATM   13  C           1     -30.504  -7.636 -18.609  0.00  0.00     0.229 C 
BRANCH  13  14
HETATM   14  N           1     -29.420  -8.510 -18.052  0.00  0.00    -0.079 N 
HETATM   15  H           1     -29.785  -9.481 -17.927  0.00  0.00     0.274 HD
HETATM   16  H           1     -28.611  -8.525 -18.714  0.00  0.00     0.274 HD
HETATM   17  H           1     -29.109  -8.133 -17.129  0.00  0.00     0.274 HD
ENDBRANCH  13  14
ENDBRANCH  12  13
ENDBRANCH  11  12
ENDBRANCH  10  11
ENDBRANCH   5  10
ENDBRANCH   3   5
BRANCH   2  18
HETATM   18  C           1     -26.044  -6.861 -17.628  0.00  0.00     0.186 C 
BRANCH  18  19
HETATM   19  C           1     -25.361  -6.737 -18.983  0.00  0.00     0.046 C 
BRANCH  19  20
HETATM   20  C           1     -26.403  -6.832 -20.090  0.00  0.00     0.116 C 
BRANCH  20  21
HETATM   21  C           1     -26.024  -7.937 -21.045  0.00  0.00     0.172 C 
HETATM   22  O           1     -26.908  -8.681 -21.522  0.00  0.00    -0.648 OA
HETATM   23  O           1     -24.827  -8.108 -21.359  0.00  0.00    -0.648 OA
ENDBRANCH  20  21
ENDBRANCH  19  20
ENDBRANCH  18  19
BRANCH  18  24
HETATM   24  C           1     -25.002  -6.887 -16.538  0.00  0.00     0.196 C 
HETATM   25  O           1     -24.368  -7.938 -16.304  0.00  0.00    -0.646 OA
HETATM   26  O           1     -24.771  -5.857 -15.869  0.00  0.00    -0.646 OA
ENDBRANCH  18  24
ENDBRANCH   2  18
TORSDOF 12
ENDMDL
MODEL 7
REMARK VINA RESULT:      -5.8     12.573     14.244
REMARK  12 active torsions:
REMARK  status: ('A' for Active; 'I' for Inactive)
REMARK    1  A    between atoms: C_3  and  C_25 
REMARK    2  A    between atoms: C_3  and  C_12 
REMARK    3  A    between atoms: C_5  and  C_12 
REMARK    4  A    between atoms: C_5  and  C_21 
REMARK    5  A    between atoms: C_5  and  N_7 
REMARK       I    between atoms: N_7  and  C_8 
REMARK    6  A    between atoms: C_8  and  C_20 
REMARK    7  A    between atoms: C_10  and  C_26 
REMARK    8  A    between atoms: C_10  and  C_22 
REMARK    9  A    between atoms: C_17  and  C_22 
REMARK   10  A    between atoms: C_17  and  N_18 
REMARK   11  A    between atoms: N_19  and  C_20 
REMARK   12  A    between atoms: C_20  and  C_26 
ROOT
HETATM    1  O           1     -21.208  -7.238  -6.648  0.00  0.00    -0.271 OA
HETATM    2  N           1     -21.330  -5.011  -6.544  0.00  0.00    -0.345 N 
HETATM    3  C           1     -21.184  -6.243  -5.964  0.00  0.00     0.249 C 
HETATM    4  H           1     -21.309  -4.177  -5.972  0.00  0.00     0.163 HD
ENDROOT
BRANCH   3   5
HETATM    5  C           1     -20.993  -6.356  -4.472  0.00  0.00     0.274 C 
BRANCH   5   6
HETATM    6  N           1     -22.317  -6.200  -3.785  0.00  0.00    -0.067 N 
HETATM    7  H           1     -22.559  -7.089  -3.291  0.00  0.00     0.275 HD
HETATM    8  H           1     -23.053  -5.983  -4.494  0.00  0.00     0.275 HD
HETATM    9  H           1     -22.261  -5.420  -3.091  0.00  0.00     0.275 HD
ENDBRANCH   5   6
BRANCH   5  10
HETATM   10  C           1     -20.405  -7.720  -4.137  0.00  0.00     0.042 C 
BRANCH  10  11
HETATM   11  C           1     -21.393  -8.503  -3.283  0.00  0.00     0.004 C 
BRANCH  11  12
HETATM   12  C           1     -21.801  -9.776  -4.015  0.00  0.00     0.027 C 
BRANCH  12  13
HETATM   13  C           1     -20.628 -10.282  -4.845  0.00  0.00     0.229 C 
BRANCH  13  14
HETATM   14  N           1     -21.068 -10.479  -6.265  0.00  0.00    -0.079 N 
HETATM   15  H           1     -20.235 -10.676  -6.863  0.00  0.00     0.274 HD
HETATM   16  H           1     -21.731 -11.286  -6.314  0.00  0.00     0.274 HD
HETATM   17  H           1     -21.545  -9.614  -6.605  0.00  0.00     0.274 HD
ENDBRANCH  13  14
ENDBRANCH  12  13
ENDBRANCH  11  12
ENDBRANCH  10  11
ENDBRANCH   5  10
ENDBRANCH   3   5
BRANCH   2  18
HETATM   18  C           1     -21.513  -4.903  -7.978  0.00  0.00     0.186 C 
BRANCH  18  19
HETATM   19  C           1     -22.491  -3.775  -8.281  0.00  0.00     0.046 C 
BRANCH  19  20
HETATM   20  C           1     -23.679  -4.327  -9.059  0.00  0.00     0.116 C 
BRANCH  20  21
HETATM   21  C           1     -23.859  -3.535 -10.331  0.00  0.00     0.172 C 
HETATM   22  O           1     -22.862  -3.208 -11.011  0.00  0.00    -0.648 OA
HETATM   23  O           1     -25.005  -3.207 -10.705  0.00  0.00    -0.648 OA
ENDBRANCH  20  21
ENDBRANCH  19  20
ENDBRANCH  18  19
BRANCH  18  24
HETATM   24  C           1     -20.187  -4.609  -8.634  0.00  0.00     0.196 C 
HETATM   25  O           1     -20.055  -4.748  -9.869  0.00  0.00    -0.646 OA
HETATM   26  O           1     -19.219  -4.224  -7.943  0.00  0.00    -0.646 OA
ENDBRANCH  18  24
ENDBRANCH   2  18
TORSDOF 12
ENDMDL
MODEL 8
REMARK VINA RESULT:      -5.8     13.144     14.917
REMARK  12 active torsions:
REMARK  status: ('A' for Active; 'I' for Inactive)
REMARK    1  A    between atoms: C_3  and  C_25 
REMARK    2  A    between atoms: C_3  and  C_12 
REMARK    3  A    between atoms: C_5  and  C_12 
REMARK    4  A    between atoms: C_5  and  C_21 
REMARK    5  A    between atoms: C_5  and  N_7 
REMARK       I    between atoms: N_7  and  C_8 
REMARK    6  A    between atoms: C_8  and  C_20 
REMARK    7  A    between atoms: C_10  and  C_26 
REMARK    8  A    between atoms: C_10  and  C_22 
REMARK    9  A    between atoms: C_17  and  C_22 
REMARK   10  A    between atoms: C_17  and  N_18 
REMARK   11  A    between atoms: N_19  and  C_20 
REMARK   12  A    between atoms: C_20  and  C_26 
ROOT
HETATM    1  O           1     -21.173  -7.167  -6.768  0.00  0.00    -0.271 OA
HETATM    2  N           1     -21.357  -4.948  -6.614  0.00  0.00    -0.345 N 
HETATM    3  C           1     -21.189  -6.188  -6.060  0.00  0.00     0.249 C 
HETATM    4  H           1     -21.370  -4.127  -6.022  0.00  0.00     0.163 HD
ENDROOT
BRANCH   3   5
HETATM    5  C           1     -21.023  -6.332  -4.568  0.00  0.00     0.274 C 
BRANCH   5   6
HETATM    6  N           1     -22.355  -6.164  -3.899  0.00  0.00    -0.067 N 
HETATM    7  H           1     -22.306  -5.369  -3.221  0.00  0.00     0.275 HD
HETATM    8  H           1     -22.603  -7.042  -3.390  0.00  0.00     0.275 HD
HETATM    9  H           1     -23.085  -5.960  -4.620  0.00  0.00     0.275 HD
ENDBRANCH   5   6
BRANCH   5  10
HETATM   10  C           1     -20.467  -7.714  -4.249  0.00  0.00     0.042 C 
BRANCH  10  11
HETATM   11  C           1     -21.546  -8.553  -3.577  0.00  0.00     0.004 C 
BRANCH  11  12
HETATM   12  C           1     -20.987  -9.174  -2.304  0.00  0.00     0.027 C 
BRANCH  12  13
HETATM   13  C           1     -20.710  -8.079  -1.282  0.00  0.00     0.229 C 
BRANCH  13  14
HETATM   14  N           1     -22.004  -7.615  -0.682  0.00  0.00    -0.079 N 
HETATM   15  H           1     -21.906  -6.625  -0.364  0.00  0.00     0.274 HD
HETATM   16  H           1     -22.762  -7.679  -1.398  0.00  0.00     0.274 HD
HETATM   17  H           1     -22.244  -8.221   0.136  0.00  0.00     0.274 HD
ENDBRANCH  13  14
ENDBRANCH  12  13
ENDBRANCH  11  12
ENDBRANCH  10  11
ENDBRANCH   5  10
ENDBRANCH   3   5
BRANCH   2  18
HETATM   18  C           1     -21.515  -4.809  -8.048  0.00  0.00     0.186 C 
BRANCH  18  19
HETATM   19  C           1     -22.460  -3.651  -8.345  0.00  0.00     0.046 C 
BRANCH  19  20
HETATM   20  C           1     -23.724  -4.182  -9.007  0.00  0.00     0.116 C 
BRANCH  20  21
HETATM   21  C           1     -23.918  -3.503 -10.341  0.00  0.00     0.172 C 
HETATM   22  O           1     -25.070  -3.231 -10.743  0.00  0.00    -0.648 OA
HETATM   23  O           1     -22.926  -3.211 -11.043  0.00  0.00    -0.648 OA
ENDBRANCH  20  21
ENDBRANCH  19  20
ENDBRANCH  18  19
BRANCH  18  24
HETATM   24  C           1     -20.172  -4.538  -8.679  0.00  0.00     0.196 C 
HETATM   25  O           1     -19.230  -4.103  -7.981  0.00  0.00    -0.646 OA
HETATM   26  O           1     -19.999  -4.748  -9.898  0.00  0.00    -0.646 OA
ENDBRANCH  18  24
ENDBRANCH   2  18
TORSDOF 12
ENDMDL
MODEL 9
REMARK VINA RESULT:      -5.7     13.797     15.402
REMARK  12 active torsions:
REMARK  status: ('A' for Active; 'I' for Inactive)
REMARK    1  A    between atoms: C_3  and  C_25 
REMARK    2  A    between atoms: C_3  and  C_12 
REMARK    3  A    between atoms: C_5  and  C_12 
REMARK    4  A    between atoms: C_5  and  C_21 
REMARK    5  A    between atoms: C_5  and  N_7 
REMARK       I    between atoms: N_7  and  C_8 
REMARK    6  A    between atoms: C_8  and  C_20 
REMARK    7  A    between atoms: C_10  and  C_26 
REMARK    8  A    between atoms: C_10  and  C_22 
REMARK    9  A    between atoms: C_17  and  C_22 
REMARK   10  A    between atoms: C_17  and  N_18 
REMARK   11  A    between atoms: N_19  and  C_20 
REMARK   12  A    between atoms: C_20  and  C_26 
ROOT
HETATM    1  O           1     -19.888  -4.431  -5.079  0.00  0.00    -0.271 OA
HETATM    2  N           1     -21.226  -6.092  -5.736  0.00  0.00    -0.345 N 
HETATM    3  C           1     -20.618  -4.881  -5.929  0.00  0.00     0.249 C 
HETATM    4  H           1     -21.838  -6.471  -6.447  0.00  0.00     0.163 HD
ENDROOT
BRANCH   3   5
HETATM    5  C           1     -20.858  -4.112  -7.203  0.00  0.00     0.274 C 
BRANCH   5   6
HETATM    6  N           1     -19.915  -4.594  -8.265  0.00  0.00    -0.067 N 
HETATM    7  H           1     -19.900  -3.910  -9.055  0.00  0.00     0.275 HD
HETATM    8  H           1     -20.233  -5.526  -8.616  0.00  0.00     0.275 HD
HETATM    9  H           1     -18.954  -4.683  -7.863  0.00  0.00     0.275 HD
ENDBRANCH   5   6
BRANCH   5  10
HETATM   10  C           1     -22.294  -4.328  -7.665  0.00  0.00     0.042 C 
BRANCH  10  11
HETATM   11  C           1     -22.502  -3.650  -9.012  0.00  0.00     0.004 C 
BRANCH  11  12
HETATM   12  C           1     -23.134  -4.637  -9.986  0.00  0.00     0.027 C 
BRANCH  12  13
HETATM   13  C           1     -24.335  -3.986 -10.660  0.00  0.00     0.229 C 
BRANCH  13  14
HETATM   14  N           1     -25.331  -3.572  -9.620  0.00  0.00    -0.079 N 
HETATM   15  H           1     -24.929  -3.731  -8.669  0.00  0.00     0.274 HD
HETATM   16  H           1     -25.557  -2.559  -9.738  0.00  0.00     0.274 HD
HETATM   17  H           1     -26.203  -4.139  -9.728  0.00  0.00     0.274 HD
ENDBRANCH  13  14
ENDBRANCH  12  13
ENDBRANCH  11  12
ENDBRANCH  10  11
ENDBRANCH   5  10
ENDBRANCH   3   5
BRANCH   2  18
HETATM   18  C           1     -20.994  -6.833  -4.511  0.00  0.00     0.186 C 
BRANCH  18  19
HETATM   19  C           1     -22.225  -6.736  -3.618  0.00  0.00     0.046 C 
BRANCH  19  20
HETATM   20  C           1     -21.833  -6.130  -2.277  0.00  0.00     0.116 C 
BRANCH  20  21
HETATM   21  C           1     -21.988  -7.167  -1.191  0.00  0.00     0.172 C 
HETATM   22  O           1     -22.966  -7.118  -0.415  0.00  0.00    -0.648 OA
HETATM   23  O           1     -21.137  -8.074  -1.069  0.00  0.00    -0.648 OA
ENDBRANCH  20  21
ENDBRANCH  19  20
ENDBRANCH  18  19
BRANCH  18  24
HETATM   24  C           1     -20.725  -8.280  -4.842  0.00  0.00     0.196 C 
HETATM   25  O           1     -19.796  -8.581  -5.622  0.00  0.00    -0.646 OA
HETATM   26  O           1     -21.431  -9.179  -4.336  0.00  0.00    -0.646 OA
ENDBRANCH  18  24
ENDBRANCH   2  18
TORSDOF 12
ENDMDL
