MODEL 1
REMARK VINA RESULT:      -7.6      0.000      0.000
REMARK  8 active torsions:
REMARK  status: ('A' for Active; 'I' for Inactive)
REMARK    1  A    between atoms: N_3  and  C_13 
REMARK       I    between atoms: N_3  and  C_4 
REMARK    2  A    between atoms: C_4  and  C_5 
REMARK    3  A    between atoms: C_5  and  C_7 
REMARK    4  A    between atoms: C_5  and  N_25 
REMARK    5  A    between atoms: C_7  and  C_22 
REMARK    6  A    between atoms: C_13  and  C_16 
REMARK    7  A    between atoms: C_13  and  C_21 
REMARK    8  A    between atoms: C_15  and  C_21 
ROOT
HETATM    1  N           1     -33.231  -4.045 -14.202  0.00  0.00    -0.344 N 
HETATM    2  C           1     -33.751  -4.480 -15.392  0.00  0.00     0.249 C 
HETATM    3  H           1     -32.269  -3.735 -14.154  0.00  0.00     0.163 HD
HETATM    4  O           1     -34.899  -4.850 -15.450  0.00  0.00    -0.271 OA
ENDROOT
BRANCH   1   5
HETATM    5  C           1     -34.059  -4.030 -13.012  0.00  0.00     0.191 C 
BRANCH   5   6
HETATM    6  C           1     -34.657  -2.656 -12.832  0.00  0.00     0.197 C 
HETATM    7  O           1     -34.851  -2.205 -11.684  0.00  0.00    -0.646 OA
HETATM    8  O           1     -34.959  -1.971 -13.833  0.00  0.00    -0.646 OA
ENDBRANCH   5   6
BRANCH   5   9
HETATM    9  C           1     -33.208  -4.375 -11.797  0.00  0.00     0.094 C 
BRANCH   9  10
HETATM   10  C           1     -33.800  -5.553 -11.090  0.00  0.00     0.028 A 
HETATM   11  N           1     -33.268  -6.817 -11.102  0.00  0.00    -0.354 N 
HETATM   12  C           1     -34.083  -7.543 -10.371  0.00  0.00     0.180 A 
ATOM     13  HN          1     -32.420  -7.128 -11.577  1.00  0.00     0.166 HD
HETATM   14  N           1     -35.119  -6.796  -9.886  0.00  0.00    -0.360 N 
HETATM   15  C           1     -34.951  -5.518 -10.340  0.00  0.00     0.114 A 
HETATM   16  H           1     -35.901  -7.142  -9.277  0.00  0.00     0.166 HD
ENDBRANCH   9  10
ENDBRANCH   5   9
ENDBRANCH   1   5
BRANCH   2  17
HETATM   17  C           1     -32.890  -4.495 -16.632  0.00  0.00     0.278 C 
BRANCH  17  18
HETATM   18  C           1     -31.422  -4.474 -16.230  0.00  0.00     0.081 C 
BRANCH  18  19
HETATM   19  C           1     -30.644  -5.380 -17.134  0.00  0.00    -0.056 A 
HETATM   20  C           1     -31.080  -6.686 -17.355  0.00  0.00     0.007 A 
HETATM   21  C           1     -30.355  -7.530 -18.197  0.00  0.00     0.001 A 
HETATM   22  C           1     -29.194  -7.067 -18.817  0.00  0.00     0.000 A 
HETATM   23  C           1     -28.759  -5.762 -18.596  0.00  0.00     0.001 A 
HETATM   24  C           1     -29.483  -4.917 -17.754  0.00  0.00     0.007 A 
ENDBRANCH  18  19
ENDBRANCH  17  18
BRANCH  17  25
HETATM   25  N           1     -33.198  -3.289 -17.469  0.00  0.00    -0.066 N 
HETATM   26  H           1     -33.245  -2.444 -16.856  0.00  0.00     0.275 HD
HETATM   27  H           1     -32.446  -3.160 -18.183  0.00  0.00     0.275 HD
HETATM   28  H           1     -34.115  -3.424 -17.950  0.00  0.00     0.275 HD
ENDBRANCH  17  25
ENDBRANCH   2  17
TORSDOF 8
ENDMDL
MODEL 2
REMARK VINA RESULT:      -7.5     13.944     16.179
REMARK  8 active torsions:
REMARK  status: ('A' for Active; 'I' for Inactive)
REMARK    1  A    between atoms: N_3  and  C_13 
REMARK       I    between atoms: N_3  and  C_4 
REMARK    2  A    between atoms: C_4  and  C_5 
REMARK    3  A    between atoms: C_5  and  C_7 
REMARK    4  A    between atoms: C_5  and  N_25 
REMARK    5  A    between atoms: C_7  and  C_22 
REMARK    6  A    between atoms: C_13  and  C_16 
REMARK    7  A    between atoms: C_13  and  C_21 
REMARK    8  A    between atoms: C_15  and  C_21 
ROOT
HETATM    1  N           1     -21.633  -5.725  -5.682  0.00  0.00    -0.344 N 
HETATM    2  C           1     -21.493  -7.073  -5.482  0.00  0.00     0.249 C 
HETATM    3  H           1     -21.966  -5.134  -4.932  0.00  0.00     0.163 HD
HETATM    4  O           1     -21.095  -7.778  -6.378  0.00  0.00    -0.271 OA
ENDROOT
BRANCH   1   5
HETATM    5  C           1     -21.304  -5.146  -6.970  0.00  0.00     0.191 C 
BRANCH   5   6
HETATM    6  C           1     -19.856  -4.720  -6.975  0.00  0.00     0.197 C 
HETATM    7  O           1     -19.266  -4.526  -8.059  0.00  0.00    -0.646 OA
HETATM    8  O           1     -19.248  -4.563  -5.895  0.00  0.00    -0.646 OA
ENDBRANCH   5   6
BRANCH   5   9
HETATM    9  C           1     -22.190  -3.934  -7.223  0.00  0.00     0.094 C 
BRANCH   9  10
HETATM   10  C           1     -22.957  -4.132  -8.493  0.00  0.00     0.028 A 
HETATM   11  N           1     -24.247  -3.713  -8.696  0.00  0.00    -0.354 N 
HETATM   12  C           1     -24.540  -4.079  -9.924  0.00  0.00     0.180 A 
ATOM     13  HN          1     -24.851  -3.223  -8.036  1.00  0.00     0.166 HD
HETATM   14  N           1     -23.489  -4.715 -10.520  0.00  0.00    -0.360 N 
HETATM   15  C           1     -22.466  -4.757  -9.614  0.00  0.00     0.114 A 
HETATM   16  H           1     -23.471  -5.102 -11.496  0.00  0.00     0.166 HD
ENDBRANCH   9  10
ENDBRANCH   5   9
ENDBRANCH   1   5
BRANCH   2  17
HETATM   17  C           1     -21.835  -7.676  -4.142  0.00  0.00     0.278 C 
BRANCH  17  18
HETATM   18  C           1     -20.827  -7.209  -3.101  0.00  0.00     0.081 C 
BRANCH  18  19
HETATM   19  C           1     -21.294  -7.610  -1.736  0.00  0.00    -0.056 A 
HETATM   20  C           1     -20.662  -8.656  -1.064  0.00  0.00     0.007 A 
HETATM   21  C           1     -21.097  -9.030   0.209  0.00  0.00     0.001 A 
HETATM   22  C           1     -22.163  -8.358   0.807  0.00  0.00     0.000 A 
HETATM   23  C           1     -22.793  -7.312   0.134  0.00  0.00     0.001 A 
HETATM   24  C           1     -22.359  -6.937  -1.138  0.00  0.00     0.007 A 
ENDBRANCH  18  19
ENDBRANCH  17  18
BRANCH  17  25
HETATM   25  N           1     -21.793  -9.172  -4.242  0.00  0.00    -0.066 N 
HETATM   26  H           1     -22.331  -9.479  -5.084  0.00  0.00     0.275 HD
HETATM   27  H           1     -20.801  -9.488  -4.328  0.00  0.00     0.275 HD
HETATM   28  H           1     -22.218  -9.590  -3.384  0.00  0.00     0.275 HD
ENDBRANCH  17  25
ENDBRANCH   2  17
TORSDOF 8
ENDMDL
MODEL 3
REMARK VINA RESULT:      -7.3     14.032     15.182
REMARK  8 active torsions:
REMARK  status: ('A' for Active; 'I' for Inactive)
REMARK    1  A    between atoms: N_3  and  C_13 
REMARK       I    between atoms: N_3  and  C_4 
REMARK    2  A    between atoms: C_4  and  C_5 
REMARK    3  A    between atoms: C_5  and  C_7 
REMARK    4  A    between atoms: C_5  and  N_25 
REMARK    5  A    between atoms: C_7  and  C_22 
REMARK    6  A    between atoms: C_13  and  C_16 
REMARK    7  A    between atoms: C_13  and  C_21 
REMARK    8  A    between atoms: C_15  and  C_21 
ROOT
HETATM    1  N           1     -21.105  -7.356  -5.510  0.00  0.00    -0.344 N 
HETATM    2  C           1     -21.524  -6.053  -5.448  0.00  0.00     0.249 C 
HETATM    3  H           1     -21.253  -7.895  -6.353  0.00  0.00     0.163 HD
HETATM    4  O           1     -21.347  -5.409  -4.442  0.00  0.00    -0.271 OA
ENDROOT
BRANCH   1   5
HETATM    5  C           1     -20.449  -7.961  -4.367  0.00  0.00     0.191 C 
BRANCH   5   6
HETATM    6  C           1     -19.217  -8.701  -4.827  0.00  0.00     0.197 C 
HETATM    7  O           1     -18.965  -8.796  -6.047  0.00  0.00    -0.646 OA
HETATM    8  O           1     -18.450  -9.219  -3.988  0.00  0.00    -0.646 OA
ENDBRANCH   5   6
BRANCH   5   9
HETATM    9  C           1     -21.404  -8.937  -3.692  0.00  0.00     0.094 C 
BRANCH   9  10
HETATM   10  C           1     -21.760  -8.428  -2.331  0.00  0.00     0.028 A 
HETATM   11  N           1     -21.918  -7.103  -2.011  0.00  0.00    -0.354 N 
HETATM   12  C           1     -22.223  -7.090  -0.734  0.00  0.00     0.180 A 
ATOM     13  HN          1     -21.820  -6.301  -2.633  1.00  0.00     0.166 HD
HETATM   14  N           1     -22.269  -8.354  -0.217  0.00  0.00    -0.360 N 
HETATM   15  C           1     -21.973  -9.223  -1.230  0.00  0.00     0.114 A 
HETATM   16  H           1     -22.490  -8.610   0.777  0.00  0.00     0.166 HD
ENDBRANCH   9  10
ENDBRANCH   5   9
ENDBRANCH   1   5
BRANCH   2  17
HETATM   17  C           1     -22.206  -5.423  -6.637  0.00  0.00     0.278 C 
BRANCH  17  18
HETATM   18  C           1     -21.422  -4.196  -7.082  0.00  0.00     0.081 C 
BRANCH  18  19
HETATM   19  C           1     -21.399  -4.133  -8.578  0.00  0.00    -0.056 A 
HETATM   20  C           1     -20.259  -4.530  -9.275  0.00  0.00     0.007 A 
HETATM   21  C           1     -20.237  -4.471 -10.669  0.00  0.00     0.001 A 
HETATM   22  C           1     -21.357  -4.016 -11.365  0.00  0.00     0.000 A 
HETATM   23  C           1     -22.497  -3.620 -10.668  0.00  0.00     0.001 A 
HETATM   24  C           1     -22.520  -3.678  -9.274  0.00  0.00     0.007 A 
ENDBRANCH  18  19
ENDBRANCH  17  18
BRANCH  17  25
HETATM   25  N           1     -23.599  -5.015  -6.256  0.00  0.00    -0.066 N 
HETATM   26  H           1     -23.669  -3.973  -6.261  0.00  0.00     0.275 HD
HETATM   27  H           1     -24.279  -5.413  -6.942  0.00  0.00     0.275 HD
HETATM   28  H           1     -23.818  -5.377  -5.301  0.00  0.00     0.275 HD
ENDBRANCH  17  25
ENDBRANCH   2  17
TORSDOF 8
ENDMDL
MODEL 4
REMARK VINA RESULT:      -7.2      3.296      6.639
REMARK  8 active torsions:
REMARK  status: ('A' for Active; 'I' for Inactive)
REMARK    1  A    between atoms: N_3  and  C_13 
REMARK       I    between atoms: N_3  and  C_4 
REMARK    2  A    between atoms: C_4  and  C_5 
REMARK    3  A    between atoms: C_5  and  C_7 
REMARK    4  A    between atoms: C_5  and  N_25 
REMARK    5  A    between atoms: C_7  and  C_22 
REMARK    6  A    between atoms: C_13  and  C_16 
REMARK    7  A    between atoms: C_13  and  C_21 
REMARK    8  A    between atoms: C_15  and  C_21 
ROOT
HETATM    1  N           1     -35.553  -1.115 -14.394  0.00  0.00    -0.344 N 
HETATM    2  C           1     -34.918  -0.367 -13.438  0.00  0.00     0.249 C 
HETATM    3  H           1     -36.101  -1.922 -14.124  0.00  0.00     0.163 HD
HETATM    4  O           1     -34.264   0.595 -13.761  0.00  0.00    -0.271 OA
ENDROOT
BRANCH   1   5
HETATM    5  C           1     -35.438  -0.752 -15.793  0.00  0.00     0.191 C 
BRANCH   5   6
HETATM    6  C           1     -36.470   0.297 -16.127  0.00  0.00     0.197 C 
HETATM    7  O           1     -36.143   1.502 -16.172  0.00  0.00    -0.646 OA
HETATM    8  O           1     -37.651  -0.040 -16.357  0.00  0.00    -0.646 OA
ENDBRANCH   5   6
BRANCH   5   9
HETATM    9  C           1     -35.669  -1.984 -16.658  0.00  0.00     0.094 C 
BRANCH   9  10
HETATM   10  C           1     -34.473  -2.880 -16.583  0.00  0.00     0.028 A 
HETATM   11  N           1     -33.432  -2.867 -17.475  0.00  0.00    -0.354 N 
HETATM   12  C           1     -32.603  -3.795 -17.054  0.00  0.00     0.180 A 
ATOM     13  HN          1     -33.324  -2.265 -18.292  1.00  0.00     0.166 HD
HETATM   14  N           1     -33.068  -4.405 -15.924  0.00  0.00    -0.360 N 
HETATM   15  C           1     -34.267  -3.829 -15.610  0.00  0.00     0.114 A 
HETATM   16  H           1     -32.591  -5.176 -15.394  0.00  0.00     0.166 HD
ENDBRANCH   9  10
ENDBRANCH   5   9
ENDBRANCH   1   5
BRANCH   2  17
HETATM   17  C           1     -35.037  -0.745 -11.982  0.00  0.00     0.278 C 
BRANCH  17  18
HETATM   18  C           1     -35.854  -2.023 -11.854  0.00  0.00     0.081 C 
BRANCH  18  19
HETATM   19  C           1     -34.936  -3.180 -11.606  0.00  0.00    -0.056 A 
HETATM   20  C           1     -35.407  -4.312 -10.942  0.00  0.00     0.007 A 
HETATM   21  C           1     -34.552  -5.391 -10.712  0.00  0.00     0.001 A 
HETATM   22  C           1     -33.227  -5.336 -11.147  0.00  0.00     0.000 A 
HETATM   23  C           1     -32.759  -4.205 -11.812  0.00  0.00     0.001 A 
HETATM   24  C           1     -33.613  -3.126 -12.043  0.00  0.00     0.007 A 
ENDBRANCH  18  19
ENDBRANCH  17  18
BRANCH  17  25
HETATM   25  N           1     -35.719   0.362 -11.234  0.00  0.00    -0.066 N 
HETATM   26  H           1     -35.063   0.757 -10.523  0.00  0.00     0.275 HD
HETATM   27  H           1     -36.001   1.114 -11.902  0.00  0.00     0.275 HD
HETATM   28  H           1     -36.568  -0.013 -10.755  0.00  0.00     0.275 HD
ENDBRANCH  17  25
ENDBRANCH   2  17
TORSDOF 8
ENDMDL
MODEL 5
REMARK VINA RESULT:      -6.9     13.819     15.002
REMARK  8 active torsions:
REMARK  status: ('A' for Active; 'I' for Inactive)
REMARK    1  A    between atoms: N_3  and  C_13 
REMARK       I    between atoms: N_3  and  C_4 
REMARK    2  A    between atoms: C_4  and  C_5 
REMARK    3  A    between atoms: C_5  and  C_7 
REMARK    4  A    between atoms: C_5  and  N_25 
REMARK    5  A    between atoms: C_7  and  C_22 
REMARK    6  A    between atoms: C_13  and  C_16 
REMARK    7  A    between atoms: C_13  and  C_21 
REMARK    8  A    between atoms: C_15  and  C_21 
ROOT
HETATM    1  N           1     -21.140  -6.403  -4.014  0.00  0.00    -0.344 N 
HETATM    2  C           1     -21.846  -5.956  -5.099  0.00  0.00     0.249 C 
HETATM    3  H           1     -20.167  -6.147  -3.903  0.00  0.00     0.163 HD
HETATM    4  O           1     -23.006  -6.261  -5.232  0.00  0.00    -0.271 OA
ENDROOT
BRANCH   1   5
HETATM    5  C           1     -21.786  -7.244  -3.026  0.00  0.00     0.191 C 
BRANCH   5   6
HETATM    6  C           1     -22.163  -6.411  -1.825  0.00  0.00     0.197 C 
HETATM    7  O           1     -22.744  -6.941  -0.855  0.00  0.00    -0.646 OA
HETATM    8  O           1     -21.894  -5.191  -1.802  0.00  0.00    -0.646 OA
ENDBRANCH   5   6
BRANCH   5   9
HETATM    9  C           1     -20.831  -8.349  -2.596  0.00  0.00     0.094 C 
BRANCH   9  10
HETATM   10  C           1     -21.502  -9.678  -2.749  0.00  0.00     0.028 A 
HETATM   11  N           1     -21.793 -10.527  -1.712  0.00  0.00    -0.354 N 
HETATM   12  C           1     -22.371 -11.568  -2.269  0.00  0.00     0.180 A 
ATOM     13  HN          1     -21.602 -10.382  -0.720  1.00  0.00     0.166 HD
HETATM   14  N           1     -22.465 -11.422  -3.624  0.00  0.00    -0.360 N 
HETATM   15  C           1     -21.911 -10.215  -3.947  0.00  0.00     0.114 A 
HETATM   16  H           1     -22.885 -12.112  -4.294  0.00  0.00     0.166 HD
ENDBRANCH   9  10
ENDBRANCH   5   9
ENDBRANCH   1   5
BRANCH   2  17
HETATM   17  C           1     -21.173  -5.080  -6.128  0.00  0.00     0.278 C 
BRANCH  17  18
HETATM   18  C           1     -20.935  -5.883  -7.400  0.00  0.00     0.081 C 
BRANCH  18  19
HETATM   19  C           1     -21.219  -5.025  -8.593  0.00  0.00    -0.056 A 
HETATM   20  C           1     -22.475  -4.438  -8.746  0.00  0.00     0.007 A 
HETATM   21  C           1     -22.740  -3.637  -9.859  0.00  0.00     0.001 A 
HETATM   22  C           1     -21.748  -3.425 -10.816  0.00  0.00     0.000 A 
HETATM   23  C           1     -20.493  -4.011 -10.663  0.00  0.00     0.001 A 
HETATM   24  C           1     -20.227  -4.811  -9.551  0.00  0.00     0.007 A 
ENDBRANCH  18  19
ENDBRANCH  17  18
BRANCH  17  25
HETATM   25  N           1     -19.860  -4.594  -5.589  0.00  0.00    -0.066 N 
HETATM   26  H           1     -19.399  -5.363  -5.053  0.00  0.00     0.275 HD
HETATM   27  H           1     -19.244  -4.305  -6.382  0.00  0.00     0.275 HD
HETATM   28  H           1     -20.024  -3.778  -4.960  0.00  0.00     0.275 HD
ENDBRANCH  17  25
ENDBRANCH   2  17
TORSDOF 8
ENDMDL
MODEL 6
REMARK VINA RESULT:      -6.7     15.697     17.025
REMARK  8 active torsions:
REMARK  status: ('A' for Active; 'I' for Inactive)
REMARK    1  A    between atoms: N_3  and  C_13 
REMARK       I    between atoms: N_3  and  C_4 
REMARK    2  A    between atoms: C_4  and  C_5 
REMARK    3  A    between atoms: C_5  and  C_7 
REMARK    4  A    between atoms: C_5  and  N_25 
REMARK    5  A    between atoms: C_7  and  C_22 
REMARK    6  A    between atoms: C_13  and  C_16 
REMARK    7  A    between atoms: C_13  and  C_21 
REMARK    8  A    between atoms: C_15  and  C_21 
ROOT
HETATM    1  N           1     -20.652  -8.333  -3.548  0.00  0.00    -0.344 N 
HETATM    2  C           1     -20.807  -7.727  -4.766  0.00  0.00     0.249 C 
HETATM    3  H           1     -21.043  -7.907  -2.717  0.00  0.00     0.163 HD
HETATM    4  O           1     -20.341  -8.236  -5.757  0.00  0.00    -0.271 OA
ENDROOT
BRANCH   1   5
HETATM    5  C           1     -19.929  -9.586  -3.449  0.00  0.00     0.191 C 
BRANCH   5   6
HETATM    6  C           1     -20.685 -10.534  -2.551  0.00  0.00     0.197 C 
HETATM    7  O           1     -20.079 -11.172  -1.664  0.00  0.00    -0.646 OA
HETATM    8  O           1     -21.918 -10.682  -2.696  0.00  0.00    -0.646 OA
ENDBRANCH   5   6
BRANCH   5   9
HETATM    9  C           1     -18.547  -9.329  -2.864  0.00  0.00     0.094 C 
BRANCH   9  10
HETATM   10  C           1     -17.505  -9.611  -3.901  0.00  0.00     0.028 A 
HETATM   11  N           1     -17.763  -9.786  -5.237  0.00  0.00    -0.354 N 
HETATM   12  C           1     -16.592 -10.009  -5.789  0.00  0.00     0.180 A 
ATOM     13  HN          1     -18.670  -9.751  -5.702  1.00  0.00     0.166 HD
HETATM   14  N           1     -15.588  -9.983  -4.862  0.00  0.00    -0.360 N 
HETATM   15  C           1     -16.159  -9.729  -3.646  0.00  0.00     0.114 A 
HETATM   16  H           1     -14.566 -10.132  -5.050  0.00  0.00     0.166 HD
ENDBRANCH   9  10
ENDBRANCH   5   9
ENDBRANCH   1   5
BRANCH   2  17
HETATM   17  C           1     -21.560  -6.423  -4.870  0.00  0.00     0.278 C 
BRANCH  17  18
HETATM   18  C           1     -20.600  -5.313  -5.276  0.00  0.00     0.081 C 
BRANCH  18  19
HETATM   19  C           1     -20.860  -4.923  -6.698  0.00  0.00    -0.056 A 
HETATM   20  C           1     -22.147  -4.565  -7.099  0.00  0.00     0.007 A 
HETATM   21  C           1     -22.389  -4.201  -8.424  0.00  0.00     0.001 A 
HETATM   22  C           1     -21.343  -4.195  -9.347  0.00  0.00     0.000 A 
HETATM   23  C           1     -20.057  -4.552  -8.946  0.00  0.00     0.001 A 
HETATM   24  C           1     -19.814  -4.916  -7.621  0.00  0.00     0.007 A 
ENDBRANCH  18  19
ENDBRANCH  17  18
BRANCH  17  25
HETATM   25  N           1     -22.173  -6.093  -3.541  0.00  0.00    -0.066 N 
HETATM   26  H           1     -22.243  -6.963  -2.965  0.00  0.00     0.275 HD
HETATM   27  H           1     -21.575  -5.395  -3.045  0.00  0.00     0.275 HD
HETATM   28  H           1     -23.126  -5.693  -3.688  0.00  0.00     0.275 HD
ENDBRANCH  17  25
ENDBRANCH   2  17
TORSDOF 8
ENDMDL
MODEL 7
REMARK VINA RESULT:      -6.6     14.521     15.697
REMARK  8 active torsions:
REMARK  status: ('A' for Active; 'I' for Inactive)
REMARK    1  A    between atoms: N_3  and  C_13 
REMARK       I    between atoms: N_3  and  C_4 
REMARK    2  A    between atoms: C_4  and  C_5 
REMARK    3  A    between atoms: C_5  and  C_7 
REMARK    4  A    between atoms: C_5  and  N_25 
REMARK    5  A    between atoms: C_7  and  C_22 
REMARK    6  A    between atoms: C_13  and  C_16 
REMARK    7  A    between atoms: C_13  and  C_21 
REMARK    8  A    between atoms: C_15  and  C_21 
ROOT
HETATM    1  N           1     -20.682  -7.132  -4.319  0.00  0.00    -0.344 N 
HETATM    2  C           1     -20.917  -6.931  -5.653  0.00  0.00     0.249 C 
HETATM    3  H           1     -20.450  -6.348  -3.722  0.00  0.00     0.163 HD
HETATM    4  O           1     -21.194  -7.866  -6.365  0.00  0.00    -0.271 OA
ENDROOT
BRANCH   1   5
HETATM    5  C           1     -20.764  -8.468  -3.761  0.00  0.00     0.191 C 
BRANCH   5   6
HETATM    6  C           1     -21.283  -8.392  -2.346  0.00  0.00     0.197 C 
HETATM    7  O           1     -21.071  -7.373  -1.657  0.00  0.00    -0.646 OA
HETATM    8  O           1     -21.924  -9.351  -1.864  0.00  0.00    -0.646 OA
ENDBRANCH   5   6
BRANCH   5   9
HETATM    9  C           1     -19.381  -9.104  -3.761  0.00  0.00     0.094 C 
BRANCH   9  10
HETATM   10  C           1     -19.398 -10.340  -4.605  0.00  0.00     0.028 A 
HETATM   11  N           1     -19.194 -10.360  -5.961  0.00  0.00    -0.354 N 
HETATM   12  C           1     -19.292 -11.624  -6.306  0.00  0.00     0.180 A 
ATOM     13  HN          1     -19.007  -9.564  -6.570  1.00  0.00     0.166 HD
HETATM   14  N           1     -19.550 -12.420  -5.227  0.00  0.00    -0.360 N 
HETATM   15  C           1     -19.622 -11.610  -4.127  0.00  0.00     0.114 A 
HETATM   16  H           1     -19.671 -13.463  -5.240  0.00  0.00     0.166 HD
ENDBRANCH   9  10
ENDBRANCH   5   9
ENDBRANCH   1   5
BRANCH   2  17
HETATM   17  C           1     -20.832  -5.540  -6.233  0.00  0.00     0.278 C 
BRANCH  17  18
HETATM   18  C           1     -20.009  -5.574  -7.513  0.00  0.00     0.081 C 
BRANCH  18  19
HETATM   19  C           1     -20.747  -4.858  -8.601  0.00  0.00    -0.056 A 
HETATM   20  C           1     -22.069  -4.459  -8.401  0.00  0.00     0.007 A 
HETATM   21  C           1     -22.757  -3.791  -9.415  0.00  0.00     0.001 A 
HETATM   22  C           1     -22.123  -3.523 -10.628  0.00  0.00     0.000 A 
HETATM   23  C           1     -20.802  -3.921 -10.827  0.00  0.00     0.001 A 
HETATM   24  C           1     -20.113  -4.589  -9.814  0.00  0.00     0.007 A 
ENDBRANCH  18  19
ENDBRANCH  17  18
BRANCH  17  25
HETATM   25  N           1     -20.177  -4.625  -5.241  0.00  0.00    -0.066 N 
HETATM   26  H           1     -20.843  -4.424  -4.461  0.00  0.00     0.275 HD
HETATM   27  H           1     -19.320  -5.083  -4.857  0.00  0.00     0.275 HD
HETATM   28  H           1     -19.912  -3.732  -5.714  0.00  0.00     0.275 HD
ENDBRANCH  17  25
ENDBRANCH   2  17
TORSDOF 8
ENDMDL
MODEL 8
REMARK VINA RESULT:      -6.5     14.588     15.827
REMARK  8 active torsions:
REMARK  status: ('A' for Active; 'I' for Inactive)
REMARK    1  A    between atoms: N_3  and  C_13 
REMARK       I    between atoms: N_3  and  C_4 
REMARK    2  A    between atoms: C_4  and  C_5 
REMARK    3  A    between atoms: C_5  and  C_7 
REMARK    4  A    between atoms: C_5  and  N_25 
REMARK    5  A    between atoms: C_7  and  C_22 
REMARK    6  A    between atoms: C_13  and  C_16 
REMARK    7  A    between atoms: C_13  and  C_21 
REMARK    8  A    between atoms: C_15  and  C_21 
ROOT
HETATM    1  N           1     -21.025  -8.306  -4.229  0.00  0.00    -0.344 N 
HETATM    2  C           1     -20.659  -7.575  -5.327  0.00  0.00     0.249 C 
HETATM    3  H           1     -21.915  -8.133  -3.780  0.00  0.00     0.163 HD
HETATM    4  O           1     -19.596  -7.782  -5.863  0.00  0.00    -0.271 OA
ENDROOT
BRANCH   1   5
HETATM    5  C           1     -20.139  -9.330  -3.710  0.00  0.00     0.191 C 
BRANCH   5   6
HETATM    6  C           1     -20.845 -10.663  -3.725  0.00  0.00     0.197 C 
HETATM    7  O           1     -20.412 -11.608  -3.033  0.00  0.00    -0.646 OA
HETATM    8  O           1     -21.864 -10.822  -4.432  0.00  0.00    -0.646 OA
ENDBRANCH   5   6
BRANCH   5   9
HETATM    9  C           1     -19.743  -8.982  -2.282  0.00  0.00     0.094 C 
BRANCH   9  10
HETATM   10  C           1     -20.913  -8.380  -1.571  0.00  0.00     0.028 A 
HETATM   11  N           1     -21.290  -7.064  -1.665  0.00  0.00    -0.354 N 
HETATM   12  C           1     -22.349  -6.952  -0.896  0.00  0.00     0.180 A 
ATOM     13  HN          1     -20.843  -6.330  -2.215  1.00  0.00     0.166 HD
HETATM   14  N           1     -22.671  -8.143  -0.311  0.00  0.00    -0.360 N 
HETATM   15  C           1     -21.759  -9.069  -0.733  0.00  0.00     0.114 A 
HETATM   16  H           1     -23.473  -8.315   0.345  0.00  0.00     0.166 HD
ENDBRANCH   9  10
ENDBRANCH   5   9
ENDBRANCH   1   5
BRANCH   2  17
HETATM   17  C           1     -21.581  -6.510  -5.867  0.00  0.00     0.278 C 
BRANCH  17  18
HETATM   18  C           1     -20.788  -5.238  -6.135  0.00  0.00     0.081 C 
BRANCH  18  19
HETATM   19  C           1     -21.062  -4.762  -7.528  0.00  0.00    -0.056 A 
HETATM   20  C           1     -22.281  -4.158  -7.830  0.00  0.00     0.007 A 
HETATM   21  C           1     -22.537  -3.713  -9.129  0.00  0.00     0.001 A 
HETATM   22  C           1     -21.571  -3.874 -10.123  0.00  0.00     0.000 A 
HETATM   23  C           1     -20.352  -4.477  -9.819  0.00  0.00     0.001 A 
HETATM   24  C           1     -20.096  -4.922  -8.522  0.00  0.00     0.007 A 
ENDBRANCH  18  19
ENDBRANCH  17  18
BRANCH  17  25
HETATM   25  N           1     -22.658  -6.225  -4.862  0.00  0.00    -0.066 N 
HETATM   26  H           1     -23.590  -6.255  -5.333  0.00  0.00     0.275 HD
HETATM   27  H           1     -22.627  -6.945  -4.105  0.00  0.00     0.275 HD
HETATM   28  H           1     -22.505  -5.279  -4.447  0.00  0.00     0.275 HD
ENDBRANCH  17  25
ENDBRANCH   2  17
TORSDOF 8
ENDMDL
MODEL 9
REMARK VINA RESULT:      -6.5     15.471     16.738
REMARK  8 active torsions:
REMARK  status: ('A' for Active; 'I' for Inactive)
REMARK    1  A    between atoms: N_3  and  C_13 
REMARK       I    between atoms: N_3  and  C_4 
REMARK    2  A    between atoms: C_4  and  C_5 
REMARK    3  A    between atoms: C_5  and  C_7 
REMARK    4  A    between atoms: C_5  and  N_25 
REMARK    5  A    between atoms: C_7  and  C_22 
REMARK    6  A    between atoms: C_13  and  C_16 
REMARK    7  A    between atoms: C_13  and  C_21 
REMARK    8  A    between atoms: C_15  and  C_21 
ROOT
HETATM    1  N           1     -20.832  -8.528  -4.597  0.00  0.00    -0.344 N 
HETATM    2  C           1     -20.553  -7.517  -5.477  0.00  0.00     0.249 C 
HETATM    3  H           1     -21.691  -8.510  -4.062  0.00  0.00     0.163 HD
HETATM    4  O           1     -19.528  -7.538  -6.116  0.00  0.00    -0.271 OA
ENDROOT
BRANCH   1   5
HETATM    5  C           1     -19.897  -9.624  -4.432  0.00  0.00     0.191 C 
BRANCH   5   6
HETATM    6  C           1     -20.468 -10.871  -5.062  0.00  0.00     0.197 C 
HETATM    7  O           1     -20.648 -10.921  -6.297  0.00  0.00    -0.646 OA
HETATM    8  O           1     -20.761 -11.854  -4.348  0.00  0.00    -0.646 OA
ENDBRANCH   5   6
BRANCH   5   9
HETATM    9  C           1     -19.659  -9.870  -2.949  0.00  0.00     0.094 C 
BRANCH   9  10
HETATM   10  C           1     -18.199 -10.091  -2.707  0.00  0.00     0.028 A 
HETATM   11  N           1     -17.197  -9.297  -3.203  0.00  0.00    -0.354 N 
HETATM   12  C           1     -16.081  -9.832  -2.764  0.00  0.00     0.180 A 
ATOM     13  HN          1     -17.298  -8.467  -3.789  1.00  0.00     0.166 HD
HETATM   14  N           1     -16.323 -10.939  -2.002  0.00  0.00    -0.360 N 
HETATM   15  C           1     -17.677 -11.119  -1.957  0.00  0.00     0.114 A 
HETATM   16  H           1     -15.600 -11.543  -1.537  0.00  0.00     0.166 HD
ENDBRANCH   9  10
ENDBRANCH   5   9
ENDBRANCH   1   5
BRANCH   2  17
HETATM   17  C           1     -21.526  -6.376  -5.648  0.00  0.00     0.278 C 
BRANCH  17  18
HETATM   18  C           1     -20.760  -5.098  -5.960  0.00  0.00     0.081 C 
BRANCH  18  19
HETATM   19  C           1     -21.057  -4.666  -7.363  0.00  0.00    -0.056 A 
HETATM   20  C           1     -20.067  -4.749  -8.342  0.00  0.00     0.007 A 
HETATM   21  C           1     -20.344  -4.347  -9.650  0.00  0.00     0.001 A 
HETATM   22  C           1     -21.611  -3.863  -9.976  0.00  0.00     0.000 A 
HETATM   23  C           1     -22.600  -3.781  -8.998  0.00  0.00     0.001 A 
HETATM   24  C           1     -22.324  -4.183  -7.690  0.00  0.00     0.007 A 
ENDBRANCH  18  19
ENDBRANCH  17  18
BRANCH  17  25
HETATM   25  N           1     -22.310  -6.193  -4.382  0.00  0.00    -0.066 N 
HETATM   26  H           1     -22.815  -7.079  -4.156  0.00  0.00     0.275 HD
HETATM   27  H           1     -21.659  -5.955  -3.601  0.00  0.00     0.275 HD
HETATM   28  H           1     -22.999  -5.419  -4.509  0.00  0.00     0.275 HD
ENDBRANCH  17  25
ENDBRANCH   2  17
TORSDOF 8
ENDMDL
