MODEL 1
REMARK VINA RESULT:      -7.1      0.000      0.000
REMARK  8 active torsions:
REMARK  status: ('A' for Active; 'I' for Inactive)
REMARK    1  A    between atoms: C_1  and  C_3 
REMARK    2  A    between atoms: C_3  and  C_4 
REMARK    3  A    between atoms: C_4  and  C_16 
REMARK    4  A    between atoms: C_4  and  N_10 
REMARK    5  A    between atoms: C_12  and  C_21 
REMARK    6  A    between atoms: C_12  and  C_13 
REMARK    7  A    between atoms: C_13  and  C_14 
REMARK    8  A    between atoms: C_13  and  N_18 
REMARK       I    between atoms: C_16  and  N_18 
REMARK       I    between atoms: N_20  and  C_21 
ROOT
HETATM    1  O           1     -36.488  -1.309 -12.616  0.00  0.00    -0.271 OA
HETATM    2  H           1     -33.830  -0.942 -14.241  0.00  0.00     0.163 HD
HETATM    3  C           1     -35.306  -1.371 -12.855  0.00  0.00     0.249 C 
HETATM    4  N           1     -34.821  -0.890 -14.041  0.00  0.00    -0.344 N 
ENDROOT
BRANCH   4   5
HETATM    5  C           1     -35.727  -0.305 -15.010  0.00  0.00     0.194 C 
BRANCH   5   6
HETATM    6  C           1     -35.360   1.156 -15.229  0.00  0.00     0.138 C 
BRANCH   6   7
HETATM    7  C           1     -36.470   1.846 -15.984  0.00  0.00     0.217 C 
HETATM    8  O           1     -36.217   2.772 -16.717  0.00  0.00    -0.274 OA
HETATM    9  N           1     -37.764   1.421 -15.839  0.00  0.00    -0.370 N 
HETATM   10  H           1     -37.976   0.645 -15.225  0.00  0.00     0.159 HD
HETATM   11  H           1     -38.508   1.884 -16.345  0.00  0.00     0.159 HD
ENDBRANCH   6   7
ENDBRANCH   5   6
BRANCH   5  12
HETATM   12  C           1     -35.615  -1.053 -16.316  0.00  0.00     0.197 C 
HETATM   13  O           1     -36.544  -0.997 -17.150  0.00  0.00    -0.646 OA
HETATM   14  O           1     -34.593  -1.729 -16.565  0.00  0.00    -0.646 OA
ENDBRANCH   5  12
ENDBRANCH   4   5
BRANCH   3  15
HETATM   15  C           1     -34.364  -1.980 -11.846  0.00  0.00     0.278 C 
BRANCH  15  16
HETATM   16  C           1     -34.322  -3.491 -12.035  0.00  0.00     0.021 C 
HETATM   17  C           1     -32.882  -3.976 -11.931  0.00  0.00     0.012 C 
BRANCH  16  18
HETATM   18  C           1     -35.163  -4.161 -10.957  0.00  0.00     0.002 C 
HETATM   19  C           1     -34.475  -5.440 -10.497  0.00  0.00     0.005 C 
ENDBRANCH  16  18
ENDBRANCH  15  16
BRANCH  15  20
HETATM   20  N           1     -34.845  -1.665 -10.460  0.00  0.00    -0.066 N 
HETATM   21  H           1     -34.107  -1.923  -9.768  0.00  0.00     0.275 HD
HETATM   22  H           1     -35.716  -2.208 -10.262  0.00  0.00     0.275 HD
HETATM   23  H           1     -35.050  -0.643 -10.386  0.00  0.00     0.275 HD
ENDBRANCH  15  20
ENDBRANCH   3  15
TORSDOF 8
ENDMDL
MODEL 2
REMARK VINA RESULT:      -6.7      2.181      3.315
REMARK  8 active torsions:
REMARK  status: ('A' for Active; 'I' for Inactive)
REMARK    1  A    between atoms: C_1  and  C_3 
REMARK    2  A    between atoms: C_3  and  C_4 
REMARK    3  A    between atoms: C_4  and  C_16 
REMARK    4  A    between atoms: C_4  and  N_10 
REMARK    5  A    between atoms: C_12  and  C_21 
REMARK    6  A    between atoms: C_12  and  C_13 
REMARK    7  A    between atoms: C_13  and  C_14 
REMARK    8  A    between atoms: C_13  and  N_18 
REMARK       I    between atoms: C_16  and  N_18 
REMARK       I    between atoms: N_20  and  C_21 
ROOT
HETATM    1  O           1     -34.513  -3.066 -13.448  0.00  0.00    -0.271 OA
HETATM    2  H           1     -34.949  -0.665 -11.478  0.00  0.00     0.163 HD
HETATM    3  C           1     -34.380  -2.402 -12.449  0.00  0.00     0.249 C 
HETATM    4  N           1     -35.060  -1.222 -12.316  0.00  0.00    -0.344 N 
ENDROOT
BRANCH   4   5
HETATM    5  C           1     -35.942  -0.770 -13.375  0.00  0.00     0.194 C 
BRANCH   5   6
HETATM    6  C           1     -37.120  -0.020 -12.768  0.00  0.00     0.138 C 
BRANCH   6   7
HETATM    7  C           1     -37.173  -0.282 -11.283  0.00  0.00     0.217 C 
HETATM    8  O           1     -37.696  -1.287 -10.864  0.00  0.00    -0.274 OA
HETATM    9  N           1     -36.627   0.621 -10.409  0.00  0.00    -0.370 N 
HETATM   10  H           1     -36.189   1.463 -10.760  0.00  0.00     0.159 HD
HETATM   11  H           1     -36.663   0.446  -9.414  0.00  0.00     0.159 HD
ENDBRANCH   6   7
ENDBRANCH   5   6
BRANCH   5  12
HETATM   12  C           1     -35.183   0.149 -14.301  0.00  0.00     0.197 C 
HETATM   13  O           1     -34.880  -0.235 -15.451  0.00  0.00    -0.646 OA
HETATM   14  O           1     -34.859   1.294 -13.919  0.00  0.00    -0.646 OA
ENDBRANCH   5  12
ENDBRANCH   4   5
BRANCH   3  15
HETATM   15  C           1     -33.463  -2.872 -11.347  0.00  0.00     0.278 C 
BRANCH  15  16
HETATM   16  C           1     -34.089  -4.067 -10.639  0.00  0.00     0.021 C 
HETATM   17  C           1     -35.598  -4.042 -10.839  0.00  0.00     0.012 C 
BRANCH  16  18
HETATM   18  C           1     -33.520  -5.355 -11.220  0.00  0.00     0.002 C 
HETATM   19  C           1     -34.243  -6.549 -10.612  0.00  0.00     0.005 C 
ENDBRANCH  16  18
ENDBRANCH  15  16
BRANCH  15  20
HETATM   20  N           1     -33.255  -1.761 -10.361  0.00  0.00    -0.066 N 
HETATM   21  H           1     -32.374  -1.930  -9.826  0.00  0.00     0.275 HD
HETATM   22  H           1     -34.065  -1.726  -9.700  0.00  0.00     0.275 HD
HETATM   23  H           1     -33.184  -0.851 -10.871  0.00  0.00     0.275 HD
ENDBRANCH  15  20
ENDBRANCH   3  15
TORSDOF 8
ENDMDL
MODEL 3
REMARK VINA RESULT:      -6.3      4.034      6.738
REMARK  8 active torsions:
REMARK  status: ('A' for Active; 'I' for Inactive)
REMARK    1  A    between atoms: C_1  and  C_3 
REMARK    2  A    between atoms: C_3  and  C_4 
REMARK    3  A    between atoms: C_4  and  C_16 
REMARK    4  A    between atoms: C_4  and  N_10 
REMARK    5  A    between atoms: C_12  and  C_21 
REMARK    6  A    between atoms: C_12  and  C_13 
REMARK    7  A    between atoms: C_13  and  C_14 
REMARK    8  A    between atoms: C_13  and  N_18 
REMARK       I    between atoms: C_16  and  N_18 
REMARK       I    between atoms: N_20  and  C_21 
ROOT
HETATM    1  O           1     -34.992  -4.889 -15.475  0.00  0.00    -0.271 OA
HETATM    2  H           1     -32.298  -3.662 -14.439  0.00  0.00     0.163 HD
HETATM    3  C           1     -33.858  -4.476 -15.527  0.00  0.00     0.249 C 
HETATM    4  N           1     -33.248  -4.007 -14.396  0.00  0.00    -0.344 N 
ENDROOT
BRANCH   4   5
HETATM    5  C           1     -33.963  -4.006 -13.134  0.00  0.00     0.194 C 
BRANCH   5   6
HETATM    6  C           1     -33.020  -4.433 -12.017  0.00  0.00     0.138 C 
BRANCH   6   7
HETATM    7  C           1     -33.704  -5.458 -11.145  0.00  0.00     0.217 C 
HETATM    8  O           1     -34.680  -5.150 -10.503  0.00  0.00    -0.274 OA
HETATM    9  N           1     -33.218  -6.737 -11.082  0.00  0.00    -0.370 N 
HETATM   10  H           1     -32.401  -6.994 -11.620  0.00  0.00     0.159 HD
HETATM   11  H           1     -33.677  -7.424 -10.498  0.00  0.00     0.159 HD
ENDBRANCH   6   7
ENDBRANCH   5   6
BRANCH   5  12
HETATM   12  C           1     -34.481  -2.617 -12.852  0.00  0.00     0.197 C 
HETATM   13  O           1     -34.260  -2.080 -11.745  0.00  0.00    -0.646 OA
HETATM   14  O           1     -35.130  -2.002 -13.726  0.00  0.00    -0.646 OA
ENDBRANCH   5  12
ENDBRANCH   4   5
BRANCH   3  15
HETATM   15  C           1     -33.115  -4.478 -16.840  0.00  0.00     0.278 C 
BRANCH  15  16
HETATM   16  C           1     -31.629  -4.689 -16.583  0.00  0.00     0.021 C 
HETATM   17  C           1     -31.236  -6.099 -17.004  0.00  0.00     0.012 C 
BRANCH  16  18
HETATM   18  C           1     -30.826  -3.677 -17.389  0.00  0.00     0.002 C 
HETATM   19  C           1     -29.706  -4.392 -18.134  0.00  0.00     0.005 C 
ENDBRANCH  16  18
ENDBRANCH  15  16
BRANCH  15  20
HETATM   20  N           1     -33.320  -3.162 -17.531  0.00  0.00    -0.066 N 
HETATM   21  H           1     -32.555  -3.012 -18.228  0.00  0.00     0.275 HD
HETATM   22  H           1     -33.305  -2.392 -16.825  0.00  0.00     0.275 HD
HETATM   23  H           1     -34.242  -3.166 -18.022  0.00  0.00     0.275 HD
ENDBRANCH  15  20
ENDBRANCH   3  15
TORSDOF 8
ENDMDL
MODEL 4
REMARK VINA RESULT:      -6.2      1.616      2.402
REMARK  8 active torsions:
REMARK  status: ('A' for Active; 'I' for Inactive)
REMARK    1  A    between atoms: C_1  and  C_3 
REMARK    2  A    between atoms: C_3  and  C_4 
REMARK    3  A    between atoms: C_4  and  C_16 
REMARK    4  A    between atoms: C_4  and  N_10 
REMARK    5  A    between atoms: C_12  and  C_21 
REMARK    6  A    between atoms: C_12  and  C_13 
REMARK    7  A    between atoms: C_13  and  C_14 
REMARK    8  A    between atoms: C_13  and  N_18 
REMARK       I    between atoms: C_16  and  N_18 
REMARK       I    between atoms: N_20  and  C_21 
ROOT
HETATM    1  O           1     -35.054  -2.220 -13.388  0.00  0.00    -0.271 OA
HETATM    2  H           1     -34.643   0.135 -11.357  0.00  0.00     0.163 HD
HETATM    3  C           1     -34.609  -1.635 -12.429  0.00  0.00     0.249 C 
HETATM    4  N           1     -35.015  -0.356 -12.160  0.00  0.00    -0.344 N 
ENDROOT
BRANCH   4   5
HETATM    5  C           1     -35.978   0.297 -13.025  0.00  0.00     0.194 C 
BRANCH   5   6
HETATM    6  C           1     -35.707  -0.093 -14.472  0.00  0.00     0.138 C 
BRANCH   6   7
HETATM    7  C           1     -36.216   0.992 -15.390  0.00  0.00     0.217 C 
HETATM    8  O           1     -35.527   1.956 -15.626  0.00  0.00    -0.274 OA
HETATM    9  N           1     -37.459   0.883 -15.954  0.00  0.00    -0.370 N 
HETATM   10  H           1     -38.036   0.076 -15.756  0.00  0.00     0.159 HD
HETATM   11  H           1     -37.800   1.610 -16.570  0.00  0.00     0.159 HD
ENDBRANCH   6   7
ENDBRANCH   5   6
BRANCH   5  12
HETATM   12  C           1     -37.372  -0.135 -12.641  0.00  0.00     0.197 C 
HETATM   13  O           1     -37.826   0.151 -11.512  0.00  0.00    -0.646 OA
HETATM   14  O           1     -38.073  -0.779 -13.451  0.00  0.00    -0.646 OA
ENDBRANCH   5  12
ENDBRANCH   4   5
BRANCH   3  15
HETATM   15  C           1     -33.607  -2.314 -11.530  0.00  0.00     0.278 C 
BRANCH  15  16
HETATM   16  C           1     -33.694  -3.823 -11.718  0.00  0.00     0.021 C 
HETATM   17  C           1     -32.312  -4.376 -12.037  0.00  0.00     0.012 C 
BRANCH  16  18
HETATM   18  C           1     -34.216  -4.464 -10.440  0.00  0.00     0.002 C 
HETATM   19  C           1     -34.182  -5.980 -10.580  0.00  0.00     0.005 C 
ENDBRANCH  16  18
ENDBRANCH  15  16
BRANCH  15  20
HETATM   20  N           1     -33.907  -1.972 -10.100  0.00  0.00    -0.066 N 
HETATM   21  H           1     -34.918  -2.151  -9.904  0.00  0.00     0.275 HD
HETATM   22  H           1     -33.692  -0.963  -9.931  0.00  0.00     0.275 HD
HETATM   23  H           1     -33.320  -2.563  -9.470  0.00  0.00     0.275 HD
ENDBRANCH  15  20
ENDBRANCH   3  15
TORSDOF 8
ENDMDL
MODEL 5
REMARK VINA RESULT:      -6.0     15.275     17.448
REMARK  8 active torsions:
REMARK  status: ('A' for Active; 'I' for Inactive)
REMARK    1  A    between atoms: C_1  and  C_3 
REMARK    2  A    between atoms: C_3  and  C_4 
REMARK    3  A    between atoms: C_4  and  C_16 
REMARK    4  A    between atoms: C_4  and  N_10 
REMARK    5  A    between atoms: C_12  and  C_21 
REMARK    6  A    between atoms: C_12  and  C_13 
REMARK    7  A    between atoms: C_13  and  C_14 
REMARK    8  A    between atoms: C_13  and  N_18 
REMARK       I    between atoms: C_16  and  N_18 
REMARK       I    between atoms: N_20  and  C_21 
ROOT
HETATM    1  O           1     -22.209  -7.215  -4.723  0.00  0.00    -0.271 OA
HETATM    2  H           1     -20.327  -4.724  -4.424  0.00  0.00     0.163 HD
HETATM    3  C           1     -21.519  -6.396  -4.165  0.00  0.00     0.249 C 
HETATM    4  N           1     -20.905  -5.411  -4.891  0.00  0.00    -0.344 N 
ENDROOT
BRANCH   4   5
HETATM    5  C           1     -21.082  -5.352  -6.328  0.00  0.00     0.194 C 
BRANCH   5   6
HETATM    6  C           1     -21.460  -3.933  -6.735  0.00  0.00     0.138 C 
BRANCH   6   7
HETATM    7  C           1     -22.433  -3.982  -7.888  0.00  0.00     0.217 C 
HETATM    8  O           1     -22.038  -3.824  -9.018  0.00  0.00    -0.274 OA
HETATM    9  N           1     -23.763  -4.205  -7.652  0.00  0.00    -0.370 N 
HETATM   10  H           1     -24.094  -4.337  -6.704  0.00  0.00     0.159 HD
HETATM   11  H           1     -24.415  -4.238  -8.424  0.00  0.00     0.159 HD
ENDBRANCH   6   7
ENDBRANCH   5   6
BRANCH   5  12
HETATM   12  C           1     -19.795  -5.745  -7.010  0.00  0.00     0.197 C 
HETATM   13  O           1     -19.117  -4.883  -7.609  0.00  0.00    -0.646 OA
HETATM   14  O           1     -19.406  -6.932  -6.975  0.00  0.00    -0.646 OA
ENDBRANCH   5  12
ENDBRANCH   4   5
BRANCH   3  15
HETATM   15  C           1     -21.334  -6.458  -2.669  0.00  0.00     0.278 C 
BRANCH  15  16
HETATM   16  C           1     -21.429  -7.905  -2.204  0.00  0.00     0.021 C 
HETATM   17  C           1     -20.029  -8.489  -2.074  0.00  0.00     0.012 C 
BRANCH  16  18
HETATM   18  C           1     -22.130  -7.958  -0.853  0.00  0.00     0.002 C 
HETATM   19  C           1     -21.281  -8.755   0.129  0.00  0.00     0.005 C 
ENDBRANCH  16  18
ENDBRANCH  15  16
BRANCH  15  20
HETATM   20  N           1     -22.405  -5.647  -2.000  0.00  0.00    -0.066 N 
HETATM   21  H           1     -23.260  -6.234  -1.877  0.00  0.00     0.275 HD
HETATM   22  H           1     -22.633  -4.816  -2.592  0.00  0.00     0.275 HD
HETATM   23  H           1     -22.066  -5.326  -1.066  0.00  0.00     0.275 HD
ENDBRANCH  15  20
ENDBRANCH   3  15
TORSDOF 8
ENDMDL
MODEL 6
REMARK VINA RESULT:      -6.0      1.948      3.034
REMARK  8 active torsions:
REMARK  status: ('A' for Active; 'I' for Inactive)
REMARK    1  A    between atoms: C_1  and  C_3 
REMARK    2  A    between atoms: C_3  and  C_4 
REMARK    3  A    between atoms: C_4  and  C_16 
REMARK    4  A    between atoms: C_4  and  N_10 
REMARK    5  A    between atoms: C_12  and  C_21 
REMARK    6  A    between atoms: C_12  and  C_13 
REMARK    7  A    between atoms: C_13  and  C_14 
REMARK    8  A    between atoms: C_13  and  N_18 
REMARK       I    between atoms: C_16  and  N_18 
REMARK       I    between atoms: N_20  and  C_21 
ROOT
HETATM    1  O           1     -34.559  -3.007 -14.959  0.00  0.00    -0.271 OA
HETATM    2  H           1     -35.220  -1.720 -12.176  0.00  0.00     0.163 HD
HETATM    3  C           1     -34.667  -2.933 -13.758  0.00  0.00     0.249 C 
HETATM    4  N           1     -35.129  -1.781 -13.182  0.00  0.00    -0.344 N 
ENDROOT
BRANCH   4   5
HETATM    5  C           1     -35.489  -0.649 -14.013  0.00  0.00     0.194 C 
BRANCH   5   6
HETATM    6  C           1     -37.003  -0.594 -14.167  0.00  0.00     0.138 C 
BRANCH   6   7
HETATM    7  C           1     -37.351  -0.193 -15.580  0.00  0.00     0.217 C 
HETATM    8  O           1     -37.660  -1.035 -16.389  0.00  0.00    -0.274 OA
HETATM    9  N           1     -37.315   1.127 -15.945  0.00  0.00    -0.370 N 
HETATM   10  H           1     -37.056   1.833 -15.267  0.00  0.00     0.159 HD
HETATM   11  H           1     -37.548   1.396 -16.892  0.00  0.00     0.159 HD
ENDBRANCH   6   7
ENDBRANCH   5   6
BRANCH   5  12
HETATM   12  C           1     -35.003   0.624 -13.364  0.00  0.00     0.197 C 
HETATM   13  O           1     -34.910   0.696 -12.120  0.00  0.00    -0.646 OA
HETATM   14  O           1     -34.693   1.607 -14.071  0.00  0.00    -0.646 OA
ENDBRANCH   5  12
ENDBRANCH   4   5
BRANCH   3  15
HETATM   15  C           1     -34.292  -4.112 -12.894  0.00  0.00     0.278 C 
BRANCH  15  16
HETATM   16  C           1     -34.588  -3.788 -11.435  0.00  0.00     0.021 C 
HETATM   17  C           1     -34.940  -5.069 -10.691  0.00  0.00     0.012 C 
BRANCH  16  18
HETATM   18  C           1     -33.360  -3.152 -10.799  0.00  0.00     0.002 C 
HETATM   19  C           1     -33.778  -1.919 -10.008  0.00  0.00     0.005 C 
ENDBRANCH  16  18
ENDBRANCH  15  16
BRANCH  15  20
HETATM   20  N           1     -32.830  -4.403 -13.054  0.00  0.00    -0.066 N 
HETATM   21  H           1     -32.377  -3.630 -13.592  0.00  0.00     0.275 HD
HETATM   22  H           1     -32.708  -5.304 -13.569  0.00  0.00     0.275 HD
HETATM   23  H           1     -32.384  -4.478 -12.112  0.00  0.00     0.275 HD
ENDBRANCH  15  20
ENDBRANCH   3  15
TORSDOF 8
ENDMDL
MODEL 7
REMARK VINA RESULT:      -5.7     13.719     16.460
REMARK  8 active torsions:
REMARK  status: ('A' for Active; 'I' for Inactive)
REMARK    1  A    between atoms: C_1  and  C_3 
REMARK    2  A    between atoms: C_3  and  C_4 
REMARK    3  A    between atoms: C_4  and  C_16 
REMARK    4  A    between atoms: C_4  and  N_10 
REMARK    5  A    between atoms: C_12  and  C_21 
REMARK    6  A    between atoms: C_12  and  C_13 
REMARK    7  A    between atoms: C_13  and  C_14 
REMARK    8  A    between atoms: C_13  and  N_18 
REMARK       I    between atoms: C_16  and  N_18 
REMARK       I    between atoms: N_20  and  C_21 
ROOT
HETATM    1  O           1     -21.839  -2.972  -7.743  0.00  0.00    -0.271 OA
HETATM    2  H           1     -22.129  -6.052  -7.228  0.00  0.00     0.163 HD
HETATM    3  C           1     -22.279  -4.090  -7.867  0.00  0.00     0.249 C 
HETATM    4  N           1     -21.760  -5.116  -7.125  0.00  0.00    -0.344 N 
ENDROOT
BRANCH   4   5
HETATM    5  C           1     -20.681  -4.861  -6.191  0.00  0.00     0.194 C 
BRANCH   5   6
HETATM    6  C           1     -20.981  -5.553  -4.868  0.00  0.00     0.138 C 
BRANCH   6   7
HETATM    7  C           1     -22.061  -6.587  -5.074  0.00  0.00     0.217 C 
HETATM    8  O           1     -23.224  -6.264  -5.028  0.00  0.00    -0.274 OA
HETATM    9  N           1     -21.722  -7.892  -5.314  0.00  0.00    -0.370 N 
HETATM   10  H           1     -20.748  -8.164  -5.352  0.00  0.00     0.159 HD
HETATM   11  H           1     -22.446  -8.585  -5.452  0.00  0.00     0.159 HD
ENDBRANCH   6   7
ENDBRANCH   5   6
BRANCH   5  12
HETATM   12  C           1     -19.389  -5.397  -6.757  0.00  0.00     0.197 C 
HETATM   13  O           1     -18.480  -4.608  -7.094  0.00  0.00    -0.646 OA
HETATM   14  O           1     -19.227  -6.629  -6.889  0.00  0.00    -0.646 OA
ENDBRANCH   5  12
ENDBRANCH   4   5
BRANCH   3  15
HETATM   15  C           1     -23.402  -4.355  -8.839  0.00  0.00     0.278 C 
BRANCH  15  16
HETATM   16  C           1     -22.824  -4.658 -10.214  0.00  0.00     0.021 C 
HETATM   17  C           1     -23.953  -4.999 -11.177  0.00  0.00     0.012 C 
BRANCH  16  18
HETATM   18  C           1     -22.070  -3.438 -10.727  0.00  0.00     0.002 C 
HETATM   19  C           1     -20.665  -3.848 -11.148  0.00  0.00     0.005 C 
ENDBRANCH  16  18
ENDBRANCH  15  16
BRANCH  15  20
HETATM   20  N           1     -24.284  -3.144  -8.924  0.00  0.00    -0.066 N 
HETATM   21  H           1     -24.962  -3.262  -9.710  0.00  0.00     0.275 HD
HETATM   22  H           1     -23.697  -2.296  -9.093  0.00  0.00     0.275 HD
HETATM   23  H           1     -24.808  -3.030  -8.027  0.00  0.00     0.275 HD
ENDBRANCH  15  20
ENDBRANCH   3  15
TORSDOF 8
ENDMDL
MODEL 8
REMARK VINA RESULT:      -5.6     15.406     17.676
REMARK  8 active torsions:
REMARK  status: ('A' for Active; 'I' for Inactive)
REMARK    1  A    between atoms: C_1  and  C_3 
REMARK    2  A    between atoms: C_3  and  C_4 
REMARK    3  A    between atoms: C_4  and  C_16 
REMARK    4  A    between atoms: C_4  and  N_10 
REMARK    5  A    between atoms: C_12  and  C_21 
REMARK    6  A    between atoms: C_12  and  C_13 
REMARK    7  A    between atoms: C_13  and  C_14 
REMARK    8  A    between atoms: C_13  and  N_18 
REMARK       I    between atoms: C_16  and  N_18 
REMARK       I    between atoms: N_20  and  C_21 
ROOT
HETATM    1  O           1     -20.112  -8.355  -5.621  0.00  0.00    -0.271 OA
HETATM    2  H           1     -21.940  -5.830  -5.272  0.00  0.00     0.163 HD
HETATM    3  C           1     -20.940  -7.635  -5.116  0.00  0.00     0.249 C 
HETATM    4  N           1     -21.245  -6.433  -5.694  0.00  0.00    -0.344 N 
ENDROOT
BRANCH   4   5
HETATM    5  C           1     -20.575  -6.023  -6.913  0.00  0.00     0.194 C 
BRANCH   5   6
HETATM    6  C           1     -21.609  -5.552  -7.926  0.00  0.00     0.138 C 
BRANCH   6   7
HETATM    7  C           1     -22.400  -4.406  -7.343  0.00  0.00     0.217 C 
HETATM    8  O           1     -23.429  -4.623  -6.749  0.00  0.00    -0.274 OA
HETATM    9  N           1     -21.951  -3.120  -7.488  0.00  0.00    -0.370 N 
HETATM   10  H           1     -21.089  -2.939  -7.986  0.00  0.00     0.159 HD
HETATM   11  H           1     -22.481  -2.353  -7.097  0.00  0.00     0.159 HD
ENDBRANCH   6   7
ENDBRANCH   5   6
BRANCH   5  12
HETATM   12  C           1     -19.620  -4.896  -6.606  0.00  0.00     0.197 C 
HETATM   13  O           1     -19.576  -4.410  -5.456  0.00  0.00    -0.646 OA
HETATM   14  O           1     -18.872  -4.448  -7.502  0.00  0.00    -0.646 OA
ENDBRANCH   5  12
ENDBRANCH   4   5
BRANCH   3  15
HETATM   15  C           1     -21.637  -8.062  -3.848  0.00  0.00     0.278 C 
BRANCH  15  16
HETATM   16  C           1     -21.072  -7.280  -2.669  0.00  0.00     0.021 C 
HETATM   17  C           1     -22.091  -6.244  -2.212  0.00  0.00     0.012 C 
BRANCH  16  18
HETATM   18  C           1     -20.772  -8.238  -1.524  0.00  0.00     0.002 C 
HETATM   19  C           1     -21.667  -7.907  -0.337  0.00  0.00     0.005 C 
ENDBRANCH  16  18
ENDBRANCH  15  16
BRANCH  15  20
HETATM   20  N           1     -21.416  -9.529  -3.626  0.00  0.00    -0.066 N 
HETATM   21  H           1     -20.562  -9.835  -4.145  0.00  0.00     0.275 HD
HETATM   22  H           1     -22.245 -10.063  -3.973  0.00  0.00     0.275 HD
HETATM   23  H           1     -21.287  -9.712  -2.606  0.00  0.00     0.275 HD
ENDBRANCH  15  20
ENDBRANCH   3  15
TORSDOF 8
ENDMDL
MODEL 9
REMARK VINA RESULT:      -5.6     15.833     18.335
REMARK  8 active torsions:
REMARK  status: ('A' for Active; 'I' for Inactive)
REMARK    1  A    between atoms: C_1  and  C_3 
REMARK    2  A    between atoms: C_3  and  C_4 
REMARK    3  A    between atoms: C_4  and  C_16 
REMARK    4  A    between atoms: C_4  and  N_10 
REMARK    5  A    between atoms: C_12  and  C_21 
REMARK    6  A    between atoms: C_12  and  C_13 
REMARK    7  A    between atoms: C_13  and  C_14 
REMARK    8  A    between atoms: C_13  and  N_18 
REMARK       I    between atoms: C_16  and  N_18 
REMARK       I    between atoms: N_20  and  C_21 
ROOT
HETATM    1  O           1     -22.851  -5.874  -5.540  0.00  0.00    -0.271 OA
HETATM    2  H           1     -19.878  -6.298  -4.635  0.00  0.00     0.163 HD
HETATM    3  C           1     -21.656  -5.699  -5.507  0.00  0.00     0.249 C 
HETATM    4  N           1     -20.879  -6.444  -4.662  0.00  0.00    -0.344 N 
ENDROOT
BRANCH   4   5
HETATM    5  C           1     -21.489  -7.443  -3.806  0.00  0.00     0.194 C 
BRANCH   5   6
HETATM    6  C           1     -20.621  -8.694  -3.789  0.00  0.00     0.138 C 
BRANCH   6   7
HETATM    7  C           1     -21.079  -9.639  -4.874  0.00  0.00     0.217 C 
HETATM    8  O           1     -21.058  -9.289  -6.029  0.00  0.00    -0.274 OA
HETATM    9  N           1     -21.519 -10.894  -4.546  0.00  0.00    -0.370 N 
HETATM   10  H           1     -21.537 -11.188  -3.578  0.00  0.00     0.159 HD
HETATM   11  H           1     -21.826 -11.528  -5.273  0.00  0.00     0.159 HD
ENDBRANCH   6   7
ENDBRANCH   5   6
BRANCH   5  12
HETATM   12  C           1     -21.612  -6.896  -2.405  0.00  0.00     0.197 C 
HETATM   13  O           1     -22.355  -5.918  -2.179  0.00  0.00    -0.646 OA
HETATM   14  O           1     -20.971  -7.423  -1.470  0.00  0.00    -0.646 OA
ENDBRANCH   5  12
ENDBRANCH   4   5
BRANCH   3  15
HETATM   15  C           1     -21.022  -4.660  -6.397  0.00  0.00     0.278 C 
BRANCH  15  16
HETATM   16  C           1     -21.397  -4.934  -7.848  0.00  0.00     0.021 C 
HETATM   17  C           1     -22.327  -3.837  -8.348  0.00  0.00     0.012 C 
BRANCH  16  18
HETATM   18  C           1     -20.136  -4.960  -8.701  0.00  0.00     0.002 C 
HETATM   19  C           1     -20.444  -4.394 -10.081  0.00  0.00     0.005 C 
ENDBRANCH  16  18
ENDBRANCH  15  16
BRANCH  15  20
HETATM   20  N           1     -19.531  -4.718  -6.248  0.00  0.00    -0.066 N 
HETATM   21  H           1     -19.092  -3.981  -6.846  0.00  0.00     0.275 HD
HETATM   22  H           1     -19.187  -5.659  -6.545  0.00  0.00     0.275 HD
HETATM   23  H           1     -19.273  -4.554  -5.249  0.00  0.00     0.275 HD
ENDBRANCH  15  20
ENDBRANCH   3  15
TORSDOF 8
ENDMDL
