MODEL 1
REMARK VINA RESULT:      -6.9      0.000      0.000
REMARK  8 active torsions:
REMARK  status: ('A' for Active; 'I' for Inactive)
REMARK    1  A    between atoms: C_2  and  C_3 
REMARK    2  A    between atoms: C_3  and  C_6 
REMARK    3  A    between atoms: C_3  and  N_23 
REMARK    4  A    between atoms: C_6  and  C_20 
REMARK       I    between atoms: C_7  and  N_23 
REMARK    5  A    between atoms: C_7  and  C_10 
REMARK    6  A    between atoms: C_8  and  C_9 
REMARK    7  A    between atoms: C_9  and  C_10 
REMARK    8  A    between atoms: C_10  and  N_22 
ROOT
HETATM    1  C           1     -34.089  -4.006 -12.572  0.00  0.00     0.280 C 
ENDROOT
BRANCH   1   2
HETATM    2  C           1     -34.232  -2.549 -12.206  0.00  0.00     0.249 C 
HETATM    3  N           1     -34.970  -1.712 -13.000  0.00  0.00    -0.344 N 
HETATM    4  H           1     -35.418  -2.071 -13.834  0.00  0.00     0.163 HD
HETATM    5  O           1     -33.698  -2.121 -11.211  0.00  0.00    -0.271 OA
BRANCH   3   6
HETATM    6  C           1     -35.108  -0.313 -12.648  0.00  0.00     0.195 C 
BRANCH   6   7
HETATM    7  C           1     -36.288  -0.141 -11.725  0.00  0.00     0.197 C 
HETATM    8  O           1     -37.376  -0.696 -11.991  0.00  0.00    -0.646 OA
HETATM    9  O           1     -36.179   0.556 -10.692  0.00  0.00    -0.646 OA
ENDBRANCH   6   7
BRANCH   6  10
HETATM   10  C           1     -35.328   0.510 -13.911  0.00  0.00     0.149 C 
BRANCH  10  11
HETATM   11  C           1     -35.697  -0.407 -15.051  0.00  0.00     0.175 C 
HETATM   12  O           1     -36.882  -0.776 -15.199  0.00  0.00    -0.648 OA
HETATM   13  O           1     -34.817  -0.798 -15.849  0.00  0.00    -0.648 OA
ENDBRANCH  10  11
ENDBRANCH   6  10
ENDBRANCH   3   6
ENDBRANCH   1   2
BRANCH   1  14
HETATM   14  C           1     -33.078  -4.666 -11.645  0.00  0.00     0.101 C 
BRANCH  14  15
HETATM   15  C           1     -33.726  -5.814 -10.935  0.00  0.00     0.028 A 
HETATM   16  C           1     -34.896  -5.729 -10.218  0.00  0.00     0.114 A 
HETATM   17  N           1     -35.116  -6.994  -9.748  0.00  0.00    -0.360 N 
HETATM   18  C           1     -34.090  -7.780 -10.189  0.00  0.00     0.180 A 
HETATM   19  H           1     -35.926  -7.304  -9.155  0.00  0.00     0.166 HD
HETATM   20  N           1     -33.234  -7.093 -10.909  0.00  0.00    -0.355 N 
ATOM     21  HN          1     -32.384  -7.438 -11.356  1.00  0.00     0.166 HD
ENDBRANCH  14  15
ENDBRANCH   1  14
BRANCH   1  22
HETATM   22  N           1     -33.614  -4.120 -13.991  0.00  0.00    -0.066 N 
HETATM   23  H           1     -33.000  -3.305 -14.218  0.00  0.00     0.275 HD
HETATM   24  H           1     -33.073  -5.007 -14.107  0.00  0.00     0.275 HD
HETATM   25  H           1     -34.437  -4.127 -14.634  0.00  0.00     0.275 HD
ENDBRANCH   1  22
TORSDOF 8
ENDMDL
MODEL 2
REMARK VINA RESULT:      -6.7     11.174     12.824
REMARK  8 active torsions:
REMARK  status: ('A' for Active; 'I' for Inactive)
REMARK    1  A    between atoms: C_2  and  C_3 
REMARK    2  A    between atoms: C_3  and  C_6 
REMARK    3  A    between atoms: C_3  and  N_23 
REMARK    4  A    between atoms: C_6  and  C_20 
REMARK       I    between atoms: C_7  and  N_23 
REMARK    5  A    between atoms: C_7  and  C_10 
REMARK    6  A    between atoms: C_8  and  C_9 
REMARK    7  A    between atoms: C_9  and  C_10 
REMARK    8  A    between atoms: C_10  and  N_22 
ROOT
HETATM    1  C           1     -25.745  -7.670 -20.243  0.00  0.00     0.280 C 
ENDROOT
BRANCH   1   2
HETATM    2  C           1     -25.614  -6.905 -18.948  0.00  0.00     0.249 C 
HETATM    3  N           1     -26.728  -6.624 -18.203  0.00  0.00    -0.344 N 
HETATM    4  H           1     -27.640  -6.928 -18.522  0.00  0.00     0.163 HD
HETATM    5  O           1     -24.527  -6.543 -18.568  0.00  0.00    -0.271 OA
BRANCH   3   6
HETATM    6  C           1     -26.603  -5.890 -16.959  0.00  0.00     0.195 C 
BRANCH   6   7
HETATM    7  C           1     -26.452  -6.863 -15.816  0.00  0.00     0.197 C 
HETATM    8  O           1     -25.328  -7.056 -15.304  0.00  0.00    -0.646 OA
HETATM    9  O           1     -27.451  -7.475 -15.381  0.00  0.00    -0.646 OA
ENDBRANCH   6   7
BRANCH   6  10
HETATM   10  C           1     -27.849  -5.041 -16.742  0.00  0.00     0.149 C 
BRANCH  10  11
HETATM   11  C           1     -28.877  -5.379 -17.793  0.00  0.00     0.175 C 
HETATM   12  O           1     -29.064  -4.605 -18.757  0.00  0.00    -0.648 OA
HETATM   13  O           1     -29.542  -6.434 -17.701  0.00  0.00    -0.648 OA
ENDBRANCH  10  11
ENDBRANCH   6  10
ENDBRANCH   3   6
ENDBRANCH   1   2
BRANCH   1  14
HETATM   14  C           1     -24.923  -6.981 -21.325  0.00  0.00     0.101 C 
BRANCH  14  15
HETATM   15  C           1     -23.715  -7.810 -21.637  0.00  0.00     0.028 A 
HETATM   16  C           1     -23.348  -8.211 -22.899  0.00  0.00     0.114 A 
HETATM   17  N           1     -22.203  -8.936 -22.721  0.00  0.00    -0.360 N 
HETATM   18  C           1     -21.927  -8.947 -21.384  0.00  0.00     0.180 A 
HETATM   19  H           1     -21.638  -9.401 -23.475  0.00  0.00     0.166 HD
HETATM   20  N           1     -22.826  -8.274 -20.703  0.00  0.00    -0.355 N 
ATOM     21  HN          1     -22.855  -8.126 -19.694  1.00  0.00     0.166 HD
ENDBRANCH  14  15
ENDBRANCH   1  14
BRANCH   1  22
HETATM   22  N           1     -27.186  -7.705 -20.659  0.00  0.00    -0.066 N 
HETATM   23  H           1     -27.608  -6.757 -20.532  0.00  0.00     0.275 HD
HETATM   24  H           1     -27.252  -7.984 -21.664  0.00  0.00     0.275 HD
HETATM   25  H           1     -27.701  -8.398 -20.070  0.00  0.00     0.275 HD
ENDBRANCH   1  22
TORSDOF 8
ENDMDL
MODEL 3
REMARK VINA RESULT:      -6.6      1.489      2.936
REMARK  8 active torsions:
REMARK  status: ('A' for Active; 'I' for Inactive)
REMARK    1  A    between atoms: C_2  and  C_3 
REMARK    2  A    between atoms: C_3  and  C_6 
REMARK    3  A    between atoms: C_3  and  N_23 
REMARK    4  A    between atoms: C_6  and  C_20 
REMARK       I    between atoms: C_7  and  N_23 
REMARK    5  A    between atoms: C_7  and  C_10 
REMARK    6  A    between atoms: C_8  and  C_9 
REMARK    7  A    between atoms: C_9  and  C_10 
REMARK    8  A    between atoms: C_10  and  N_22 
ROOT
HETATM    1  C           1     -33.909  -3.422 -11.667  0.00  0.00     0.280 C 
ENDROOT
BRANCH   1   2
HETATM    2  C           1     -34.599  -2.653 -12.767  0.00  0.00     0.249 C 
HETATM    3  N           1     -35.212  -1.461 -12.489  0.00  0.00    -0.344 N 
HETATM    4  H           1     -35.202  -1.096 -11.545  0.00  0.00     0.163 HD
HETATM    5  O           1     -34.610  -3.089 -13.893  0.00  0.00    -0.271 OA
BRANCH   3   6
HETATM    6  C           1     -35.875  -0.722 -13.545  0.00  0.00     0.195 C 
BRANCH   6   7
HETATM    7  C           1     -34.921   0.296 -14.121  0.00  0.00     0.197 C 
HETATM    8  O           1     -34.572   1.282 -13.438  0.00  0.00    -0.646 OA
HETATM    9  O           1     -34.480   0.152 -15.282  0.00  0.00    -0.646 OA
ENDBRANCH   6   7
BRANCH   6  10
HETATM   10  C           1     -37.096  -0.009 -12.978  0.00  0.00     0.149 C 
BRANCH  10  11
HETATM   11  C           1     -37.154  -0.222 -11.485  0.00  0.00     0.175 C 
HETATM   12  O           1     -36.432   0.461 -10.728  0.00  0.00    -0.648 OA
HETATM   13  O           1     -37.926  -1.080 -11.006  0.00  0.00    -0.648 OA
ENDBRANCH  10  11
ENDBRANCH   6  10
ENDBRANCH   3   6
ENDBRANCH   1   2
BRANCH   1  14
HETATM   14  C           1     -34.952  -4.104 -10.792  0.00  0.00     0.101 C 
BRANCH  14  15
HETATM   15  C           1     -34.576  -5.540 -10.594  0.00  0.00     0.028 A 
HETATM   16  C           1     -33.437  -6.125 -11.093  0.00  0.00     0.114 A 
HETATM   17  N           1     -33.497  -7.427 -10.679  0.00  0.00    -0.360 N 
HETATM   18  C           1     -34.648  -7.577  -9.960  0.00  0.00     0.180 A 
HETATM   19  H           1     -32.787  -8.176 -10.878  0.00  0.00     0.166 HD
HETATM   20  N           1     -35.321  -6.451  -9.892  0.00  0.00    -0.355 N 
ATOM     21  HN          1     -36.210  -6.289  -9.418  1.00  0.00     0.166 HD
ENDBRANCH  14  15
ENDBRANCH   1  14
BRANCH   1  22
HETATM   22  N           1     -33.096  -2.477 -10.832  0.00  0.00    -0.066 N 
HETATM   23  H           1     -32.288  -2.125 -11.392  0.00  0.00     0.275 HD
HETATM   24  H           1     -33.694  -1.672 -10.536  0.00  0.00     0.275 HD
HETATM   25  H           1     -32.742  -2.977  -9.985  0.00  0.00     0.275 HD
ENDBRANCH   1  22
TORSDOF 8
ENDMDL
MODEL 4
REMARK VINA RESULT:      -6.5     10.789     12.396
REMARK  8 active torsions:
REMARK  status: ('A' for Active; 'I' for Inactive)
REMARK    1  A    between atoms: C_2  and  C_3 
REMARK    2  A    between atoms: C_3  and  C_6 
REMARK    3  A    between atoms: C_3  and  N_23 
REMARK    4  A    between atoms: C_6  and  C_20 
REMARK       I    between atoms: C_7  and  N_23 
REMARK    5  A    between atoms: C_7  and  C_10 
REMARK    6  A    between atoms: C_8  and  C_9 
REMARK    7  A    between atoms: C_9  and  C_10 
REMARK    8  A    between atoms: C_10  and  N_22 
ROOT
HETATM    1  C           1     -25.250  -6.836 -19.903  0.00  0.00     0.280 C 
ENDROOT
BRANCH   1   2
HETATM    2  C           1     -26.632  -6.369 -19.514  0.00  0.00     0.249 C 
HETATM    3  N           1     -27.007  -6.365 -18.197  0.00  0.00    -0.344 N 
HETATM    4  H           1     -26.359  -6.677 -17.485  0.00  0.00     0.163 HD
HETATM    5  O           1     -27.405  -5.997 -20.363  0.00  0.00    -0.271 OA
BRANCH   3   6
HETATM    6  C           1     -28.334  -5.917 -17.823  0.00  0.00     0.195 C 
BRANCH   6   7
HETATM    7  C           1     -28.221  -4.728 -16.901  0.00  0.00     0.197 C 
HETATM    8  O           1     -28.647  -3.611 -17.265  0.00  0.00    -0.646 OA
HETATM    9  O           1     -27.700  -4.861 -15.772  0.00  0.00    -0.646 OA
ENDBRANCH   6   7
BRANCH   6  10
HETATM   10  C           1     -29.070  -7.044 -17.110  0.00  0.00     0.149 C 
BRANCH  10  11
HETATM   11  C           1     -30.336  -7.374 -17.861  0.00  0.00     0.175 C 
HETATM   12  O           1     -31.402  -6.786 -17.579  0.00  0.00    -0.648 OA
HETATM   13  O           1     -30.318  -8.235 -18.768  0.00  0.00    -0.648 OA
ENDBRANCH  10  11
ENDBRANCH   6  10
ENDBRANCH   3   6
ENDBRANCH   1   2
BRANCH   1  14
HETATM   14  C           1     -25.362  -7.935 -20.951  0.00  0.00     0.101 C 
BRANCH  14  15
HETATM   15  C           1     -24.009  -8.217 -21.526  0.00  0.00     0.028 A 
HETATM   16  C           1     -23.593  -7.824 -22.776  0.00  0.00     0.114 A 
HETATM   17  N           1     -22.311  -8.286 -22.885  0.00  0.00    -0.360 N 
HETATM   18  C           1     -22.006  -8.929 -21.719  0.00  0.00     0.180 A 
HETATM   19  H           1     -21.676  -8.168 -23.714  0.00  0.00     0.166 HD
HETATM   20  N           1     -23.014  -8.903 -20.879  0.00  0.00    -0.355 N 
ATOM     21  HN          1     -23.050  -9.307 -19.943  1.00  0.00     0.166 HD
ENDBRANCH  14  15
ENDBRANCH   1  14
BRANCH   1  22
HETATM   22  N           1     -24.544  -7.371 -18.692  0.00  0.00    -0.066 N 
HETATM   23  H           1     -24.484  -8.412 -18.757  0.00  0.00     0.275 HD
HETATM   24  H           1     -23.580  -6.968 -18.645  0.00  0.00     0.275 HD
HETATM   25  H           1     -25.076  -7.105 -17.833  0.00  0.00     0.275 HD
ENDBRANCH   1  22
TORSDOF 8
ENDMDL
MODEL 5
REMARK VINA RESULT:      -6.3     11.015     12.784
REMARK  8 active torsions:
REMARK  status: ('A' for Active; 'I' for Inactive)
REMARK    1  A    between atoms: C_2  and  C_3 
REMARK    2  A    between atoms: C_3  and  C_6 
REMARK    3  A    between atoms: C_3  and  N_23 
REMARK    4  A    between atoms: C_6  and  C_20 
REMARK       I    between atoms: C_7  and  N_23 
REMARK    5  A    between atoms: C_7  and  C_10 
REMARK    6  A    between atoms: C_8  and  C_9 
REMARK    7  A    between atoms: C_9  and  C_10 
REMARK    8  A    between atoms: C_10  and  N_22 
ROOT
HETATM    1  C           1     -25.545  -6.781 -20.280  0.00  0.00     0.280 C 
ENDROOT
BRANCH   1   2
HETATM    2  C           1     -26.811  -6.707 -19.463  0.00  0.00     0.249 C 
HETATM    3  N           1     -26.773  -6.223 -18.183  0.00  0.00    -0.344 N 
HETATM    4  H           1     -25.895  -5.915 -17.784  0.00  0.00     0.163 HD
HETATM    5  O           1     -27.859  -7.075 -19.938  0.00  0.00    -0.271 OA
BRANCH   3   6
HETATM    6  C           1     -27.990  -6.152 -17.397  0.00  0.00     0.195 C 
BRANCH   6   7
HETATM    7  C           1     -28.557  -4.756 -17.474  0.00  0.00     0.197 C 
HETATM    8  O           1     -28.147  -3.871 -16.693  0.00  0.00    -0.646 OA
HETATM    9  O           1     -29.437  -4.485 -18.320  0.00  0.00    -0.646 OA
ENDBRANCH   6   7
BRANCH   6  10
HETATM   10  C           1     -27.679  -6.495 -15.946  0.00  0.00     0.149 C 
BRANCH  10  11
HETATM   11  C           1     -26.184  -6.562 -15.754  0.00  0.00     0.175 C 
HETATM   12  O           1     -25.656  -7.607 -15.315  0.00  0.00    -0.648 OA
HETATM   13  O           1     -25.472  -5.574 -16.037  0.00  0.00    -0.648 OA
ENDBRANCH  10  11
ENDBRANCH   6  10
ENDBRANCH   3   6
ENDBRANCH   1   2
BRANCH   1  14
HETATM   14  C           1     -25.518  -8.088 -21.060  0.00  0.00     0.101 C 
BRANCH  14  15
HETATM   15  C           1     -24.138  -8.325 -21.590  0.00  0.00     0.028 A 
HETATM   16  C           1     -23.694  -7.915 -22.825  0.00  0.00     0.114 A 
HETATM   17  N           1     -22.395  -8.336 -22.892  0.00  0.00    -0.360 N 
HETATM   18  C           1     -22.108  -8.973 -21.719  0.00  0.00     0.180 A 
HETATM   19  H           1     -21.737  -8.196 -23.700  0.00  0.00     0.166 HD
HETATM   20  N           1     -23.144  -8.982 -20.912  0.00  0.00    -0.355 N 
ATOM     21  HN          1     -23.198  -9.390 -19.978  1.00  0.00     0.166 HD
ENDBRANCH  14  15
ENDBRANCH   1  14
BRANCH   1  22
HETATM   22  N           1     -24.357  -6.720 -19.366  0.00  0.00    -0.066 N 
HETATM   23  H           1     -23.673  -6.018 -19.731  0.00  0.00     0.275 HD
HETATM   24  H           1     -24.668  -6.439 -18.408  0.00  0.00     0.275 HD
HETATM   25  H           1     -23.902  -7.660 -19.323  0.00  0.00     0.275 HD
ENDBRANCH   1  22
TORSDOF 8
ENDMDL
MODEL 6
REMARK VINA RESULT:      -6.2     12.404     14.133
REMARK  8 active torsions:
REMARK  status: ('A' for Active; 'I' for Inactive)
REMARK    1  A    between atoms: C_2  and  C_3 
REMARK    2  A    between atoms: C_3  and  C_6 
REMARK    3  A    between atoms: C_3  and  N_23 
REMARK    4  A    between atoms: C_6  and  C_20 
REMARK       I    between atoms: C_7  and  N_23 
REMARK    5  A    between atoms: C_7  and  C_10 
REMARK    6  A    between atoms: C_8  and  C_9 
REMARK    7  A    between atoms: C_9  and  C_10 
REMARK    8  A    between atoms: C_10  and  N_22 
ROOT
HETATM    1  C           1     -21.132  -5.587  -6.911  0.00  0.00     0.280 C 
ENDROOT
BRANCH   1   2
HETATM    2  C           1     -21.747  -4.413  -7.633  0.00  0.00     0.249 C 
HETATM    3  N           1     -22.437  -4.612  -8.799  0.00  0.00    -0.344 N 
HETATM    4  H           1     -22.533  -5.546  -9.177  0.00  0.00     0.163 HD
HETATM    5  O           1     -21.632  -3.299  -7.182  0.00  0.00    -0.271 OA
BRANCH   3   6
HETATM    6  C           1     -23.029  -3.485  -9.493  0.00  0.00     0.195 C 
BRANCH   6   7
HETATM    7  C           1     -24.366  -3.891 -10.060  0.00  0.00     0.197 C 
HETATM    8  O           1     -24.981  -3.118 -10.827  0.00  0.00    -0.646 OA
HETATM    9  O           1     -24.861  -5.000  -9.763  0.00  0.00    -0.646 OA
ENDBRANCH   6   7
BRANCH   6  10
HETATM   10  C           1     -22.109  -3.046 -10.625  0.00  0.00     0.149 C 
BRANCH  10  11
HETATM   11  C           1     -21.382  -4.247 -11.177  0.00  0.00     0.175 C 
HETATM   12  O           1     -20.242  -4.537 -10.753  0.00  0.00    -0.648 OA
HETATM   13  O           1     -21.919  -4.953 -12.058  0.00  0.00    -0.648 OA
ENDBRANCH  10  11
ENDBRANCH   6  10
ENDBRANCH   3   6
ENDBRANCH   1   2
BRANCH   1  14
HETATM   14  C           1     -20.651  -5.142  -5.536  0.00  0.00     0.101 C 
BRANCH  14  15
HETATM   15  C           1     -21.071  -6.150  -4.511  0.00  0.00     0.028 A 
HETATM   16  C           1     -21.138  -7.505  -4.729  0.00  0.00     0.114 A 
HETATM   17  N           1     -21.560  -8.035  -3.542  0.00  0.00    -0.360 N 
HETATM   18  C           1     -21.731  -7.000  -2.667  0.00  0.00     0.180 A 
HETATM   19  H           1     -21.725  -9.053  -3.339  0.00  0.00     0.166 HD
HETATM   20  N           1     -21.442  -5.847  -3.226  0.00  0.00    -0.355 N 
ATOM     21  HN          1     -21.484  -4.923  -2.796  1.00  0.00     0.166 HD
ENDBRANCH  14  15
ENDBRANCH   1  14
BRANCH   1  22
HETATM   22  N           1     -19.967  -6.105  -7.702  0.00  0.00    -0.066 N 
HETATM   23  H           1     -19.397  -5.301  -8.049  0.00  0.00     0.275 HD
HETATM   24  H           1     -19.376  -6.715  -7.093  0.00  0.00     0.275 HD
HETATM   25  H           1     -20.318  -6.660  -8.515  0.00  0.00     0.275 HD
ENDBRANCH   1  22
TORSDOF 8
ENDMDL
MODEL 7
REMARK VINA RESULT:      -6.2     12.220     14.046
REMARK  8 active torsions:
REMARK  status: ('A' for Active; 'I' for Inactive)
REMARK    1  A    between atoms: C_2  and  C_3 
REMARK    2  A    between atoms: C_3  and  C_6 
REMARK    3  A    between atoms: C_3  and  N_23 
REMARK    4  A    between atoms: C_6  and  C_20 
REMARK       I    between atoms: C_7  and  N_23 
REMARK    5  A    between atoms: C_7  and  C_10 
REMARK    6  A    between atoms: C_8  and  C_9 
REMARK    7  A    between atoms: C_9  and  C_10 
REMARK    8  A    between atoms: C_10  and  N_22 
ROOT
HETATM    1  C           1     -21.565  -4.210  -6.857  0.00  0.00     0.280 C 
ENDROOT
BRANCH   1   2
HETATM    2  C           1     -21.328  -4.612  -8.293  0.00  0.00     0.249 C 
HETATM    3  N           1     -22.189  -4.195  -9.272  0.00  0.00    -0.344 N 
HETATM    4  H           1     -22.986  -3.617  -9.033  0.00  0.00     0.163 HD
HETATM    5  O           1     -20.379  -5.302  -8.578  0.00  0.00    -0.271 OA
BRANCH   3   6
HETATM    6  C           1     -21.962  -4.581 -10.651  0.00  0.00     0.195 C 
BRANCH   6   7
HETATM    7  C           1     -21.136  -3.522 -11.339  0.00  0.00     0.197 C 
HETATM    8  O           1     -21.673  -2.459 -11.717  0.00  0.00    -0.646 OA
HETATM    9  O           1     -19.915  -3.708 -11.530  0.00  0.00    -0.646 OA
ENDBRANCH   6   7
BRANCH   6  10
HETATM   10  C           1     -23.299  -4.725 -11.366  0.00  0.00     0.149 C 
BRANCH  10  11
HETATM   11  C           1     -24.394  -4.136 -10.510  0.00  0.00     0.175 C 
HETATM   12  O           1     -24.988  -4.851  -9.675  0.00  0.00    -0.648 OA
HETATM   13  O           1     -24.705  -2.931 -10.635  0.00  0.00    -0.648 OA
ENDBRANCH  10  11
ENDBRANCH   6  10
ENDBRANCH   3   6
ENDBRANCH   1   2
BRANCH   1  14
HETATM   14  C           1     -20.451  -4.768  -5.983  0.00  0.00     0.101 C 
BRANCH  14  15
HETATM   15  C           1     -20.872  -6.089  -5.419  0.00  0.00     0.028 A 
HETATM   16  C           1     -21.329  -6.282  -4.137  0.00  0.00     0.114 A 
HETATM   17  N           1     -21.594  -7.621  -4.054  0.00  0.00    -0.360 N 
HETATM   18  C           1     -21.292  -8.176  -5.264  0.00  0.00     0.180 A 
HETATM   19  H           1     -21.962  -8.130  -3.211  0.00  0.00     0.166 HD
HETATM   20  N           1     -20.853  -7.273  -6.110  0.00  0.00    -0.355 N 
ATOM     21  HN          1     -20.560  -7.420  -7.076  1.00  0.00     0.166 HD
ENDBRANCH  14  15
ENDBRANCH   1  14
BRANCH   1  22
HETATM   22  N           1     -22.883  -4.759  -6.396  0.00  0.00    -0.066 N 
HETATM   23  H           1     -22.810  -5.042  -5.393  0.00  0.00     0.275 HD
HETATM   24  H           1     -23.621  -4.025  -6.499  0.00  0.00     0.275 HD
HETATM   25  H           1     -23.136  -5.591  -6.976  0.00  0.00     0.275 HD
ENDBRANCH   1  22
TORSDOF 8
ENDMDL
MODEL 8
REMARK VINA RESULT:      -5.9      1.891      3.583
REMARK  8 active torsions:
REMARK  status: ('A' for Active; 'I' for Inactive)
REMARK    1  A    between atoms: C_2  and  C_3 
REMARK    2  A    between atoms: C_3  and  C_6 
REMARK    3  A    between atoms: C_3  and  N_23 
REMARK    4  A    between atoms: C_6  and  C_20 
REMARK       I    between atoms: C_7  and  N_23 
REMARK    5  A    between atoms: C_7  and  C_10 
REMARK    6  A    between atoms: C_8  and  C_9 
REMARK    7  A    between atoms: C_9  and  C_10 
REMARK    8  A    between atoms: C_10  and  N_22 
ROOT
HETATM    1  C           1     -35.312  -1.521 -11.195  0.00  0.00     0.280 C 
ENDROOT
BRANCH   1   2
HETATM    2  C           1     -35.928  -1.080 -12.500  0.00  0.00     0.249 C 
HETATM    3  N           1     -35.152  -0.973 -13.623  0.00  0.00    -0.344 N 
HETATM    4  H           1     -34.164  -1.189 -13.577  0.00  0.00     0.163 HD
HETATM    5  O           1     -37.106  -0.822 -12.555  0.00  0.00    -0.271 OA
BRANCH   3   6
HETATM    6  C           1     -35.743  -0.550 -14.877  0.00  0.00     0.195 C 
BRANCH   6   7
HETATM    7  C           1     -35.354  -1.517 -15.968  0.00  0.00     0.197 C 
HETATM    8  O           1     -35.669  -1.281 -17.154  0.00  0.00    -0.646 OA
HETATM    9  O           1     -34.717  -2.554 -15.685  0.00  0.00    -0.646 OA
ENDBRANCH   6   7
BRANCH   6  10
HETATM   10  C           1     -35.241   0.844 -15.231  0.00  0.00     0.149 C 
BRANCH  10  11
HETATM   11  C           1     -36.334   1.610 -15.935  0.00  0.00     0.175 C 
HETATM   12  O           1     -36.073   2.692 -16.503  0.00  0.00    -0.648 OA
HETATM   13  O           1     -37.500   1.160 -15.952  0.00  0.00    -0.648 OA
ENDBRANCH  10  11
ENDBRANCH   6  10
ENDBRANCH   3   6
ENDBRANCH   1   2
BRANCH   1  14
HETATM   14  C           1     -35.673  -2.976 -10.929  0.00  0.00     0.101 C 
BRANCH  14  15
HETATM   15  C           1     -34.513  -3.852 -11.290  0.00  0.00     0.028 A 
HETATM   16  C           1     -34.538  -5.226 -11.274  0.00  0.00     0.114 A 
HETATM   17  N           1     -33.285  -5.608 -11.668  0.00  0.00    -0.360 N 
HETATM   18  C           1     -32.564  -4.471 -11.901  0.00  0.00     0.180 A 
HETATM   19  H           1     -32.940  -6.595 -11.771  0.00  0.00     0.166 HD
HETATM   20  N           1     -33.282  -3.394 -11.681  0.00  0.00    -0.355 N 
ATOM     21  HN          1     -32.986  -2.423 -11.780  1.00  0.00     0.166 HD
ENDBRANCH  14  15
ENDBRANCH   1  14
BRANCH   1  22
HETATM   22  N           1     -35.836  -0.665 -10.081  0.00  0.00    -0.066 N 
HETATM   23  H           1     -36.881  -0.662 -10.107  0.00  0.00     0.275 HD
HETATM   24  H           1     -35.512  -1.049  -9.164  0.00  0.00     0.275 HD
HETATM   25  H           1     -35.482   0.312 -10.195  0.00  0.00     0.275 HD
ENDBRANCH   1  22
TORSDOF 8
ENDMDL
MODEL 9
REMARK VINA RESULT:      -5.8     13.670     16.327
REMARK  8 active torsions:
REMARK  status: ('A' for Active; 'I' for Inactive)
REMARK    1  A    between atoms: C_2  and  C_3 
REMARK    2  A    between atoms: C_3  and  C_6 
REMARK    3  A    between atoms: C_3  and  N_23 
REMARK    4  A    between atoms: C_6  and  C_20 
REMARK       I    between atoms: C_7  and  N_23 
REMARK    5  A    between atoms: C_7  and  C_10 
REMARK    6  A    between atoms: C_8  and  C_9 
REMARK    7  A    between atoms: C_9  and  C_10 
REMARK    8  A    between atoms: C_10  and  N_22 
ROOT
HETATM    1  C           1     -21.169  -4.855  -6.454  0.00  0.00     0.280 C 
ENDROOT
BRANCH   1   2
HETATM    2  C           1     -21.874  -5.784  -5.496  0.00  0.00     0.249 C 
HETATM    3  N           1     -21.145  -6.586  -4.659  0.00  0.00    -0.344 N 
HETATM    4  H           1     -20.134  -6.557  -4.684  0.00  0.00     0.163 HD
HETATM    5  O           1     -23.081  -5.819  -5.466  0.00  0.00    -0.271 OA
BRANCH   3   6
HETATM    6  C           1     -21.822  -7.479  -3.739  0.00  0.00     0.195 C 
BRANCH   6   7
HETATM    7  C           1     -21.683  -6.950  -2.333  0.00  0.00     0.197 C 
HETATM    8  O           1     -22.245  -5.883  -2.008  0.00  0.00    -0.646 OA
HETATM    9  O           1     -21.004  -7.580  -1.492  0.00  0.00    -0.646 OA
ENDBRANCH   6   7
BRANCH   6  10
HETATM   10  C           1     -21.197  -8.866  -3.823  0.00  0.00     0.149 C 
BRANCH  10  11
HETATM   11  C           1     -19.907  -8.790  -4.601  0.00  0.00     0.175 C 
HETATM   12  O           1     -18.816  -8.712  -3.996  0.00  0.00    -0.648 OA
HETATM   13  O           1     -19.928  -8.806  -5.851  0.00  0.00    -0.648 OA
ENDBRANCH  10  11
ENDBRANCH   6  10
ENDBRANCH   3   6
ENDBRANCH   1   2
BRANCH   1  14
HETATM   14  C           1     -21.270  -5.411  -7.868  0.00  0.00     0.101 C 
BRANCH  14  15
HETATM   15  C           1     -22.278  -4.621  -8.644  0.00  0.00     0.028 A 
HETATM   16  C           1     -22.147  -4.273  -9.967  0.00  0.00     0.114 A 
HETATM   17  N           1     -23.281  -3.567 -10.262  0.00  0.00    -0.360 N 
HETATM   18  C           1     -24.039  -3.515  -9.127  0.00  0.00     0.180 A 
HETATM   19  H           1     -23.524  -3.141 -11.191  0.00  0.00     0.166 HD
HETATM   20  N           1     -23.457  -4.144  -8.132  0.00  0.00    -0.355 N 
ATOM     21  HN          1     -23.808  -4.255  -7.180  1.00  0.00     0.166 HD
ENDBRANCH  14  15
ENDBRANCH   1  14
BRANCH   1  22
HETATM   22  N           1     -19.725  -4.739  -6.065  0.00  0.00    -0.066 N 
HETATM   23  H           1     -19.593  -3.891  -5.469  0.00  0.00     0.275 HD
HETATM   24  H           1     -19.439  -5.590  -5.529  0.00  0.00     0.275 HD
HETATM   25  H           1     -19.138  -4.655  -6.926  0.00  0.00     0.275 HD
ENDBRANCH   1  22
TORSDOF 8
ENDMDL
