MODEL 1
REMARK VINA RESULT:      -6.0      0.000      0.000
REMARK  7 active torsions:
REMARK  status: ('A' for Active; 'I' for Inactive)
REMARK    1  A    between atoms: C_2  and  C_4 
REMARK    2  A    between atoms: C_2  and  C_12 
REMARK    3  A    between atoms: C_2  and  N_9 
REMARK    4  A    between atoms: N_5  and  C_16 
REMARK       I    between atoms: N_9  and  C_10 
REMARK    5  A    between atoms: C_10  and  C_16 
REMARK    6  A    between atoms: C_16  and  C_20 
REMARK    7  A    between atoms: O_19  and  C_20 
ROOT
HETATM    1  N           1     -22.243  -4.815  -9.076  0.00  0.00    -0.344 N 
HETATM    2  C           1     -21.764  -4.697  -7.798  0.00  0.00     0.251 C 
HETATM    3  O           1     -21.726  -3.613  -7.266  0.00  0.00    -0.271 OA
HETATM    4  H           1     -22.275  -5.724  -9.522  0.00  0.00     0.163 HD
ENDROOT
BRANCH   2   5
HETATM    5  C           1     -21.283  -5.919  -7.057  0.00  0.00     0.302 C 
BRANCH   5   6
HETATM    6  N           1     -19.838  -6.161  -7.376  0.00  0.00    -0.064 N 
HETATM    7  H           1     -19.353  -5.245  -7.512  0.00  0.00     0.275 HD
HETATM    8  H           1     -19.389  -6.678  -6.587  0.00  0.00     0.275 HD
HETATM    9  H           1     -19.765  -6.728  -8.251  0.00  0.00     0.275 HD
ENDBRANCH   5   6
BRANCH   5  10
HETATM   10  C           1     -21.440  -5.699  -5.557  0.00  0.00     0.153 C 
HETATM   11  C           1     -21.420  -7.043  -4.842  0.00  0.00     0.042 C 
BRANCH  10  12
HETATM   12  O           1     -20.386  -4.904  -5.088  0.00  0.00    -0.393 OA
HETATM   13  H           1     -19.587  -5.303  -5.389  0.00  0.00     0.210 HD
ENDBRANCH  10  12
ENDBRANCH   5  10
ENDBRANCH   2   5
BRANCH   1  14
HETATM   14  C           1     -22.705  -3.642  -9.789  0.00  0.00     0.189 C 
BRANCH  14  15
HETATM   15  C           1     -21.916  -3.491 -11.083  0.00  0.00     0.010 C 
HETATM   16  C           1     -22.202  -4.678 -11.992  0.00  0.00     0.012 C 
HETATM   17  C           1     -20.427  -3.440 -10.766  0.00  0.00     0.012 C 
ENDBRANCH  14  15
BRANCH  14  18
HETATM   18  C           1     -24.173  -3.794 -10.109  0.00  0.00     0.197 C 
HETATM   19  O           1     -24.777  -2.886 -10.719  0.00  0.00    -0.646 OA
HETATM   20  O           1     -24.784  -4.828  -9.763  0.00  0.00    -0.646 OA
ENDBRANCH  14  18
ENDBRANCH   1  14
TORSDOF 7
ENDMDL
MODEL 2
REMARK VINA RESULT:      -5.8     10.864     12.507
REMARK  7 active torsions:
REMARK  status: ('A' for Active; 'I' for Inactive)
REMARK    1  A    between atoms: C_2  and  C_4 
REMARK    2  A    between atoms: C_2  and  C_12 
REMARK    3  A    between atoms: C_2  and  N_9 
REMARK    4  A    between atoms: N_5  and  C_16 
REMARK       I    between atoms: N_9  and  C_10 
REMARK    5  A    between atoms: C_10  and  C_16 
REMARK    6  A    between atoms: C_16  and  C_20 
REMARK    7  A    between atoms: O_19  and  C_20 
ROOT
HETATM    1  N           1     -27.049  -6.348 -18.496  0.00  0.00    -0.344 N 
HETATM    2  C           1     -26.482  -6.306 -19.741  0.00  0.00     0.251 C 
HETATM    3  O           1     -27.117  -5.884 -20.679  0.00  0.00    -0.271 OA
HETATM    4  H           1     -26.517  -6.702 -17.710  0.00  0.00     0.163 HD
ENDROOT
BRANCH   2   5
HETATM    5  C           1     -25.067  -6.788 -19.944  0.00  0.00     0.302 C 
BRANCH   5   6
HETATM    6  N           1     -24.641  -7.599 -18.758  0.00  0.00    -0.064 N 
HETATM    7  H           1     -24.828  -8.611 -18.941  0.00  0.00     0.275 HD
HETATM    8  H           1     -23.619  -7.460 -18.589  0.00  0.00     0.275 HD
HETATM    9  H           1     -25.178  -7.293 -17.915  0.00  0.00     0.275 HD
ENDBRANCH   5   6
BRANCH   5  10
HETATM   10  C           1     -24.998  -7.650 -21.198  0.00  0.00     0.153 C 
HETATM   11  C           1     -23.644  -8.343 -21.263  0.00  0.00     0.042 C 
BRANCH  10  12
HETATM   12  O           1     -26.016  -8.613 -21.161  0.00  0.00    -0.393 OA
HETATM   13  H           1     -26.784  -8.187 -20.821  0.00  0.00     0.210 HD
ENDBRANCH  10  12
ENDBRANCH   5  10
ENDBRANCH   2   5
BRANCH   1  14
HETATM   14  C           1     -28.408  -5.886 -18.300  0.00  0.00     0.189 C 
BRANCH  14  15
HETATM   15  C           1     -29.247  -7.012 -17.710  0.00  0.00     0.010 C 
HETATM   16  C           1     -29.548  -8.040 -18.793  0.00  0.00     0.012 C 
HETATM   17  C           1     -30.553  -6.443 -17.172  0.00  0.00     0.012 C 
ENDBRANCH  14  15
BRANCH  14  18
HETATM   18  C           1     -28.408  -4.709 -17.354  0.00  0.00     0.197 C 
HETATM   19  O           1     -28.984  -3.648 -17.678  0.00  0.00    -0.646 OA
HETATM   20  O           1     -27.831  -4.796 -16.249  0.00  0.00    -0.646 OA
ENDBRANCH  14  18
ENDBRANCH   1  14
TORSDOF 7
ENDMDL
MODEL 3
REMARK VINA RESULT:      -5.2     17.361     19.176
REMARK  7 active torsions:
REMARK  status: ('A' for Active; 'I' for Inactive)
REMARK    1  A    between atoms: C_2  and  C_4 
REMARK    2  A    between atoms: C_2  and  C_12 
REMARK    3  A    between atoms: C_2  and  N_9 
REMARK    4  A    between atoms: N_5  and  C_16 
REMARK       I    between atoms: N_9  and  C_10 
REMARK    5  A    between atoms: C_10  and  C_16 
REMARK    6  A    between atoms: C_16  and  C_20 
REMARK    7  A    between atoms: O_19  and  C_20 
ROOT
HETATM    1  N           1     -12.539   6.335 -20.212  0.00  0.00    -0.344 N 
HETATM    2  C           1     -12.564   7.577 -20.788  0.00  0.00     0.251 C 
HETATM    3  O           1     -13.128   7.741 -21.844  0.00  0.00    -0.271 OA
HETATM    4  H           1     -12.067   6.198 -19.327  0.00  0.00     0.163 HD
ENDROOT
BRANCH   2   5
HETATM    5  C           1     -11.887   8.739 -20.105  0.00  0.00     0.302 C 
BRANCH   5   6
HETATM    6  N           1     -12.699   9.164 -18.919  0.00  0.00    -0.064 N 
HETATM    7  H           1     -13.327   8.381 -18.628  0.00  0.00     0.275 HD
HETATM    8  H           1     -12.059   9.407 -18.129  0.00  0.00     0.275 HD
HETATM    9  H           1     -13.275   9.998 -19.171  0.00  0.00     0.275 HD
ENDBRANCH   5   6
BRANCH   5  10
HETATM   10  C           1     -10.497   8.319 -19.645  0.00  0.00     0.153 C 
HETATM   11  C           1      -9.451   8.929 -20.568  0.00  0.00     0.042 C 
BRANCH  10  12
HETATM   12  O           1     -10.283   8.768 -18.334  0.00  0.00    -0.393 OA
HETATM   13  H           1      -9.351   8.772 -18.195  0.00  0.00     0.210 HD
ENDBRANCH  10  12
ENDBRANCH   5  10
ENDBRANCH   2   5
BRANCH   1  14
HETATM   14  C           1     -13.189   5.218 -20.868  0.00  0.00     0.189 C 
BRANCH  14  15
HETATM   15  C           1     -12.587   3.913 -20.363  0.00  0.00     0.010 C 
HETATM   16  C           1     -11.070   4.035 -20.330  0.00  0.00     0.012 C 
HETATM   17  C           1     -12.987   2.776 -21.294  0.00  0.00     0.012 C 
ENDBRANCH  14  15
BRANCH  14  18
HETATM   18  C           1     -14.667   5.244 -20.558  0.00  0.00     0.197 C 
HETATM   19  O           1     -15.057   5.207 -19.372  0.00  0.00    -0.646 OA
HETATM   20  O           1     -15.499   5.303 -21.489  0.00  0.00    -0.646 OA
ENDBRANCH  14  18
ENDBRANCH   1  14
TORSDOF 7
ENDMDL
MODEL 4
REMARK VINA RESULT:      -5.2      9.235     11.069
REMARK  7 active torsions:
REMARK  status: ('A' for Active; 'I' for Inactive)
REMARK    1  A    between atoms: C_2  and  C_4 
REMARK    2  A    between atoms: C_2  and  C_12 
REMARK    3  A    between atoms: C_2  and  N_9 
REMARK    4  A    between atoms: N_5  and  C_16 
REMARK       I    between atoms: N_9  and  C_10 
REMARK    5  A    between atoms: C_10  and  C_16 
REMARK    6  A    between atoms: C_16  and  C_20 
REMARK    7  A    between atoms: O_19  and  C_20 
ROOT
HETATM    1  N           1     -27.187  -6.106 -17.679  0.00  0.00    -0.344 N 
HETATM    2  C           1     -28.316  -6.471 -16.995  0.00  0.00     0.251 C 
HETATM    3  O           1     -28.318  -7.478 -16.329  0.00  0.00    -0.271 OA
HETATM    4  H           1     -27.184  -5.262 -18.238  0.00  0.00     0.163 HD
ENDROOT
BRANCH   2   5
HETATM    5  C           1     -29.556  -5.615 -17.075  0.00  0.00     0.302 C 
BRANCH   5   6
HETATM    6  N           1     -30.203  -5.546 -15.725  0.00  0.00    -0.064 N 
HETATM    7  H           1     -31.227  -5.727 -15.819  0.00  0.00     0.275 HD
HETATM    8  H           1     -29.778  -6.267 -15.098  0.00  0.00     0.275 HD
HETATM    9  H           1     -30.053  -4.596 -15.315  0.00  0.00     0.275 HD
ENDBRANCH   5   6
BRANCH   5  10
HETATM   10  C           1     -29.177  -4.211 -17.529  0.00  0.00     0.153 C 
HETATM   11  C           1     -30.420  -3.332 -17.549  0.00  0.00     0.042 C 
BRANCH  10  12
HETATM   12  O           1     -28.236  -3.671 -16.641  0.00  0.00    -0.393 OA
HETATM   13  H           1     -28.397  -2.744 -16.602  0.00  0.00     0.210 HD
ENDBRANCH  10  12
ENDBRANCH   5  10
ENDBRANCH   2   5
BRANCH   1  14
HETATM   14  C           1     -25.995  -6.928 -17.603  0.00  0.00     0.189 C 
BRANCH  14  15
HETATM   15  C           1     -25.043  -6.545 -18.728  0.00  0.00     0.010 C 
HETATM   16  C           1     -25.686  -6.870 -20.069  0.00  0.00     0.012 C 
HETATM   17  C           1     -23.745  -7.330 -18.583  0.00  0.00     0.012 C 
ENDBRANCH  14  15
BRANCH  14  18
HETATM   18  C           1     -25.317  -6.708 -16.272  0.00  0.00     0.197 C 
HETATM   19  O           1     -25.027  -7.686 -15.550  0.00  0.00    -0.646 OA
HETATM   20  O           1     -25.047  -5.548 -15.893  0.00  0.00    -0.646 OA
ENDBRANCH  14  18
ENDBRANCH   1  14
TORSDOF 7
ENDMDL
MODEL 5
REMARK VINA RESULT:      -5.1      1.756      5.556
REMARK  7 active torsions:
REMARK  status: ('A' for Active; 'I' for Inactive)
REMARK    1  A    between atoms: C_2  and  C_4 
REMARK    2  A    between atoms: C_2  and  C_12 
REMARK    3  A    between atoms: C_2  and  N_9 
REMARK    4  A    between atoms: N_5  and  C_16 
REMARK       I    between atoms: N_9  and  C_10 
REMARK    5  A    between atoms: C_10  and  C_16 
REMARK    6  A    between atoms: C_16  and  C_20 
REMARK    7  A    between atoms: O_19  and  C_20 
ROOT
HETATM    1  N           1     -22.111  -5.402  -7.330  0.00  0.00    -0.344 N 
HETATM    2  C           1     -22.433  -4.294  -8.067  0.00  0.00     0.251 C 
HETATM    3  O           1     -21.896  -3.238  -7.833  0.00  0.00    -0.271 OA
HETATM    4  H           1     -22.561  -6.288  -7.525  0.00  0.00     0.163 HD
ENDROOT
BRANCH   2   5
HETATM    5  C           1     -23.456  -4.393  -9.170  0.00  0.00     0.302 C 
BRANCH   5   6
HETATM    6  N           1     -24.430  -3.259  -9.052  0.00  0.00    -0.064 N 
HETATM    7  H           1     -25.399  -3.612  -9.218  0.00  0.00     0.275 HD
HETATM    8  H           1     -24.369  -2.848  -8.093  0.00  0.00     0.275 HD
HETATM    9  H           1     -24.199  -2.527  -9.761  0.00  0.00     0.275 HD
ENDBRANCH   5   6
BRANCH   5  10
HETATM   10  C           1     -22.757  -4.321 -10.522  0.00  0.00     0.153 C 
HETATM   11  C           1     -23.618  -5.005 -11.576  0.00  0.00     0.042 C 
BRANCH  10  12
HETATM   12  O           1     -22.561  -2.979 -10.876  0.00  0.00    -0.393 OA
HETATM   13  H           1     -21.725  -2.723 -10.525  0.00  0.00     0.210 HD
ENDBRANCH  10  12
ENDBRANCH   5  10
ENDBRANCH   2   5
BRANCH   1  14
HETATM   14  C           1     -21.128  -5.308  -6.269  0.00  0.00     0.189 C 
BRANCH  14  15
HETATM   15  C           1     -21.475  -6.298  -5.165  0.00  0.00     0.010 C 
HETATM   16  C           1     -22.987  -6.454  -5.083  0.00  0.00     0.012 C 
HETATM   17  C           1     -20.943  -5.782  -3.835  0.00  0.00     0.012 C 
ENDBRANCH  14  15
BRANCH  14  18
HETATM   18  C           1     -19.760  -5.629  -6.822  0.00  0.00     0.197 C 
HETATM   19  O           1     -18.975  -4.704  -7.122  0.00  0.00    -0.646 OA
HETATM   20  O           1     -19.413  -6.820  -6.980  0.00  0.00    -0.646 OA
ENDBRANCH  14  18
ENDBRANCH   1  14
TORSDOF 7
ENDMDL
MODEL 6
REMARK VINA RESULT:      -5.1      4.624      8.428
REMARK  7 active torsions:
REMARK  status: ('A' for Active; 'I' for Inactive)
REMARK    1  A    between atoms: C_2  and  C_4 
REMARK    2  A    between atoms: C_2  and  C_12 
REMARK    3  A    between atoms: C_2  and  N_9 
REMARK    4  A    between atoms: N_5  and  C_16 
REMARK       I    between atoms: N_9  and  C_10 
REMARK    5  A    between atoms: C_10  and  C_16 
REMARK    6  A    between atoms: C_16  and  C_20 
REMARK    7  A    between atoms: O_19  and  C_20 
ROOT
HETATM    1  N           1     -21.549  -8.346  -2.760  0.00  0.00    -0.344 N 
HETATM    2  C           1     -20.426  -8.262  -3.539  0.00  0.00     0.251 C 
HETATM    3  O           1     -19.416  -8.834  -3.205  0.00  0.00    -0.271 OA
HETATM    4  H           1     -22.396  -7.867  -3.040  0.00  0.00     0.163 HD
ENDROOT
BRANCH   2   5
HETATM    5  C           1     -20.451  -7.455  -4.814  0.00  0.00     0.302 C 
BRANCH   5   6
HETATM    6  N           1     -21.242  -8.189  -5.854  0.00  0.00    -0.064 N 
HETATM    7  H           1     -21.940  -7.541  -6.284  0.00  0.00     0.275 HD
HETATM    8  H           1     -20.596  -8.545  -6.595  0.00  0.00     0.275 HD
HETATM    9  H           1     -21.740  -8.994  -5.411  0.00  0.00     0.275 HD
ENDBRANCH   5   6
BRANCH   5  10
HETATM   10  C           1     -21.098  -6.102  -4.547  0.00  0.00     0.153 C 
HETATM   11  C           1     -20.522  -5.067  -5.503  0.00  0.00     0.042 C 
BRANCH  10  12
HETATM   12  O           1     -22.483  -6.199  -4.741  0.00  0.00    -0.393 OA
HETATM   13  H           1     -22.622  -6.319  -5.665  0.00  0.00     0.210 HD
ENDBRANCH  10  12
ENDBRANCH   5  10
ENDBRANCH   2   5
BRANCH   1  14
HETATM   14  C           1     -21.526  -9.121  -1.535  0.00  0.00     0.189 C 
BRANCH  14  15
HETATM   15  C           1     -22.250  -8.354  -0.436  0.00  0.00     0.010 C 
HETATM   16  C           1     -22.388  -6.894  -0.844  0.00  0.00     0.012 C 
HETATM   17  C           1     -21.453  -8.448   0.858  0.00  0.00     0.012 C 
ENDBRANCH  14  15
BRANCH  14  18
HETATM   18  C           1     -22.215 -10.444  -1.765  0.00  0.00     0.197 C 
HETATM   19  O           1     -23.367 -10.634  -1.320  0.00  0.00    -0.646 OA
HETATM   20  O           1     -21.632 -11.350  -2.400  0.00  0.00    -0.646 OA
ENDBRANCH  14  18
ENDBRANCH   1  14
TORSDOF 7
ENDMDL
MODEL 7
REMARK VINA RESULT:      -4.9      2.445      6.329
REMARK  7 active torsions:
REMARK  status: ('A' for Active; 'I' for Inactive)
REMARK    1  A    between atoms: C_2  and  C_4 
REMARK    2  A    between atoms: C_2  and  C_12 
REMARK    3  A    between atoms: C_2  and  N_9 
REMARK    4  A    between atoms: N_5  and  C_16 
REMARK       I    between atoms: N_9  and  C_10 
REMARK    5  A    between atoms: C_10  and  C_16 
REMARK    6  A    between atoms: C_16  and  C_20 
REMARK    7  A    between atoms: O_19  and  C_20 
ROOT
HETATM    1  N           1     -21.556  -6.298  -5.414  0.00  0.00    -0.344 N 
HETATM    2  C           1     -21.021  -5.447  -6.342  0.00  0.00     0.251 C 
HETATM    3  O           1     -19.822  -5.364  -6.464  0.00  0.00    -0.271 OA
HETATM    4  H           1     -22.561  -6.368  -5.311  0.00  0.00     0.163 HD
ENDROOT
BRANCH   2   5
HETATM    5  C           1     -21.927  -4.612  -7.212  0.00  0.00     0.302 C 
BRANCH   5   6
HETATM    6  N           1     -21.617  -3.159  -7.008  0.00  0.00    -0.064 N 
HETATM    7  H           1     -20.621  -3.053  -6.713  0.00  0.00     0.275 HD
HETATM    8  H           1     -21.773  -2.641  -7.902  0.00  0.00     0.275 HD
HETATM    9  H           1     -22.243  -2.770  -6.266  0.00  0.00     0.275 HD
ENDBRANCH   5   6
BRANCH   5  10
HETATM   10  C           1     -21.706  -4.976  -8.675  0.00  0.00     0.153 C 
HETATM   11  C           1     -22.843  -4.412  -9.516  0.00  0.00     0.042 C 
BRANCH  10  12
HETATM   12  O           1     -20.488  -4.437  -9.112  0.00  0.00    -0.393 OA
HETATM   13  H           1     -20.643  -3.525  -9.295  0.00  0.00     0.210 HD
ENDBRANCH  10  12
ENDBRANCH   5  10
ENDBRANCH   2   5
BRANCH   1  14
HETATM   14  C           1     -20.686  -7.100  -4.577  0.00  0.00     0.189 C 
BRANCH  14  15
HETATM   15  C           1     -21.408  -7.451  -3.283  0.00  0.00     0.010 C 
HETATM   16  C           1     -21.908  -6.175  -2.620  0.00  0.00     0.012 C 
HETATM   17  C           1     -20.446  -8.169  -2.344  0.00  0.00     0.012 C 
ENDBRANCH  14  15
BRANCH  14  18
HETATM   18  C           1     -20.316  -8.369  -5.308  0.00  0.00     0.197 C 
HETATM   19  O           1     -19.117  -8.623  -5.550  0.00  0.00    -0.646 OA
HETATM   20  O           1     -21.210  -9.164  -5.670  0.00  0.00    -0.646 OA
ENDBRANCH  14  18
ENDBRANCH   1  14
TORSDOF 7
ENDMDL
MODEL 8
REMARK VINA RESULT:      -4.8      9.912     11.576
REMARK  7 active torsions:
REMARK  status: ('A' for Active; 'I' for Inactive)
REMARK    1  A    between atoms: C_2  and  C_4 
REMARK    2  A    between atoms: C_2  and  C_12 
REMARK    3  A    between atoms: C_2  and  N_9 
REMARK    4  A    between atoms: N_5  and  C_16 
REMARK       I    between atoms: N_9  and  C_10 
REMARK    5  A    between atoms: C_10  and  C_16 
REMARK    6  A    between atoms: C_16  and  C_20 
REMARK    7  A    between atoms: O_19  and  C_20 
ROOT
HETATM    1  N           1     -27.273  -6.390 -18.110  0.00  0.00    -0.344 N 
HETATM    2  C           1     -26.556  -6.559 -19.263  0.00  0.00     0.251 C 
HETATM    3  O           1     -26.996  -6.152 -20.313  0.00  0.00    -0.271 OA
HETATM    4  H           1     -26.905  -6.731 -17.231  0.00  0.00     0.163 HD
ENDROOT
BRANCH   2   5
HETATM    5  C           1     -25.218  -7.255 -19.225  0.00  0.00     0.302 C 
BRANCH   5   6
HETATM    6  N           1     -24.543  -7.113 -20.556  0.00  0.00    -0.064 N 
HETATM    7  H           1     -23.573  -6.750 -20.418  0.00  0.00     0.275 HD
HETATM    8  H           1     -24.501  -8.046 -21.026  0.00  0.00     0.275 HD
HETATM    9  H           1     -25.083  -6.446 -21.152  0.00  0.00     0.275 HD
ENDBRANCH   5   6
BRANCH   5  10
HETATM   10  C           1     -24.348  -6.624 -18.146  0.00  0.00     0.153 C 
HETATM   11  C           1     -24.427  -7.461 -16.876  0.00  0.00     0.042 C 
BRANCH  10  12
HETATM   12  O           1     -23.018  -6.570 -18.588  0.00  0.00    -0.393 OA
HETATM   13  H           1     -22.620  -5.827 -18.168  0.00  0.00     0.210 HD
ENDBRANCH  10  12
ENDBRANCH   5  10
ENDBRANCH   2   5
BRANCH   1  14
HETATM   14  C           1     -28.559  -5.722 -18.146  0.00  0.00     0.189 C 
BRANCH  14  15
HETATM   15  C           1     -29.603  -6.593 -17.460  0.00  0.00     0.010 C 
HETATM   16  C           1     -28.941  -7.392 -16.344  0.00  0.00     0.012 C 
HETATM   17  C           1     -30.214  -7.549 -18.476  0.00  0.00     0.012 C 
ENDBRANCH  14  15
BRANCH  14  18
HETATM   18  C           1     -28.458  -4.397 -17.429  0.00  0.00     0.197 C 
HETATM   19  O           1     -27.530  -4.197 -16.617  0.00  0.00    -0.646 OA
HETATM   20  O           1     -29.302  -3.502 -17.648  0.00  0.00    -0.646 OA
ENDBRANCH  14  18
ENDBRANCH   1  14
TORSDOF 7
ENDMDL
MODEL 9
REMARK VINA RESULT:      -4.8      5.564      9.198
REMARK  7 active torsions:
REMARK  status: ('A' for Active; 'I' for Inactive)
REMARK    1  A    between atoms: C_2  and  C_4 
REMARK    2  A    between atoms: C_2  and  C_12 
REMARK    3  A    between atoms: C_2  and  N_9 
REMARK    4  A    between atoms: N_5  and  C_16 
REMARK       I    between atoms: N_9  and  C_10 
REMARK    5  A    between atoms: C_10  and  C_16 
REMARK    6  A    between atoms: C_16  and  C_20 
REMARK    7  A    between atoms: O_19  and  C_20 
ROOT
HETATM    1  N           1     -21.633  -9.085  -2.158  0.00  0.00    -0.344 N 
HETATM    2  C           1     -21.394  -7.895  -2.792  0.00  0.00     0.251 C 
HETATM    3  O           1     -20.835  -7.000  -2.204  0.00  0.00    -0.271 OA
HETATM    4  H           1     -22.102  -9.835  -2.651  0.00  0.00     0.163 HD
ENDROOT
BRANCH   2   5
HETATM    5  C           1     -21.829  -7.702  -4.224  0.00  0.00     0.302 C 
BRANCH   5   6
HETATM    6  N           1     -22.294  -6.290  -4.418  0.00  0.00    -0.064 N 
HETATM    7  H           1     -21.508  -5.713  -4.795  0.00  0.00     0.275 HD
HETATM    8  H           1     -23.091  -6.275  -5.094  0.00  0.00     0.275 HD
HETATM    9  H           1     -22.607  -5.897  -3.502  0.00  0.00     0.275 HD
ENDBRANCH   5   6
BRANCH   5  10
HETATM   10  C           1     -20.656  -7.982  -5.154  0.00  0.00     0.153 C 
HETATM   11  C           1     -20.255  -6.697  -5.866  0.00  0.00     0.042 C 
BRANCH  10  12
HETATM   12  O           1     -19.571  -8.462  -4.408  0.00  0.00    -0.393 OA
HETATM   13  H           1     -19.124  -9.091  -4.948  0.00  0.00     0.210 HD
ENDBRANCH  10  12
ENDBRANCH   5  10
ENDBRANCH   2   5
BRANCH   1  14
HETATM   14  C           1     -21.216  -9.272  -0.783  0.00  0.00     0.189 C 
BRANCH  14  15
HETATM   15  C           1     -22.440  -9.509   0.091  0.00  0.00     0.010 C 
HETATM   16  C           1     -23.425 -10.405  -0.649  0.00  0.00     0.012 C 
HETATM   17  C           1     -23.104  -8.175   0.407  0.00  0.00     0.012 C 
ENDBRANCH  14  15
BRANCH  14  18
HETATM   18  C           1     -20.295 -10.465  -0.695  0.00  0.00     0.197 C 
HETATM   19  O           1     -20.077 -11.005   0.410  0.00  0.00    -0.646 OA
HETATM   20  O           1     -19.751 -10.911  -1.728  0.00  0.00    -0.646 OA
ENDBRANCH  14  18
ENDBRANCH   1  14
TORSDOF 7
ENDMDL
