MODEL 1
REMARK VINA RESULT:      -6.2      0.000      0.000
REMARK  9 active torsions:
REMARK  status: ('A' for Active; 'I' for Inactive)
REMARK    1  A    between atoms: N_6  and  C_10 
REMARK    2  A    between atoms: S_7  and  C_12 
REMARK    3  A    between atoms: C_8  and  C_9 
REMARK    4  A    between atoms: C_9  and  C_17 
REMARK    5  A    between atoms: C_9  and  N_14 
REMARK    6  A    between atoms: C_10  and  C_18 
REMARK    7  A    between atoms: C_10  and  C_11 
REMARK    8  A    between atoms: C_11  and  C_12 
REMARK    9  A    between atoms: O_13  and  C_17 
REMARK       I    between atoms: N_14  and  C_18 
ROOT
HETATM    1  H           1     -21.995  -5.759  -9.596  0.00  0.00     0.163 HD
HETATM    2  N           1     -22.077  -4.850  -9.157  0.00  0.00    -0.343 N 
HETATM    3  C           1     -21.739  -4.695  -7.839  0.00  0.00     0.249 C 
HETATM    4  O           1     -21.836  -3.610  -7.316  0.00  0.00    -0.271 OA
ENDROOT
BRANCH   3   5
HETATM    5  C           1     -21.246  -5.876  -7.042  0.00  0.00     0.275 C 
BRANCH   5   6
HETATM    6  N           1     -19.834  -6.191  -7.436  0.00  0.00    -0.066 N 
HETATM    7  H           1     -19.235  -6.233  -6.581  0.00  0.00     0.275 HD
HETATM    8  H           1     -19.806  -7.112  -7.927  0.00  0.00     0.275 HD
HETATM    9  H           1     -19.476  -5.445  -8.075  0.00  0.00     0.275 HD
ENDBRANCH   5   6
BRANCH   5  10
HETATM   10  C           1     -21.295  -5.543  -5.556  0.00  0.00     0.053 C 
BRANCH  10  11
HETATM   11  C           1     -22.188  -6.547  -4.839  0.00  0.00     0.076 C 
BRANCH  11  12
HETATM   12  S           1     -21.292  -7.255  -3.428  0.00  0.00    -0.173 SA
HETATM   13  C           1     -22.065  -6.214  -2.159  0.00  0.00     0.089 C 
ENDBRANCH  11  12
ENDBRANCH  10  11
ENDBRANCH   5  10
ENDBRANCH   3   5
BRANCH   2  14
HETATM   14  C           1     -22.550  -3.715  -9.924  0.00  0.00     0.214 C 
BRANCH  14  15
HETATM   15  C           1     -24.020  -3.888 -10.221  0.00  0.00     0.199 C 
HETATM   16  O           1     -24.581  -4.981  -9.987  0.00  0.00    -0.646 OA
HETATM   17  O           1     -24.677  -2.939 -10.700  0.00  0.00    -0.646 OA
ENDBRANCH  14  15
BRANCH  14  18
HETATM   18  C           1     -21.774  -3.628 -11.232  0.00  0.00     0.147 C 
HETATM   19  C           1     -20.374  -4.191 -11.029  0.00  0.00     0.042 C 
BRANCH  18  20
HETATM   20  O           1     -22.439  -4.369 -12.218  0.00  0.00    -0.393 OA
HETATM   21  H           1     -21.954  -5.168 -12.334  0.00  0.00     0.210 HD
ENDBRANCH  18  20
ENDBRANCH  14  18
ENDBRANCH   2  14
TORSDOF 9
ENDMDL
MODEL 2
REMARK VINA RESULT:      -5.9     13.543     14.688
REMARK  9 active torsions:
REMARK  status: ('A' for Active; 'I' for Inactive)
REMARK    1  A    between atoms: N_6  and  C_10 
REMARK    2  A    between atoms: S_7  and  C_12 
REMARK    3  A    between atoms: C_8  and  C_9 
REMARK    4  A    between atoms: C_9  and  C_17 
REMARK    5  A    between atoms: C_9  and  N_14 
REMARK    6  A    between atoms: C_10  and  C_18 
REMARK    7  A    between atoms: C_10  and  C_11 
REMARK    8  A    between atoms: C_11  and  C_12 
REMARK    9  A    between atoms: O_13  and  C_17 
REMARK       I    between atoms: N_14  and  C_18 
ROOT
HETATM    1  H           1     -34.194  -1.430 -14.318  0.00  0.00     0.163 HD
HETATM    2  N           1     -35.121  -1.248 -13.952  0.00  0.00    -0.343 N 
HETATM    3  C           1     -35.456  -1.677 -12.696  0.00  0.00     0.249 C 
HETATM    4  O           1     -36.562  -1.460 -12.259  0.00  0.00    -0.271 OA
ENDROOT
BRANCH   3   5
HETATM    5  C           1     -34.446  -2.421 -11.857  0.00  0.00     0.275 C 
BRANCH   5   6
HETATM    6  N           1     -33.813  -1.474 -10.882  0.00  0.00    -0.066 N 
HETATM    7  H           1     -33.406  -2.015 -10.086  0.00  0.00     0.275 HD
HETATM    8  H           1     -33.056  -0.936 -11.361  0.00  0.00     0.275 HD
HETATM    9  H           1     -34.536  -0.812 -10.521  0.00  0.00     0.275 HD
ENDBRANCH   5   6
BRANCH   5  10
HETATM   10  C           1     -35.144  -3.541 -11.096  0.00  0.00     0.053 C 
BRANCH  10  11
HETATM   11  C           1     -34.947  -4.857 -11.836  0.00  0.00     0.076 C 
BRANCH  11  12
HETATM   12  S           1     -33.638  -5.819 -11.025  0.00  0.00    -0.173 SA
HETATM   13  C           1     -34.744  -6.952 -10.138  0.00  0.00     0.089 C 
ENDBRANCH  11  12
ENDBRANCH  10  11
ENDBRANCH   5  10
ENDBRANCH   3   5
BRANCH   2  14
HETATM   14  C           1     -36.090  -0.533 -14.758  0.00  0.00     0.214 C 
BRANCH  14  15
HETATM   15  C           1     -35.915  -0.914 -16.209  0.00  0.00     0.199 C 
HETATM   16  O           1     -36.870  -0.791 -17.006  0.00  0.00    -0.646 OA
HETATM   17  O           1     -34.817  -1.352 -16.612  0.00  0.00    -0.646 OA
ENDBRANCH  14  15
BRANCH  14  18
HETATM   18  C           1     -35.877   0.966 -14.597  0.00  0.00     0.147 C 
HETATM   19  C           1     -34.495   1.222 -14.009  0.00  0.00     0.042 C 
BRANCH  18  20
HETATM   20  O           1     -35.975   1.588 -15.849  0.00  0.00    -0.393 OA
HETATM   21  H           1     -36.581   1.080 -16.361  0.00  0.00     0.210 HD
ENDBRANCH  18  20
ENDBRANCH  14  18
ENDBRANCH   2  14
TORSDOF 9
ENDMDL
MODEL 3
REMARK VINA RESULT:      -5.8     12.441     13.931
REMARK  9 active torsions:
REMARK  status: ('A' for Active; 'I' for Inactive)
REMARK    1  A    between atoms: N_6  and  C_10 
REMARK    2  A    between atoms: S_7  and  C_12 
REMARK    3  A    between atoms: C_8  and  C_9 
REMARK    4  A    between atoms: C_9  and  C_17 
REMARK    5  A    between atoms: C_9  and  N_14 
REMARK    6  A    between atoms: C_10  and  C_18 
REMARK    7  A    between atoms: C_10  and  C_11 
REMARK    8  A    between atoms: C_11  and  C_12 
REMARK    9  A    between atoms: O_13  and  C_17 
REMARK       I    between atoms: N_14  and  C_18 
ROOT
HETATM    1  H           1     -36.095  -2.392 -12.854  0.00  0.00     0.163 HD
HETATM    2  N           1     -35.437  -1.886 -12.274  0.00  0.00    -0.343 N 
HETATM    3  C           1     -34.384  -2.546 -11.700  0.00  0.00     0.249 C 
HETATM    4  O           1     -33.598  -1.943 -11.008  0.00  0.00    -0.271 OA
ENDROOT
BRANCH   3   5
HETATM    5  C           1     -34.204  -4.026 -11.931  0.00  0.00     0.275 C 
BRANCH   5   6
HETATM    6  N           1     -32.956  -4.260 -12.727  0.00  0.00    -0.066 N 
HETATM    7  H           1     -32.779  -5.287 -12.804  0.00  0.00     0.275 HD
HETATM    8  H           1     -33.071  -3.853 -13.683  0.00  0.00     0.275 HD
HETATM    9  H           1     -32.147  -3.801 -12.250  0.00  0.00     0.275 HD
ENDBRANCH   5   6
BRANCH   5  10
HETATM   10  C           1     -34.091  -4.740 -10.590  0.00  0.00     0.053 C 
BRANCH  10  11
HETATM   11  C           1     -33.777  -6.212 -10.823  0.00  0.00     0.076 C 
BRANCH  11  12
HETATM   12  S           1     -34.934  -7.236  -9.869  0.00  0.00    -0.173 SA
HETATM   13  C           1     -33.922  -8.742  -9.879  0.00  0.00     0.089 C 
ENDBRANCH  11  12
ENDBRANCH  10  11
ENDBRANCH   5  10
ENDBRANCH   3   5
BRANCH   2  14
HETATM   14  C           1     -35.609  -0.464 -12.053  0.00  0.00     0.214 C 
BRANCH  14  15
HETATM   15  C           1     -36.710  -0.243 -11.043  0.00  0.00     0.199 C 
HETATM   16  O           1     -37.736  -0.956 -11.071  0.00  0.00    -0.646 OA
HETATM   17  O           1     -36.594   0.652 -10.179  0.00  0.00    -0.646 OA
ENDBRANCH  14  15
BRANCH  14  18
HETATM   18  C           1     -35.981   0.212 -13.366  0.00  0.00     0.147 C 
HETATM   19  C           1     -34.792   1.015 -13.877  0.00  0.00     0.042 C 
BRANCH  18  20
HETATM   20  O           1     -36.328  -0.763 -14.311  0.00  0.00    -0.393 OA
HETATM   21  H           1     -37.170  -0.522 -14.657  0.00  0.00     0.210 HD
ENDBRANCH  18  20
ENDBRANCH  14  18
ENDBRANCH   2  14
TORSDOF 9
ENDMDL
MODEL 4
REMARK VINA RESULT:      -5.5     11.672     13.875
REMARK  9 active torsions:
REMARK  status: ('A' for Active; 'I' for Inactive)
REMARK    1  A    between atoms: N_6  and  C_10 
REMARK    2  A    between atoms: S_7  and  C_12 
REMARK    3  A    between atoms: C_8  and  C_9 
REMARK    4  A    between atoms: C_9  and  C_17 
REMARK    5  A    between atoms: C_9  and  N_14 
REMARK    6  A    between atoms: C_10  and  C_18 
REMARK    7  A    between atoms: C_10  and  C_11 
REMARK    8  A    between atoms: C_11  and  C_12 
REMARK    9  A    between atoms: O_13  and  C_17 
REMARK       I    between atoms: N_14  and  C_18 
ROOT
HETATM    1  H           1     -32.525  -3.548 -14.353  0.00  0.00     0.163 HD
HETATM    2  N           1     -33.429  -4.004 -14.319  0.00  0.00    -0.343 N 
HETATM    3  C           1     -33.982  -4.513 -15.463  0.00  0.00     0.249 C 
HETATM    4  O           1     -35.060  -5.056 -15.422  0.00  0.00    -0.271 OA
ENDROOT
BRANCH   3   5
HETATM    5  C           1     -33.245  -4.397 -16.774  0.00  0.00     0.275 C 
BRANCH   5   6
HETATM    6  N           1     -33.450  -3.024 -17.342  0.00  0.00    -0.066 N 
HETATM    7  H           1     -34.269  -2.573 -16.876  0.00  0.00     0.275 HD
HETATM    8  H           1     -32.594  -2.448 -17.178  0.00  0.00     0.275 HD
HETATM    9  H           1     -33.629  -3.096 -18.369  0.00  0.00     0.275 HD
ENDBRANCH   5   6
BRANCH   5  10
HETATM   10  C           1     -31.758  -4.634 -16.545  0.00  0.00     0.053 C 
BRANCH  10  11
HETATM   11  C           1     -30.951  -3.713 -17.450  0.00  0.00     0.076 C 
BRANCH  11  12
HETATM   12  S           1     -29.525  -4.618 -18.117  0.00  0.00    -0.173 SA
HETATM   13  C           1     -28.337  -4.073 -16.858  0.00  0.00     0.089 C 
ENDBRANCH  11  12
ENDBRANCH  10  11
ENDBRANCH   5  10
ENDBRANCH   3   5
BRANCH   2  14
HETATM   14  C           1     -34.136  -4.116 -13.058  0.00  0.00     0.214 C 
BRANCH  14  15
HETATM   15  C           1     -34.857  -2.821 -12.770  0.00  0.00     0.199 C 
HETATM   16  O           1     -34.782  -1.871 -13.579  0.00  0.00    -0.646 OA
HETATM   17  O           1     -35.528  -2.699 -11.723  0.00  0.00    -0.646 OA
ENDBRANCH  14  15
BRANCH  14  18
HETATM   18  C           1     -33.141  -4.404 -11.942  0.00  0.00     0.147 C 
HETATM   19  C           1     -33.662  -5.546 -11.080  0.00  0.00     0.042 C 
BRANCH  18  20
HETATM   20  O           1     -31.906  -4.764 -12.499  0.00  0.00    -0.393 OA
HETATM   21  H           1     -31.797  -4.249 -13.280  0.00  0.00     0.210 HD
ENDBRANCH  18  20
ENDBRANCH  14  18
ENDBRANCH   2  14
TORSDOF 9
ENDMDL
MODEL 5
REMARK VINA RESULT:      -5.4     12.570     14.359
REMARK  9 active torsions:
REMARK  status: ('A' for Active; 'I' for Inactive)
REMARK    1  A    between atoms: N_6  and  C_10 
REMARK    2  A    between atoms: S_7  and  C_12 
REMARK    3  A    between atoms: C_8  and  C_9 
REMARK    4  A    between atoms: C_9  and  C_17 
REMARK    5  A    between atoms: C_9  and  N_14 
REMARK    6  A    between atoms: C_10  and  C_18 
REMARK    7  A    between atoms: C_10  and  C_11 
REMARK    8  A    between atoms: C_11  and  C_12 
REMARK    9  A    between atoms: O_13  and  C_17 
REMARK       I    between atoms: N_14  and  C_18 
ROOT
HETATM    1  H           1     -34.738  -0.222 -11.828  0.00  0.00     0.163 HD
HETATM    2  N           1     -34.946  -0.921 -12.530  0.00  0.00    -0.343 N 
HETATM    3  C           1     -34.349  -2.152 -12.465  0.00  0.00     0.249 C 
HETATM    4  O           1     -34.598  -2.987 -13.303  0.00  0.00    -0.271 OA
ENDROOT
BRANCH   3   5
HETATM    5  C           1     -33.383  -2.466 -11.350  0.00  0.00     0.275 C 
BRANCH   5   6
HETATM    6  N           1     -33.999  -2.091 -10.036  0.00  0.00    -0.066 N 
HETATM    7  H           1     -34.998  -2.398 -10.019  0.00  0.00     0.275 HD
HETATM    8  H           1     -33.478  -2.559  -9.260  0.00  0.00     0.275 HD
HETATM    9  H           1     -33.951  -1.055  -9.912  0.00  0.00     0.275 HD
ENDBRANCH   5   6
BRANCH   5  10
HETATM   10  C           1     -33.067  -3.956 -11.355  0.00  0.00     0.053 C 
BRANCH  10  11
HETATM   11  C           1     -34.052  -4.688 -10.453  0.00  0.00     0.076 C 
BRANCH  11  12
HETATM   12  S           1     -34.661  -6.174 -11.301  0.00  0.00    -0.173 SA
HETATM   13  C           1     -34.817  -7.201  -9.814  0.00  0.00     0.089 C 
ENDBRANCH  11  12
ENDBRANCH  10  11
ENDBRANCH   5  10
ENDBRANCH   3   5
BRANCH   2  14
HETATM   14  C           1     -35.875  -0.620 -13.600  0.00  0.00     0.214 C 
BRANCH  14  15
HETATM   15  C           1     -35.417   0.623 -14.326  0.00  0.00     0.199 C 
HETATM   16  O           1     -34.760   1.495 -13.718  0.00  0.00    -0.646 OA
HETATM   17  O           1     -35.696   0.780 -15.534  0.00  0.00    -0.646 OA
ENDBRANCH  14  15
BRANCH  14  18
HETATM   18  C           1     -37.262  -0.387 -13.018  0.00  0.00     0.147 C 
HETATM   19  C           1     -37.139  -0.014 -11.547  0.00  0.00     0.042 C 
BRANCH  18  20
HETATM   20  O           1     -37.891   0.654 -13.714  0.00  0.00    -0.393 OA
HETATM   21  H           1     -37.808   0.461 -14.632  0.00  0.00     0.210 HD
ENDBRANCH  18  20
ENDBRANCH  14  18
ENDBRANCH   2  14
TORSDOF 9
ENDMDL
MODEL 6
REMARK VINA RESULT:      -5.1      1.909      2.615
REMARK  9 active torsions:
REMARK  status: ('A' for Active; 'I' for Inactive)
REMARK    1  A    between atoms: N_6  and  C_10 
REMARK    2  A    between atoms: S_7  and  C_12 
REMARK    3  A    between atoms: C_8  and  C_9 
REMARK    4  A    between atoms: C_9  and  C_17 
REMARK    5  A    between atoms: C_9  and  N_14 
REMARK    6  A    between atoms: C_10  and  C_18 
REMARK    7  A    between atoms: C_10  and  C_11 
REMARK    8  A    between atoms: C_11  and  C_12 
REMARK    9  A    between atoms: O_13  and  C_17 
REMARK       I    between atoms: N_14  and  C_18 
ROOT
HETATM    1  H           1     -23.102  -3.799  -8.814  0.00  0.00     0.163 HD
HETATM    2  N           1     -22.284  -4.317  -9.111  0.00  0.00    -0.343 N 
HETATM    3  C           1     -21.325  -4.663  -8.197  0.00  0.00     0.249 C 
HETATM    4  O           1     -20.350  -5.282  -8.552  0.00  0.00    -0.271 OA
ENDROOT
BRANCH   3   5
HETATM    5  C           1     -21.486  -4.273  -6.749  0.00  0.00     0.275 C 
BRANCH   5   6
HETATM    6  N           1     -22.788  -4.804  -6.230  0.00  0.00    -0.066 N 
HETATM    7  H           1     -22.628  -5.724  -5.761  0.00  0.00     0.275 HD
HETATM    8  H           1     -23.192  -4.128  -5.543  0.00  0.00     0.275 HD
HETATM    9  H           1     -23.454  -4.930  -7.026  0.00  0.00     0.275 HD
ENDBRANCH   5   6
BRANCH   5  10
HETATM   10  C           1     -20.340  -4.858  -5.934  0.00  0.00     0.053 C 
BRANCH  10  11
HETATM   11  C           1     -20.893  -5.840  -4.910  0.00  0.00     0.076 C 
BRANCH  11  12
HETATM   12  S           1     -20.306  -7.514  -5.298  0.00  0.00    -0.173 SA
HETATM   13  C           1     -21.546  -8.394  -4.307  0.00  0.00     0.089 C 
ENDBRANCH  11  12
ENDBRANCH  10  11
ENDBRANCH   5  10
ENDBRANCH   3   5
BRANCH   2  14
HETATM   14  C           1     -22.131  -4.692 -10.502  0.00  0.00     0.214 C 
BRANCH  14  15
HETATM   15  C           1     -21.370  -3.612 -11.232  0.00  0.00     0.199 C 
HETATM   16  O           1     -21.946  -2.551 -11.556  0.00  0.00    -0.646 OA
HETATM   17  O           1     -20.163  -3.777 -11.512  0.00  0.00    -0.646 OA
ENDBRANCH  14  15
BRANCH  14  18
HETATM   18  C           1     -23.505  -4.863 -11.136  0.00  0.00     0.147 C 
HETATM   19  C           1     -24.484  -3.888 -10.496  0.00  0.00     0.042 C 
BRANCH  18  20
HETATM   20  O           1     -23.419  -4.605 -12.511  0.00  0.00    -0.393 OA
HETATM   21  H           1     -23.286  -5.434 -12.938  0.00  0.00     0.210 HD
ENDBRANCH  18  20
ENDBRANCH  14  18
ENDBRANCH   2  14
TORSDOF 9
ENDMDL
MODEL 7
REMARK VINA RESULT:      -5.0     14.090     15.462
REMARK  9 active torsions:
REMARK  status: ('A' for Active; 'I' for Inactive)
REMARK    1  A    between atoms: N_6  and  C_10 
REMARK    2  A    between atoms: S_7  and  C_12 
REMARK    3  A    between atoms: C_8  and  C_9 
REMARK    4  A    between atoms: C_9  and  C_17 
REMARK    5  A    between atoms: C_9  and  N_14 
REMARK    6  A    between atoms: C_10  and  C_18 
REMARK    7  A    between atoms: C_10  and  C_11 
REMARK    8  A    between atoms: C_11  and  C_12 
REMARK    9  A    between atoms: O_13  and  C_17 
REMARK       I    between atoms: N_14  and  C_18 
ROOT
HETATM    1  H           1     -36.315  -0.305 -12.329  0.00  0.00     0.163 HD
HETATM    2  N           1     -35.814  -0.906 -12.972  0.00  0.00    -0.343 N 
HETATM    3  C           1     -35.169  -2.019 -12.503  0.00  0.00     0.249 C 
HETATM    4  O           1     -34.570  -2.737 -13.270  0.00  0.00    -0.271 OA
ENDROOT
BRANCH   3   5
HETATM    5  C           1     -35.205  -2.350 -11.032  0.00  0.00     0.275 C 
BRANCH   5   6
HETATM    6  N           1     -34.122  -1.593 -10.323  0.00  0.00    -0.066 N 
HETATM    7  H           1     -34.166  -1.798  -9.299  0.00  0.00     0.275 HD
HETATM    8  H           1     -33.190  -1.884 -10.697  0.00  0.00     0.275 HD
HETATM    9  H           1     -34.254  -0.568 -10.480  0.00  0.00     0.275 HD
ENDBRANCH   5   6
BRANCH   5  10
HETATM   10  C           1     -36.559  -1.956 -10.455  0.00  0.00     0.053 C 
BRANCH  10  11
HETATM   11  C           1     -36.408  -0.691  -9.622  0.00  0.00     0.076 C 
BRANCH  11  12
HETATM   12  S           1     -37.890   0.341  -9.815  0.00  0.00    -0.173 SA
HETATM   13  C           1     -37.564   1.424  -8.396  0.00  0.00     0.089 C 
ENDBRANCH  11  12
ENDBRANCH  10  11
ENDBRANCH   5  10
ENDBRANCH   3   5
BRANCH   2  14
HETATM   14  C           1     -35.781  -0.588 -14.385  0.00  0.00     0.214 C 
BRANCH  14  15
HETATM   15  C           1     -34.824   0.556 -14.620  0.00  0.00     0.199 C 
HETATM   16  O           1     -34.839   1.549 -13.861  0.00  0.00    -0.646 OA
HETATM   17  O           1     -34.016   0.510 -15.572  0.00  0.00    -0.646 OA
ENDBRANCH  14  15
BRANCH  14  18
HETATM   18  C           1     -37.175  -0.188 -14.849  0.00  0.00     0.147 C 
HETATM   19  C           1     -38.075   0.010 -13.636  0.00  0.00     0.042 C 
BRANCH  18  20
HETATM   20  O           1     -37.099   1.007 -15.576  0.00  0.00    -0.393 OA
HETATM   21  H           1     -36.215   1.321 -15.497  0.00  0.00     0.210 HD
ENDBRANCH  18  20
ENDBRANCH  14  18
ENDBRANCH   2  14
TORSDOF 9
ENDMDL
MODEL 8
REMARK VINA RESULT:      -5.0      2.102      3.160
REMARK  9 active torsions:
REMARK  status: ('A' for Active; 'I' for Inactive)
REMARK    1  A    between atoms: N_6  and  C_10 
REMARK    2  A    between atoms: S_7  and  C_12 
REMARK    3  A    between atoms: C_8  and  C_9 
REMARK    4  A    between atoms: C_9  and  C_17 
REMARK    5  A    between atoms: C_9  and  N_14 
REMARK    6  A    between atoms: C_10  and  C_18 
REMARK    7  A    between atoms: C_10  and  C_11 
REMARK    8  A    between atoms: C_11  and  C_12 
REMARK    9  A    between atoms: O_13  and  C_17 
REMARK       I    between atoms: N_14  and  C_18 
ROOT
HETATM    1  H           1     -22.377  -4.149  -6.629  0.00  0.00     0.163 HD
HETATM    2  N           1     -21.914  -4.888  -7.145  0.00  0.00    -0.343 N 
HETATM    3  C           1     -21.369  -5.950  -6.475  0.00  0.00     0.249 C 
HETATM    4  O           1     -20.817  -6.832  -7.090  0.00  0.00    -0.271 OA
ENDROOT
BRANCH   3   5
HETATM    5  C           1     -21.457  -6.020  -4.970  0.00  0.00     0.275 C 
BRANCH   5   6
HETATM    6  N           1     -22.890  -6.183  -4.561  0.00  0.00    -0.066 N 
HETATM    7  H           1     -22.995  -7.061  -4.003  0.00  0.00     0.275 HD
HETATM    8  H           1     -23.182  -5.364  -3.981  0.00  0.00     0.275 HD
HETATM    9  H           1     -23.491  -6.237  -5.414  0.00  0.00     0.275 HD
ENDBRANCH   5   6
BRANCH   5  10
HETATM   10  C           1     -20.647  -7.208  -4.468  0.00  0.00     0.053 C 
BRANCH  10  11
HETATM   11  C           1     -21.491  -8.024  -3.498  0.00  0.00     0.076 C 
BRANCH  11  12
HETATM   12  S           1     -20.812  -7.862  -1.821  0.00  0.00    -0.173 SA
HETATM   13  C           1     -22.218  -6.951  -1.125  0.00  0.00     0.089 C 
ENDBRANCH  11  12
ENDBRANCH  10  11
ENDBRANCH   5  10
ENDBRANCH   3   5
BRANCH   2  14
HETATM   14  C           1     -21.831  -4.820  -8.590  0.00  0.00     0.214 C 
BRANCH  14  15
HETATM   15  C           1     -20.583  -4.068  -8.986  0.00  0.00     0.199 C 
HETATM   16  O           1     -20.360  -3.818 -10.191  0.00  0.00    -0.646 OA
HETATM   17  O           1     -19.773  -3.696  -8.110  0.00  0.00    -0.646 OA
ENDBRANCH  14  15
BRANCH  14  18
HETATM   18  C           1     -23.055  -4.097  -9.136  0.00  0.00     0.147 C 
HETATM   19  C           1     -23.660  -4.911 -10.272  0.00  0.00     0.042 C 
BRANCH  18  20
HETATM   20  O           1     -24.001  -3.946  -8.114  0.00  0.00    -0.393 OA
HETATM   21  H           1     -24.843  -4.147  -8.486  0.00  0.00     0.210 HD
ENDBRANCH  18  20
ENDBRANCH  14  18
ENDBRANCH   2  14
TORSDOF 9
ENDMDL
MODEL 9
REMARK VINA RESULT:      -4.8      3.746      6.613
REMARK  9 active torsions:
REMARK  status: ('A' for Active; 'I' for Inactive)
REMARK    1  A    between atoms: N_6  and  C_10 
REMARK    2  A    between atoms: S_7  and  C_12 
REMARK    3  A    between atoms: C_8  and  C_9 
REMARK    4  A    between atoms: C_9  and  C_17 
REMARK    5  A    between atoms: C_9  and  N_14 
REMARK    6  A    between atoms: C_10  and  C_18 
REMARK    7  A    between atoms: C_10  and  C_11 
REMARK    8  A    between atoms: C_11  and  C_12 
REMARK    9  A    between atoms: O_13  and  C_17 
REMARK       I    between atoms: N_14  and  C_18 
ROOT
HETATM    1  H           1     -21.646  -7.047  -6.887  0.00  0.00     0.163 HD
HETATM    2  N           1     -21.135  -6.432  -6.265  0.00  0.00    -0.343 N 
HETATM    3  C           1     -20.863  -5.146  -6.647  0.00  0.00     0.249 C 
HETATM    4  O           1     -20.254  -4.413  -5.904  0.00  0.00    -0.271 OA
ENDROOT
BRANCH   3   5
HETATM    5  C           1     -21.322  -4.644  -7.993  0.00  0.00     0.275 C 
BRANCH   5   6
HETATM    6  N           1     -22.338  -3.558  -7.802  0.00  0.00    -0.066 N 
HETATM    7  H           1     -22.506  -3.074  -8.712  0.00  0.00     0.275 HD
HETATM    8  H           1     -23.233  -3.974  -7.458  0.00  0.00     0.275 HD
HETATM    9  H           1     -21.983  -2.869  -7.101  0.00  0.00     0.275 HD
ENDBRANCH   5   6
BRANCH   5  10
HETATM   10  C           1     -20.130  -4.093  -8.765  0.00  0.00     0.053 C 
BRANCH  10  11
HETATM   11  C           1     -20.152  -4.635 -10.188  0.00  0.00     0.076 C 
BRANCH  11  12
HETATM   12  S           1     -21.046  -3.476 -11.263  0.00  0.00    -0.173 SA
HETATM   13  C           1     -22.497  -4.531 -11.530  0.00  0.00     0.089 C 
ENDBRANCH  11  12
ENDBRANCH  10  11
ENDBRANCH   5  10
ENDBRANCH   3   5
BRANCH   2  14
HETATM   14  C           1     -20.695  -6.914  -4.971  0.00  0.00     0.214 C 
BRANCH  14  15
HETATM   15  C           1     -20.182  -8.328  -5.110  0.00  0.00     0.199 C 
HETATM   16  O           1     -19.127  -8.669  -4.533  0.00  0.00    -0.646 OA
HETATM   17  O           1     -20.812  -9.156  -5.802  0.00  0.00    -0.646 OA
ENDBRANCH  14  15
BRANCH  14  18
HETATM   18  C           1     -21.864  -6.892  -3.996  0.00  0.00     0.147 C 
HETATM   19  C           1     -21.467  -6.118  -2.746  0.00  0.00     0.042 C 
BRANCH  18  20
HETATM   20  O           1     -22.964  -6.270  -4.601  0.00  0.00    -0.393 OA
HETATM   21  H           1     -23.515  -5.949  -3.907  0.00  0.00     0.210 HD
ENDBRANCH  18  20
ENDBRANCH  14  18
ENDBRANCH   2  14
TORSDOF 9
ENDMDL
