MODEL 1
REMARK VINA RESULT:      -7.7      0.000      0.000
REMARK  9 active torsions:
REMARK  status: ('A' for Active; 'I' for Inactive)
REMARK    1  A    between atoms: C_2  and  C_5 
REMARK    2  A    between atoms: C_2  and  C_16 
REMARK    3  A    between atoms: C_2  and  N_9 
REMARK    4  A    between atoms: O_4  and  C_14 
REMARK    5  A    between atoms: C_5  and  C_22 
REMARK       I    between atoms: C_7  and  N_9 
REMARK    6  A    between atoms: C_7  and  C_15 
REMARK    7  A    between atoms: C_11  and  C_15 
REMARK    8  A    between atoms: C_11  and  O_12 
REMARK    9  A    between atoms: C_15  and  N_25 
ROOT
HETATM    1  C           1     -35.992  -1.070 -11.988  0.00  0.00     0.189 C 
ENDROOT
BRANCH   1   2
HETATM    2  C           1     -34.567  -1.324 -11.515  0.00  0.00     0.074 C 
BRANCH   2   3
HETATM    3  C           1     -34.349  -2.797 -11.354  0.00  0.00    -0.056 A 
HETATM    4  C           1     -33.105  -3.354 -11.650  0.00  0.00     0.010 A 
HETATM    5  C           1     -32.902  -4.726 -11.499  0.00  0.00     0.037 A 
HETATM    6  C           1     -33.943  -5.540 -11.053  0.00  0.00     0.065 A 
HETATM    7  C           1     -35.187  -4.982 -10.757  0.00  0.00     0.037 A 
HETATM    8  C           1     -35.390  -3.610 -10.908  0.00  0.00     0.010 A 
BRANCH   6   9
HETATM    9  O           1     -33.746  -6.873 -10.906  0.00  0.00    -0.361 OA
HETATM   10  H           1     -34.304  -7.181 -10.173  0.00  0.00     0.217 HD
ENDBRANCH   6   9
ENDBRANCH   2   3
ENDBRANCH   1   2
BRANCH   1  11
HETATM   11  C           1     -36.743  -0.299 -10.932  0.00  0.00     0.197 C 
HETATM   12  O           1     -37.877  -0.681 -10.567  0.00  0.00    -0.646 OA
HETATM   13  O           1     -36.234   0.722 -10.421  0.00  0.00    -0.646 OA
ENDBRANCH   1  11
BRANCH   1  14
HETATM   14  N           1     -35.963  -0.302 -13.217  0.00  0.00    -0.344 N 
HETATM   15  C           1     -37.061  -0.276 -14.036  0.00  0.00     0.251 C 
HETATM   16  O           1     -38.053  -0.895 -13.733  0.00  0.00    -0.271 OA
HETATM   17  H           1     -35.131   0.215 -13.471  0.00  0.00     0.163 HD
BRANCH  15  18
HETATM   18  C           1     -37.030   0.524 -15.315  0.00  0.00     0.302 C 
BRANCH  18  19
HETATM   19  C           1     -36.988  -0.424 -16.505  0.00  0.00     0.153 C 
HETATM   20  C           1     -35.667  -1.181 -16.503  0.00  0.00     0.042 C 
BRANCH  19  21
HETATM   21  O           1     -38.048  -1.336 -16.416  0.00  0.00    -0.393 OA
HETATM   22  H           1     -37.671  -2.199 -16.455  0.00  0.00     0.210 HD
ENDBRANCH  19  21
ENDBRANCH  18  19
BRANCH  18  23
HETATM   23  N           1     -35.810   1.397 -15.328  0.00  0.00    -0.064 N 
HETATM   24  H           1     -35.230   1.196 -14.482  0.00  0.00     0.275 HD
HETATM   25  H           1     -35.252   1.203 -16.189  0.00  0.00     0.275 HD
HETATM   26  H           1     -36.101   2.401 -15.320  0.00  0.00     0.275 HD
ENDBRANCH  18  23
ENDBRANCH  15  18
ENDBRANCH   1  14
TORSDOF 9
ENDMDL
MODEL 2
REMARK VINA RESULT:      -6.9     13.320     16.845
REMARK  9 active torsions:
REMARK  status: ('A' for Active; 'I' for Inactive)
REMARK    1  A    between atoms: C_2  and  C_5 
REMARK    2  A    between atoms: C_2  and  C_16 
REMARK    3  A    between atoms: C_2  and  N_9 
REMARK    4  A    between atoms: O_4  and  C_14 
REMARK    5  A    between atoms: C_5  and  C_22 
REMARK       I    between atoms: C_7  and  N_9 
REMARK    6  A    between atoms: C_7  and  C_15 
REMARK    7  A    between atoms: C_11  and  C_15 
REMARK    8  A    between atoms: C_11  and  O_12 
REMARK    9  A    between atoms: C_15  and  N_25 
ROOT
HETATM    1  C           1     -21.138  -5.058  -7.020  0.00  0.00     0.189 C 
ENDROOT
BRANCH   1   2
HETATM    2  C           1     -21.932  -3.868  -7.541  0.00  0.00     0.074 C 
BRANCH   2   3
HETATM    3  C           1     -22.378  -4.141  -8.944  0.00  0.00    -0.056 A 
HETATM    4  C           1     -23.730  -4.348  -9.217  0.00  0.00     0.010 A 
HETATM    5  C           1     -24.146  -4.602 -10.524  0.00  0.00     0.037 A 
HETATM    6  C           1     -23.211  -4.649 -11.558  0.00  0.00     0.065 A 
HETATM    7  C           1     -21.859  -4.441 -11.284  0.00  0.00     0.037 A 
HETATM    8  C           1     -21.442  -4.187  -9.977  0.00  0.00     0.010 A 
BRANCH   6   9
HETATM    9  O           1     -23.615  -4.896 -12.828  0.00  0.00    -0.361 OA
HETATM   10  H           1     -23.281  -4.180 -13.394  0.00  0.00     0.217 HD
ENDBRANCH   6   9
ENDBRANCH   2   3
ENDBRANCH   1   2
BRANCH   1  11
HETATM   11  C           1     -19.732  -4.621  -6.693  0.00  0.00     0.197 C 
HETATM   12  O           1     -19.399  -4.423  -5.504  0.00  0.00    -0.646 OA
HETATM   13  O           1     -18.898  -4.457  -7.611  0.00  0.00    -0.646 OA
ENDBRANCH   1  11
BRANCH   1  14
HETATM   14  N           1     -21.773  -5.575  -5.824  0.00  0.00    -0.344 N 
HETATM   15  C           1     -21.515  -6.855  -5.410  0.00  0.00     0.251 C 
HETATM   16  O           1     -20.759  -7.553  -6.043  0.00  0.00    -0.271 OA
HETATM   17  H           1     -22.407  -4.990  -5.295  0.00  0.00     0.163 HD
BRANCH  15  18
HETATM   18  C           1     -22.176  -7.393  -4.164  0.00  0.00     0.302 C 
BRANCH  18  19
HETATM   19  C           1     -22.015  -6.390  -3.030  0.00  0.00     0.153 C 
HETATM   20  C           1     -21.994  -7.129  -1.700  0.00  0.00     0.042 C 
BRANCH  19  21
HETATM   21  O           1     -20.812  -5.688  -3.193  0.00  0.00    -0.393 OA
HETATM   22  H           1     -20.198  -6.050  -2.576  0.00  0.00     0.210 HD
ENDBRANCH  19  21
ENDBRANCH  18  19
BRANCH  18  23
HETATM   23  N           1     -21.532  -8.691  -3.779  0.00  0.00    -0.064 N 
HETATM   24  H           1     -20.524  -8.527  -3.556  0.00  0.00     0.275 HD
HETATM   25  H           1     -22.016  -9.085  -2.941  0.00  0.00     0.275 HD
HETATM   26  H           1     -21.607  -9.367  -4.573  0.00  0.00     0.275 HD
ENDBRANCH  18  23
ENDBRANCH  15  18
ENDBRANCH   1  14
TORSDOF 9
ENDMDL
MODEL 3
REMARK VINA RESULT:      -6.9      2.737      5.260
REMARK  9 active torsions:
REMARK  status: ('A' for Active; 'I' for Inactive)
REMARK    1  A    between atoms: C_2  and  C_5 
REMARK    2  A    between atoms: C_2  and  C_16 
REMARK    3  A    between atoms: C_2  and  N_9 
REMARK    4  A    between atoms: O_4  and  C_14 
REMARK    5  A    between atoms: C_5  and  C_22 
REMARK       I    between atoms: C_7  and  N_9 
REMARK    6  A    between atoms: C_7  and  C_15 
REMARK    7  A    between atoms: C_11  and  C_15 
REMARK    8  A    between atoms: C_11  and  O_12 
REMARK    9  A    between atoms: C_15  and  N_25 
ROOT
HETATM    1  C           1     -36.020  -0.511 -10.877  0.00  0.00     0.189 C 
ENDROOT
BRANCH   1   2
HETATM    2  C           1     -36.416  -1.924 -10.473  0.00  0.00     0.074 C 
BRANCH   2   3
HETATM    3  C           1     -35.309  -2.872 -10.820  0.00  0.00    -0.056 A 
HETATM    4  C           1     -35.571  -4.237 -10.934  0.00  0.00     0.010 A 
HETATM    5  C           1     -34.540  -5.119 -11.257  0.00  0.00     0.037 A 
HETATM    6  C           1     -33.248  -4.637 -11.464  0.00  0.00     0.065 A 
HETATM    7  C           1     -32.987  -3.272 -11.348  0.00  0.00     0.037 A 
HETATM    8  C           1     -34.018  -2.389 -11.026  0.00  0.00     0.010 A 
BRANCH   6   9
HETATM    9  O           1     -32.246  -5.495 -11.777  0.00  0.00    -0.361 OA
HETATM   10  H           1     -31.414  -4.993 -11.789  0.00  0.00     0.217 HD
ENDBRANCH   6   9
ENDBRANCH   2   3
ENDBRANCH   1   2
BRANCH   1  11
HETATM   11  C           1     -36.415  -0.267 -12.312  0.00  0.00     0.197 C 
HETATM   12  O           1     -37.525  -0.661 -12.731  0.00  0.00    -0.646 OA
HETATM   13  O           1     -35.632   0.329 -13.083  0.00  0.00    -0.646 OA
ENDBRANCH   1  11
BRANCH   1  14
HETATM   14  N           1     -36.697   0.444 -10.021  0.00  0.00    -0.344 N 
HETATM   15  C           1     -36.325   0.573  -8.710  0.00  0.00     0.251 C 
HETATM   16  O           1     -35.432  -0.109  -8.266  0.00  0.00    -0.271 OA
HETATM   17  H           1     -37.446   1.014 -10.394  0.00  0.00     0.163 HD
BRANCH  15  18
HETATM   18  C           1     -37.031   1.567  -7.820  0.00  0.00     0.302 C 
BRANCH  18  19
HETATM   19  C           1     -37.696   0.832  -6.665  0.00  0.00     0.153 C 
HETATM   20  C           1     -38.075  -0.574  -7.111  0.00  0.00     0.042 C 
BRANCH  19  21
HETATM   21  O           1     -36.807   0.755  -5.584  0.00  0.00    -0.393 OA
HETATM   22  H           1     -36.806   1.601  -5.169  0.00  0.00     0.210 HD
ENDBRANCH  19  21
ENDBRANCH  18  19
BRANCH  18  23
HETATM   23  N           1     -38.073   2.296  -8.615  0.00  0.00    -0.064 N 
HETATM   24  H           1     -38.493   3.052  -8.029  0.00  0.00     0.275 HD
HETATM   25  H           1     -37.633   2.715  -9.465  0.00  0.00     0.275 HD
HETATM   26  H           1     -38.821   1.625  -8.906  0.00  0.00     0.275 HD
ENDBRANCH  18  23
ENDBRANCH  15  18
ENDBRANCH   1  14
TORSDOF 9
ENDMDL
MODEL 4
REMARK VINA RESULT:      -6.9      1.662      2.056
REMARK  9 active torsions:
REMARK  status: ('A' for Active; 'I' for Inactive)
REMARK    1  A    between atoms: C_2  and  C_5 
REMARK    2  A    between atoms: C_2  and  C_16 
REMARK    3  A    between atoms: C_2  and  N_9 
REMARK    4  A    between atoms: O_4  and  C_14 
REMARK    5  A    between atoms: C_5  and  C_22 
REMARK       I    between atoms: C_7  and  N_9 
REMARK    6  A    between atoms: C_7  and  C_15 
REMARK    7  A    between atoms: C_11  and  C_15 
REMARK    8  A    between atoms: C_11  and  O_12 
REMARK    9  A    between atoms: C_15  and  N_25 
ROOT
HETATM    1  C           1     -35.213  -1.682 -12.179  0.00  0.00     0.189 C 
ENDROOT
BRANCH   1   2
HETATM    2  C           1     -33.948  -2.379 -11.698  0.00  0.00     0.074 C 
BRANCH   2   3
HETATM    3  C           1     -34.214  -3.845 -11.540  0.00  0.00    -0.056 A 
HETATM    4  C           1     -34.745  -4.575 -12.604  0.00  0.00     0.010 A 
HETATM    5  C           1     -34.993  -5.940 -12.457  0.00  0.00     0.037 A 
HETATM    6  C           1     -34.710  -6.574 -11.247  0.00  0.00     0.065 A 
HETATM    7  C           1     -34.180  -5.843 -10.184  0.00  0.00     0.037 A 
HETATM    8  C           1     -33.932  -4.478 -10.331  0.00  0.00     0.010 A 
BRANCH   6   9
HETATM    9  O           1     -34.951  -7.900 -11.104  0.00  0.00    -0.361 OA
HETATM   10  H           1     -35.560  -8.016 -10.356  0.00  0.00     0.217 HD
ENDBRANCH   6   9
ENDBRANCH   2   3
ENDBRANCH   1   2
BRANCH   1  11
HETATM   11  C           1     -35.605  -0.611 -11.191  0.00  0.00     0.197 C 
HETATM   12  O           1     -35.980  -0.928 -10.041  0.00  0.00    -0.646 OA
HETATM   13  O           1     -35.555   0.593 -11.522  0.00  0.00    -0.646 OA
ENDBRANCH   1  11
BRANCH   1  14
HETATM   14  N           1     -34.969  -1.078 -13.474  0.00  0.00    -0.344 N 
HETATM   15  C           1     -36.022  -0.736 -14.280  0.00  0.00     0.251 C 
HETATM   16  O           1     -37.154  -0.939 -13.912  0.00  0.00    -0.271 OA
HETATM   17  H           1     -34.020  -0.909 -13.782  0.00  0.00     0.163 HD
BRANCH  15  18
HETATM   18  C           1     -35.766  -0.107 -15.628  0.00  0.00     0.302 C 
BRANCH  18  19
HETATM   19  C           1     -35.275   1.321 -15.437  0.00  0.00     0.153 C 
HETATM   20  C           1     -36.199   2.278 -16.179  0.00  0.00     0.042 C 
BRANCH  19  21
HETATM   21  O           1     -35.274   1.638 -14.072  0.00  0.00    -0.393 OA
HETATM   22  H           1     -35.221   0.822 -13.602  0.00  0.00     0.210 HD
ENDBRANCH  19  21
ENDBRANCH  18  19
BRANCH  18  23
HETATM   23  N           1     -37.039  -0.096 -16.422  0.00  0.00    -0.064 N 
HETATM   24  H           1     -37.151  -1.011 -16.914  0.00  0.00     0.275 HD
HETATM   25  H           1     -37.849   0.057 -15.780  0.00  0.00     0.275 HD
HETATM   26  H           1     -37.004   0.676 -17.127  0.00  0.00     0.275 HD
ENDBRANCH  18  23
ENDBRANCH  15  18
ENDBRANCH   1  14
TORSDOF 9
ENDMDL
MODEL 5
REMARK VINA RESULT:      -6.5      2.235      5.560
REMARK  9 active torsions:
REMARK  status: ('A' for Active; 'I' for Inactive)
REMARK    1  A    between atoms: C_2  and  C_5 
REMARK    2  A    between atoms: C_2  and  C_16 
REMARK    3  A    between atoms: C_2  and  N_9 
REMARK    4  A    between atoms: O_4  and  C_14 
REMARK    5  A    between atoms: C_5  and  C_22 
REMARK       I    between atoms: C_7  and  N_9 
REMARK    6  A    between atoms: C_7  and  C_15 
REMARK    7  A    between atoms: C_11  and  C_15 
REMARK    8  A    between atoms: C_11  and  O_12 
REMARK    9  A    between atoms: C_15  and  N_25 
ROOT
HETATM    1  C           1     -36.346  -0.367 -10.475  0.00  0.00     0.189 C 
ENDROOT
BRANCH   1   2
HETATM    2  C           1     -37.538   0.029 -11.336  0.00  0.00     0.074 C 
BRANCH   2   3
HETATM    3  C           1     -37.139   0.012 -12.779  0.00  0.00    -0.056 A 
HETATM    4  C           1     -38.075  -0.328 -13.757  0.00  0.00     0.010 A 
HETATM    5  C           1     -37.703  -0.343 -15.101  0.00  0.00     0.037 A 
HETATM    6  C           1     -36.397  -0.019 -15.468  0.00  0.00     0.065 A 
HETATM    7  C           1     -35.462   0.320 -14.490  0.00  0.00     0.037 A 
HETATM    8  C           1     -35.833   0.336 -13.145  0.00  0.00     0.010 A 
BRANCH   6   9
HETATM    9  O           1     -36.036  -0.035 -16.774  0.00  0.00    -0.361 OA
HETATM   10  H           1     -35.083  -0.218 -16.820  0.00  0.00     0.217 HD
ENDBRANCH   6   9
ENDBRANCH   2   3
ENDBRANCH   1   2
BRANCH   1  11
HETATM   11  C           1     -36.660  -0.096  -9.024  0.00  0.00     0.197 C 
HETATM   12  O           1     -35.803   0.439  -8.288  0.00  0.00    -0.646 OA
HETATM   13  O           1     -37.778  -0.407  -8.558  0.00  0.00    -0.646 OA
ENDBRANCH   1  11
BRANCH   1  14
HETATM   14  N           1     -36.069  -1.778 -10.653  0.00  0.00    -0.344 N 
HETATM   15  C           1     -34.776  -2.213 -10.774  0.00  0.00     0.251 C 
HETATM   16  O           1     -33.866  -1.419 -10.731  0.00  0.00    -0.271 OA
HETATM   17  H           1     -36.832  -2.443 -10.690  0.00  0.00     0.163 HD
BRANCH  15  18
HETATM   18  C           1     -34.488  -3.683 -10.959  0.00  0.00     0.302 C 
BRANCH  18  19
HETATM   19  C           1     -33.897  -3.914 -12.343  0.00  0.00     0.153 C 
HETATM   20  C           1     -32.471  -4.428 -12.206  0.00  0.00     0.042 C 
BRANCH  19  21
HETATM   21  O           1     -34.670  -4.859 -13.032  0.00  0.00    -0.393 OA
HETATM   22  H           1     -35.087  -4.406 -13.745  0.00  0.00     0.210 HD
ENDBRANCH  19  21
ENDBRANCH  18  19
BRANCH  18  23
HETATM   23  N           1     -35.763  -4.461 -10.825  0.00  0.00    -0.064 N 
HETATM   24  H           1     -35.871  -5.098 -11.646  0.00  0.00     0.275 HD
HETATM   25  H           1     -35.736  -5.026  -9.946  0.00  0.00     0.275 HD
HETATM   26  H           1     -36.573  -3.800 -10.788  0.00  0.00     0.275 HD
ENDBRANCH  18  23
ENDBRANCH  15  18
ENDBRANCH   1  14
TORSDOF 9
ENDMDL
MODEL 6
REMARK VINA RESULT:      -6.5     14.898     17.967
REMARK  9 active torsions:
REMARK  status: ('A' for Active; 'I' for Inactive)
REMARK    1  A    between atoms: C_2  and  C_5 
REMARK    2  A    between atoms: C_2  and  C_16 
REMARK    3  A    between atoms: C_2  and  N_9 
REMARK    4  A    between atoms: O_4  and  C_14 
REMARK    5  A    between atoms: C_5  and  C_22 
REMARK       I    between atoms: C_7  and  N_9 
REMARK    6  A    between atoms: C_7  and  C_15 
REMARK    7  A    between atoms: C_11  and  C_15 
REMARK    8  A    between atoms: C_11  and  O_12 
REMARK    9  A    between atoms: C_15  and  N_25 
ROOT
HETATM    1  C           1     -20.144  -7.514  -4.917  0.00  0.00     0.189 C 
ENDROOT
BRANCH   1   2
HETATM    2  C           1     -21.478  -8.158  -4.566  0.00  0.00     0.074 C 
BRANCH   2   3
HETATM    3  C           1     -21.713  -8.050  -3.091  0.00  0.00    -0.056 A 
HETATM    4  C           1     -21.942  -6.802  -2.511  0.00  0.00     0.010 A 
HETATM    5  C           1     -22.160  -6.702  -1.137  0.00  0.00     0.037 A 
HETATM    6  C           1     -22.149  -7.849  -0.343  0.00  0.00     0.065 A 
HETATM    7  C           1     -21.919  -9.096  -0.924  0.00  0.00     0.037 A 
HETATM    8  C           1     -21.701  -9.197  -2.298  0.00  0.00     0.010 A 
BRANCH   6   9
HETATM    9  O           1     -22.362  -7.752   0.992  0.00  0.00    -0.361 OA
HETATM   10  H           1     -21.545  -7.421   1.403  0.00  0.00     0.217 HD
ENDBRANCH   6   9
ENDBRANCH   2   3
ENDBRANCH   1   2
BRANCH   1  11
HETATM   11  C           1     -19.113  -8.589  -5.156  0.00  0.00     0.197 C 
HETATM   12  O           1     -18.751  -9.328  -4.215  0.00  0.00    -0.646 OA
HETATM   13  O           1     -18.621  -8.742  -6.295  0.00  0.00    -0.646 OA
ENDBRANCH   1  11
BRANCH   1  14
HETATM   14  N           1     -20.295  -6.715  -6.117  0.00  0.00    -0.344 N 
HETATM   15  C           1     -20.375  -5.351  -6.026  0.00  0.00     0.251 C 
HETATM   16  O           1     -20.320  -4.814  -4.945  0.00  0.00    -0.271 OA
HETATM   17  H           1     -20.341  -7.165  -7.022  0.00  0.00     0.163 HD
BRANCH  15  18
HETATM   18  C           1     -20.531  -4.519  -7.276  0.00  0.00     0.302 C 
BRANCH  18  19
HETATM   19  C           1     -21.988  -4.107  -7.433  0.00  0.00     0.153 C 
HETATM   20  C           1     -22.449  -4.405  -8.853  0.00  0.00     0.042 C 
BRANCH  19  21
HETATM   21  O           1     -22.779  -4.825  -6.525  0.00  0.00    -0.393 OA
HETATM   22  H           1     -22.202  -5.142  -5.850  0.00  0.00     0.210 HD
ENDBRANCH  19  21
ENDBRANCH  18  19
BRANCH  18  23
HETATM   23  N           1     -20.109  -5.326  -8.468  0.00  0.00    -0.064 N 
HETATM   24  H           1     -19.147  -5.702  -8.312  0.00  0.00     0.275 HD
HETATM   25  H           1     -20.776  -6.119  -8.606  0.00  0.00     0.275 HD
HETATM   26  H           1     -20.111  -4.719  -9.319  0.00  0.00     0.275 HD
ENDBRANCH  18  23
ENDBRANCH  15  18
ENDBRANCH   1  14
TORSDOF 9
ENDMDL
MODEL 7
REMARK VINA RESULT:      -6.5     14.741     17.284
REMARK  9 active torsions:
REMARK  status: ('A' for Active; 'I' for Inactive)
REMARK    1  A    between atoms: C_2  and  C_5 
REMARK    2  A    between atoms: C_2  and  C_16 
REMARK    3  A    between atoms: C_2  and  N_9 
REMARK    4  A    between atoms: O_4  and  C_14 
REMARK    5  A    between atoms: C_5  and  C_22 
REMARK       I    between atoms: C_7  and  N_9 
REMARK    6  A    between atoms: C_7  and  C_15 
REMARK    7  A    between atoms: C_11  and  C_15 
REMARK    8  A    between atoms: C_11  and  O_12 
REMARK    9  A    between atoms: C_15  and  N_25 
ROOT
HETATM    1  C           1     -21.031  -6.189  -4.545  0.00  0.00     0.189 C 
ENDROOT
BRANCH   1   2
HETATM    2  C           1     -21.063  -5.659  -3.118  0.00  0.00     0.074 C 
BRANCH   2   3
HETATM    3  C           1     -21.254  -6.798  -2.165  0.00  0.00    -0.056 A 
HETATM    4  C           1     -22.297  -6.765  -1.240  0.00  0.00     0.010 A 
HETATM    5  C           1     -22.475  -7.827  -0.353  0.00  0.00     0.037 A 
HETATM    6  C           1     -21.611  -8.921  -0.391  0.00  0.00     0.065 A 
HETATM    7  C           1     -20.568  -8.953  -1.316  0.00  0.00     0.037 A 
HETATM    8  C           1     -20.389  -7.891  -2.204  0.00  0.00     0.010 A 
BRANCH   6   9
HETATM    9  O           1     -21.784  -9.952   0.471  0.00  0.00    -0.361 OA
HETATM   10  H           1     -20.914 -10.348   0.644  0.00  0.00     0.217 HD
ENDBRANCH   6   9
ENDBRANCH   2   3
ENDBRANCH   1   2
BRANCH   1  11
HETATM   11  C           1     -22.312  -6.932  -4.834  0.00  0.00     0.197 C 
HETATM   12  O           1     -23.388  -6.305  -4.943  0.00  0.00    -0.646 OA
HETATM   13  O           1     -22.297  -8.175  -4.967  0.00  0.00    -0.646 OA
ENDBRANCH   1  11
BRANCH   1  14
HETATM   14  N           1     -20.897  -5.080  -5.469  0.00  0.00    -0.344 N 
HETATM   15  C           1     -20.675  -5.320  -6.799  0.00  0.00     0.251 C 
HETATM   16  O           1     -20.589  -6.456  -7.201  0.00  0.00    -0.271 OA
HETATM   17  H           1     -20.968  -4.129  -5.131  0.00  0.00     0.163 HD
BRANCH  15  18
HETATM   18  C           1     -20.535  -4.165  -7.761  0.00  0.00     0.302 C 
BRANCH  18  19
HETATM   19  C           1     -21.916  -3.634  -8.120  0.00  0.00     0.153 C 
HETATM   20  C           1     -22.230  -3.979  -9.569  0.00  0.00     0.042 C 
BRANCH  19  21
HETATM   21  O           1     -22.876  -4.219  -7.282  0.00  0.00    -0.393 OA
HETATM   22  H           1     -23.215  -3.533  -6.732  0.00  0.00     0.210 HD
ENDBRANCH  19  21
ENDBRANCH  18  19
BRANCH  18  23
HETATM   23  N           1     -19.841  -4.634  -9.005  0.00  0.00    -0.064 N 
HETATM   24  H           1     -18.815  -4.711  -8.824  0.00  0.00     0.275 HD
HETATM   25  H           1     -20.218  -5.567  -9.284  0.00  0.00     0.275 HD
HETATM   26  H           1     -20.007  -3.947  -9.776  0.00  0.00     0.275 HD
ENDBRANCH  18  23
ENDBRANCH  15  18
ENDBRANCH   1  14
TORSDOF 9
ENDMDL
MODEL 8
REMARK VINA RESULT:      -6.2     15.516     18.753
REMARK  9 active torsions:
REMARK  status: ('A' for Active; 'I' for Inactive)
REMARK    1  A    between atoms: C_2  and  C_5 
REMARK    2  A    between atoms: C_2  and  C_16 
REMARK    3  A    between atoms: C_2  and  N_9 
REMARK    4  A    between atoms: O_4  and  C_14 
REMARK    5  A    between atoms: C_5  and  C_22 
REMARK       I    between atoms: C_7  and  N_9 
REMARK    6  A    between atoms: C_7  and  C_15 
REMARK    7  A    between atoms: C_11  and  C_15 
REMARK    8  A    between atoms: C_11  and  O_12 
REMARK    9  A    between atoms: C_15  and  N_25 
ROOT
HETATM    1  C           1     -21.592  -7.895  -3.899  0.00  0.00     0.189 C 
ENDROOT
BRANCH   1   2
HETATM    2  C           1     -20.460  -6.957  -4.294  0.00  0.00     0.074 C 
BRANCH   2   3
HETATM    3  C           1     -20.954  -5.980  -5.316  0.00  0.00    -0.056 A 
HETATM    4  C           1     -22.302  -5.968  -5.674  0.00  0.00     0.010 A 
HETATM    5  C           1     -22.762  -5.058  -6.626  0.00  0.00     0.037 A 
HETATM    6  C           1     -21.874  -4.161  -7.220  0.00  0.00     0.065 A 
HETATM    7  C           1     -20.526  -4.174  -6.862  0.00  0.00     0.037 A 
HETATM    8  C           1     -20.066  -5.084  -5.910  0.00  0.00     0.010 A 
BRANCH   6   9
HETATM    9  O           1     -22.321  -3.277  -8.145  0.00  0.00    -0.361 OA
HETATM   10  H           1     -22.408  -2.410  -7.715  0.00  0.00     0.217 HD
ENDBRANCH   6   9
ENDBRANCH   2   3
ENDBRANCH   1   2
BRANCH   1  11
HETATM   11  C           1     -21.439  -9.206  -4.629  0.00  0.00     0.197 C 
HETATM   12  O           1     -21.930 -10.250  -4.149  0.00  0.00    -0.646 OA
HETATM   13  O           1     -20.820  -9.248  -5.715  0.00  0.00    -0.646 OA
ENDBRANCH   1  11
BRANCH   1  14
HETATM   14  N           1     -21.547  -8.131  -2.469  0.00  0.00    -0.344 N 
HETATM   15  C           1     -22.126  -7.238  -1.608  0.00  0.00     0.251 C 
HETATM   16  O           1     -22.675  -6.252  -2.040  0.00  0.00    -0.271 OA
HETATM   17  H           1     -21.086  -8.957  -2.107  0.00  0.00     0.163 HD
BRANCH  15  18
HETATM   18  C           1     -22.079  -7.485  -0.120  0.00  0.00     0.302 C 
BRANCH  18  19
HETATM   19  C           1     -21.186  -8.684   0.167  0.00  0.00     0.153 C 
HETATM   20  C           1     -20.860  -8.729   1.654  0.00  0.00     0.042 C 
BRANCH  19  21
HETATM   21  O           1     -21.851  -9.862  -0.200  0.00  0.00    -0.393 OA
HETATM   22  H           1     -22.774  -9.670  -0.189  0.00  0.00     0.210 HD
ENDBRANCH  19  21
ENDBRANCH  18  19
BRANCH  18  23
HETATM   23  N           1     -23.464  -7.761   0.384  0.00  0.00    -0.064 N 
HETATM   24  H           1     -24.028  -8.208  -0.373  0.00  0.00     0.275 HD
HETATM   25  H           1     -23.414  -8.401   1.208  0.00  0.00     0.275 HD
HETATM   26  H           1     -23.917  -6.862   0.670  0.00  0.00     0.275 HD
ENDBRANCH  18  23
ENDBRANCH  15  18
ENDBRANCH   1  14
TORSDOF 9
ENDMDL
MODEL 9
REMARK VINA RESULT:      -6.2      3.657      4.550
REMARK  9 active torsions:
REMARK  status: ('A' for Active; 'I' for Inactive)
REMARK    1  A    between atoms: C_2  and  C_5 
REMARK    2  A    between atoms: C_2  and  C_16 
REMARK    3  A    between atoms: C_2  and  N_9 
REMARK    4  A    between atoms: O_4  and  C_14 
REMARK    5  A    between atoms: C_5  and  C_22 
REMARK       I    between atoms: C_7  and  N_9 
REMARK    6  A    between atoms: C_7  and  C_15 
REMARK    7  A    between atoms: C_11  and  C_15 
REMARK    8  A    between atoms: C_11  and  O_12 
REMARK    9  A    between atoms: C_15  and  N_25 
ROOT
HETATM    1  C           1     -34.236  -3.804 -13.150  0.00  0.00     0.189 C 
ENDROOT
BRANCH   1   2
HETATM    2  C           1     -33.247  -3.983 -12.006  0.00  0.00     0.074 C 
BRANCH   2   3
HETATM    3  C           1     -33.569  -5.241 -11.259  0.00  0.00    -0.056 A 
HETATM    4  C           1     -34.778  -5.354 -10.573  0.00  0.00     0.010 A 
HETATM    5  C           1     -35.077  -6.525  -9.877  0.00  0.00     0.037 A 
HETATM    6  C           1     -34.168  -7.583  -9.867  0.00  0.00     0.065 A 
HETATM    7  C           1     -32.959  -7.468 -10.553  0.00  0.00     0.037 A 
HETATM    8  C           1     -32.659  -6.297 -11.249  0.00  0.00     0.010 A 
BRANCH   6   9
HETATM    9  O           1     -34.458  -8.721  -9.191  0.00  0.00    -0.361 OA
HETATM   10  H           1     -35.211  -9.149  -9.632  0.00  0.00     0.217 HD
ENDBRANCH   6   9
ENDBRANCH   2   3
ENDBRANCH   1   2
BRANCH   1  11
HETATM   11  C           1     -34.995  -2.514 -12.962  0.00  0.00     0.197 C 
HETATM   12  O           1     -34.923  -1.615 -13.828  0.00  0.00    -0.646 OA
HETATM   13  O           1     -35.697  -2.344 -11.942  0.00  0.00    -0.646 OA
ENDBRANCH   1  11
BRANCH   1  14
HETATM   14  N           1     -33.517  -3.763 -14.408  0.00  0.00    -0.344 N 
HETATM   15  C           1     -34.008  -4.429 -15.500  0.00  0.00     0.251 C 
HETATM   16  O           1     -35.039  -5.051 -15.413  0.00  0.00    -0.271 OA
HETATM   17  H           1     -32.653  -3.242 -14.479  0.00  0.00     0.163 HD
BRANCH  15  18
HETATM   18  C           1     -33.259  -4.385 -16.809  0.00  0.00     0.302 C 
BRANCH  18  19
HETATM   19  C           1     -31.761  -4.434 -16.540  0.00  0.00     0.153 C 
HETATM   20  C           1     -31.200  -5.758 -17.040  0.00  0.00     0.042 C 
BRANCH  19  21
HETATM   21  O           1     -31.129  -3.377 -17.208  0.00  0.00    -0.393 OA
HETATM   22  H           1     -31.419  -3.407 -18.104  0.00  0.00     0.210 HD
ENDBRANCH  19  21
ENDBRANCH  18  19
BRANCH  18  23
HETATM   23  N           1     -33.594  -3.114 -17.533  0.00  0.00    -0.064 N 
HETATM   24  H           1     -34.611  -3.108 -17.774  0.00  0.00     0.275 HD
HETATM   25  H           1     -33.375  -2.296 -16.921  0.00  0.00     0.275 HD
HETATM   26  H           1     -33.028  -3.053 -18.410  0.00  0.00     0.275 HD
ENDBRANCH  18  23
ENDBRANCH  15  18
ENDBRANCH   1  14
TORSDOF 9
ENDMDL
