MODEL 1
REMARK VINA RESULT:      -7.1      0.000      0.000
REMARK  11 active torsions:
REMARK  status: ('A' for Active; 'I' for Inactive)
REMARK       I    between atoms: C_6  and  N_7 
REMARK    1  A    between atoms: C_6  and  C_28 
REMARK    2  A    between atoms: N_7  and  C_8 
REMARK    3  A    between atoms: C_8  and  C_15 
REMARK    4  A    between atoms: C_8  and  C_9 
REMARK    5  A    between atoms: C_12  and  C_28 
REMARK    6  A    between atoms: C_12  and  C_16 
REMARK    7  A    between atoms: N_14  and  C_22 
REMARK    8  A    between atoms: C_15  and  C_21 
REMARK    9  A    between atoms: C_20  and  C_22 
REMARK   10  A    between atoms: C_20  and  C_21 
REMARK   11  A    between atoms: N_27  and  C_28 
ROOT
HETATM    1  C           1     -21.377  -6.728  -4.542  0.00  0.00     0.249 C 
HETATM    2  N           1     -21.120  -6.650  -3.200  0.00  0.00    -0.345 N 
HETATM    3  H           1     -20.839  -5.770  -2.789  0.00  0.00     0.163 HD
HETATM    4  O           1     -21.712  -7.780  -5.033  0.00  0.00    -0.271 OA
ENDROOT
BRANCH   1   5
HETATM    5  C           1     -21.239  -5.501  -5.410  0.00  0.00     0.278 C 
BRANCH   5   6
HETATM    6  C           1     -21.051  -5.922  -6.861  0.00  0.00     0.083 C 
BRANCH   6   7
HETATM    7  C           1     -21.845  -5.019  -7.751  0.00  0.00    -0.028 A 
HETATM    8  C           1     -21.450  -4.545  -9.033  0.00  0.00    -0.002 A 
HETATM    9  C           1     -20.309  -4.729  -9.836  0.00  0.00     0.014 A 
HETATM   10  C           1     -22.483  -3.736  -9.507  0.00  0.00     0.042 A 
HETATM   11  C           1     -20.241  -4.098 -11.084  0.00  0.00     0.001 A 
HETATM   12  C           1     -21.287  -3.295 -11.533  0.00  0.00     0.002 A 
HETATM   13  C           1     -22.431  -3.097 -10.753  0.00  0.00     0.030 A 
HETATM   14  N           1     -23.464  -3.724  -8.542  0.00  0.00    -0.365 N 
HETATM   15  H           1     -24.371  -3.198  -8.613  0.00  0.00     0.165 HD
HETATM   16  C           1     -23.089  -4.497  -7.475  0.00  0.00     0.096 A 
ENDBRANCH   6   7
ENDBRANCH   5   6
BRANCH   5  17
HETATM   17  N           1     -20.049  -4.705  -4.963  0.00  0.00    -0.066 N 
HETATM   18  H           1     -19.749  -4.065  -5.732  0.00  0.00     0.275 HD
HETATM   19  H           1     -19.265  -5.354  -4.725  0.00  0.00     0.275 HD
HETATM   20  H           1     -20.303  -4.142  -4.121  0.00  0.00     0.275 HD
ENDBRANCH   5  17
ENDBRANCH   1   5
BRANCH   2  21
HETATM   21  C           1     -21.253  -7.829  -2.366  0.00  0.00     0.185 C 
BRANCH  21  22
HETATM   22  C           1     -19.870  -8.319  -1.955  0.00  0.00     0.036 C 
BRANCH  22  23
HETATM   23  C           1     -19.589  -9.661  -2.616  0.00  0.00     0.004 C 
BRANCH  23  24
HETATM   24  C           1     -18.476  -9.497  -3.644  0.00  0.00     0.027 C 
BRANCH  24  25
HETATM   25  C           1     -18.959  -9.996  -4.999  0.00  0.00     0.229 C 
BRANCH  25  26
HETATM   26  N           1     -18.917  -8.872  -5.991  0.00  0.00    -0.079 N 
HETATM   27  H           1     -18.670  -7.982  -5.501  0.00  0.00     0.274 HD
HETATM   28  H           1     -18.199  -9.079  -6.721  0.00  0.00     0.274 HD
HETATM   29  H           1     -19.855  -8.771  -6.443  0.00  0.00     0.274 HD
ENDBRANCH  25  26
ENDBRANCH  24  25
ENDBRANCH  23  24
ENDBRANCH  22  23
ENDBRANCH  21  22
BRANCH  21  30
HETATM   30  C           1     -22.052  -7.485  -1.133  0.00  0.00     0.196 C 
HETATM   31  O           1     -22.052  -8.259  -0.153  0.00  0.00    -0.646 OA
HETATM   32  O           1     -22.714  -6.426  -1.093  0.00  0.00    -0.646 OA
ENDBRANCH  21  30
ENDBRANCH   2  21
TORSDOF 11
ENDMDL
MODEL 2
REMARK VINA RESULT:      -7.0      2.128      3.048
REMARK  11 active torsions:
REMARK  status: ('A' for Active; 'I' for Inactive)
REMARK       I    between atoms: C_6  and  N_7 
REMARK    1  A    between atoms: C_6  and  C_28 
REMARK    2  A    between atoms: N_7  and  C_8 
REMARK    3  A    between atoms: C_8  and  C_15 
REMARK    4  A    between atoms: C_8  and  C_9 
REMARK    5  A    between atoms: C_12  and  C_28 
REMARK    6  A    between atoms: C_12  and  C_16 
REMARK    7  A    between atoms: N_14  and  C_22 
REMARK    8  A    between atoms: C_15  and  C_21 
REMARK    9  A    between atoms: C_20  and  C_22 
REMARK   10  A    between atoms: C_20  and  C_21 
REMARK   11  A    between atoms: N_27  and  C_28 
ROOT
HETATM    1  C           1     -20.325  -7.330  -5.580  0.00  0.00     0.249 C 
HETATM    2  N           1     -20.247  -8.302  -4.619  0.00  0.00    -0.345 N 
HETATM    3  H           1     -20.949  -8.354  -3.893  0.00  0.00     0.163 HD
HETATM    4  O           1     -19.486  -7.268  -6.446  0.00  0.00    -0.271 OA
ENDROOT
BRANCH   1   5
HETATM    5  C           1     -21.460  -6.335  -5.556  0.00  0.00     0.278 C 
BRANCH   5   6
HETATM    6  C           1     -20.992  -5.015  -6.154  0.00  0.00     0.083 C 
BRANCH   6   7
HETATM    7  C           1     -21.902  -4.624  -7.276  0.00  0.00    -0.028 A 
HETATM    8  C           1     -21.525  -4.430  -8.633  0.00  0.00    -0.002 A 
HETATM    9  C           1     -20.309  -4.523  -9.335  0.00  0.00     0.014 A 
HETATM   10  C           1     -22.678  -4.074  -9.333  0.00  0.00     0.042 A 
HETATM   11  C           1     -20.288  -4.259 -10.710  0.00  0.00     0.001 A 
HETATM   12  C           1     -21.456  -3.906 -11.383  0.00  0.00     0.002 A 
HETATM   13  C           1     -22.676  -3.806 -10.708  0.00  0.00     0.030 A 
HETATM   14  N           1     -23.713  -4.056  -8.425  0.00  0.00    -0.365 N 
HETATM   15  H           1     -24.711  -3.822  -8.655  0.00  0.00     0.165 HD
HETATM   16  C           1     -23.255  -4.386  -7.178  0.00  0.00     0.096 A 
ENDBRANCH   6   7
ENDBRANCH   5   6
BRANCH   5  17
HETATM   17  N           1     -21.899  -6.113  -4.139  0.00  0.00    -0.066 N 
HETATM   18  H           1     -21.541  -5.190  -3.803  0.00  0.00     0.275 HD
HETATM   19  H           1     -21.518  -6.875  -3.533  0.00  0.00     0.275 HD
HETATM   20  H           1     -22.942  -6.119  -4.093  0.00  0.00     0.275 HD
ENDBRANCH   5  17
ENDBRANCH   1   5
BRANCH   2  21
HETATM   21  C           1     -19.157  -9.258  -4.643  0.00  0.00     0.185 C 
BRANCH  21  22
HETATM   22  C           1     -18.731  -9.579  -3.215  0.00  0.00     0.036 C 
BRANCH  22  23
HETATM   23  C           1     -19.626  -8.829  -2.238  0.00  0.00     0.004 C 
BRANCH  23  24
HETATM   24  C           1     -20.392  -9.830  -1.382  0.00  0.00     0.027 C 
BRANCH  24  25
HETATM   25  C           1     -21.887  -9.652  -1.607  0.00  0.00     0.229 C 
BRANCH  25  26
HETATM   26  N           1     -22.331 -10.530  -2.740  0.00  0.00    -0.079 N 
HETATM   27  H           1     -22.209 -11.534  -2.473  0.00  0.00     0.274 HD
HETATM   28  H           1     -23.338 -10.346  -2.948  0.00  0.00     0.274 HD
HETATM   29  H           1     -21.755 -10.322  -3.588  0.00  0.00     0.274 HD
ENDBRANCH  25  26
ENDBRANCH  24  25
ENDBRANCH  23  24
ENDBRANCH  22  23
ENDBRANCH  21  22
BRANCH  21  30
HETATM   30  C           1     -19.613 -10.523  -5.327  0.00  0.00     0.196 C 
HETATM   31  O           1     -20.339 -11.337  -4.718  0.00  0.00    -0.646 OA
HETATM   32  O           1     -19.265 -10.756  -6.505  0.00  0.00    -0.646 OA
ENDBRANCH  21  30
ENDBRANCH   2  21
TORSDOF 11
ENDMDL
MODEL 3
REMARK VINA RESULT:      -7.0      2.267      2.780
REMARK  11 active torsions:
REMARK  status: ('A' for Active; 'I' for Inactive)
REMARK       I    between atoms: C_6  and  N_7 
REMARK    1  A    between atoms: C_6  and  C_28 
REMARK    2  A    between atoms: N_7  and  C_8 
REMARK    3  A    between atoms: C_8  and  C_15 
REMARK    4  A    between atoms: C_8  and  C_9 
REMARK    5  A    between atoms: C_12  and  C_28 
REMARK    6  A    between atoms: C_12  and  C_16 
REMARK    7  A    between atoms: N_14  and  C_22 
REMARK    8  A    between atoms: C_15  and  C_21 
REMARK    9  A    between atoms: C_20  and  C_22 
REMARK   10  A    between atoms: C_20  and  C_21 
REMARK   11  A    between atoms: N_27  and  C_28 
ROOT
HETATM    1  C           1     -20.264  -7.317  -5.467  0.00  0.00     0.249 C 
HETATM    2  N           1     -20.125  -8.165  -4.401  0.00  0.00    -0.345 N 
HETATM    3  H           1     -20.778  -8.121  -3.630  0.00  0.00     0.163 HD
HETATM    4  O           1     -19.483  -7.369  -6.386  0.00  0.00    -0.271 OA
ENDROOT
BRANCH   1   5
HETATM    5  C           1     -21.392  -6.315  -5.491  0.00  0.00     0.278 C 
BRANCH   5   6
HETATM    6  C           1     -20.913  -5.024  -6.140  0.00  0.00     0.083 C 
BRANCH   6   7
HETATM    7  C           1     -21.842  -4.648  -7.251  0.00  0.00    -0.028 A 
HETATM    8  C           1     -21.487  -4.471  -8.618  0.00  0.00    -0.002 A 
HETATM    9  C           1     -20.282  -4.572  -9.338  0.00  0.00     0.014 A 
HETATM   10  C           1     -22.652  -4.125  -9.303  0.00  0.00     0.042 A 
HETATM   11  C           1     -20.285  -4.326 -10.716  0.00  0.00     0.001 A 
HETATM   12  C           1     -21.464  -3.982 -11.374  0.00  0.00     0.002 A 
HETATM   13  C           1     -22.673  -3.875 -10.680  0.00  0.00     0.030 A 
HETATM   14  N           1     -23.672  -4.096  -8.378  0.00  0.00    -0.365 N 
HETATM   15  H           1     -24.674  -3.865  -8.594  0.00  0.00     0.165 HD
HETATM   16  C           1     -23.192  -4.410  -7.134  0.00  0.00     0.096 A 
ENDBRANCH   6   7
ENDBRANCH   5   6
BRANCH   5  17
HETATM   17  N           1     -21.839  -6.032  -4.087  0.00  0.00    -0.066 N 
HETATM   18  H           1     -21.960  -6.933  -3.572  0.00  0.00     0.275 HD
HETATM   19  H           1     -22.750  -5.519  -4.109  0.00  0.00     0.275 HD
HETATM   20  H           1     -21.120  -5.449  -3.604  0.00  0.00     0.275 HD
ENDBRANCH   5  17
ENDBRANCH   1   5
BRANCH   2  21
HETATM   21  C           1     -19.040  -9.127  -4.378  0.00  0.00     0.185 C 
BRANCH  21  22
HETATM   22  C           1     -18.522  -9.275  -2.953  0.00  0.00     0.036 C 
BRANCH  22  23
HETATM   23  C           1     -17.370 -10.271  -2.933  0.00  0.00     0.004 C 
BRANCH  23  24
HETATM   24  C           1     -16.134  -9.631  -3.551  0.00  0.00     0.027 C 
BRANCH  24  25
HETATM   25  C           1     -15.572 -10.547  -4.629  0.00  0.00     0.229 C 
BRANCH  25  26
HETATM   26  N           1     -16.039 -10.081  -5.976  0.00  0.00    -0.079 N 
HETATM   27  H           1     -17.046 -10.332  -6.104  0.00  0.00     0.274 HD
HETATM   28  H           1     -15.928  -9.044  -6.043  0.00  0.00     0.274 HD
HETATM   29  H           1     -15.468 -10.542  -6.721  0.00  0.00     0.274 HD
ENDBRANCH  25  26
ENDBRANCH  24  25
ENDBRANCH  23  24
ENDBRANCH  22  23
ENDBRANCH  21  22
BRANCH  21  30
HETATM   30  C           1     -19.542 -10.462  -4.871  0.00  0.00     0.196 C 
HETATM   31  O           1     -20.506 -11.017  -4.301  0.00  0.00    -0.646 OA
HETATM   32  O           1     -18.995 -11.013  -5.851  0.00  0.00    -0.646 OA
ENDBRANCH  21  30
ENDBRANCH   2  21
TORSDOF 11
ENDMDL
MODEL 4
REMARK VINA RESULT:      -6.8      2.563      8.388
REMARK  11 active torsions:
REMARK  status: ('A' for Active; 'I' for Inactive)
REMARK       I    between atoms: C_6  and  N_7 
REMARK    1  A    between atoms: C_6  and  C_28 
REMARK    2  A    between atoms: N_7  and  C_8 
REMARK    3  A    between atoms: C_8  and  C_15 
REMARK    4  A    between atoms: C_8  and  C_9 
REMARK    5  A    between atoms: C_12  and  C_28 
REMARK    6  A    between atoms: C_12  and  C_16 
REMARK    7  A    between atoms: N_14  and  C_22 
REMARK    8  A    between atoms: C_15  and  C_21 
REMARK    9  A    between atoms: C_20  and  C_22 
REMARK   10  A    between atoms: C_20  and  C_21 
REMARK   11  A    between atoms: N_27  and  C_28 
ROOT
HETATM    1  C           1     -21.154  -6.573  -5.940  0.00  0.00     0.249 C 
HETATM    2  N           1     -21.148  -5.275  -6.374  0.00  0.00    -0.345 N 
HETATM    3  H           1     -21.005  -4.521  -5.715  0.00  0.00     0.163 HD
HETATM    4  O           1     -21.325  -7.473  -6.728  0.00  0.00    -0.271 OA
ENDROOT
BRANCH   1   5
HETATM    5  C           1     -20.948  -6.880  -4.477  0.00  0.00     0.278 C 
BRANCH   5   6
HETATM    6  C           1     -21.887  -8.003  -4.056  0.00  0.00     0.083 C 
BRANCH   6   7
HETATM    7  C           1     -21.277  -8.766  -2.923  0.00  0.00    -0.028 A 
HETATM    8  C           1     -21.515  -8.545  -1.538  0.00  0.00    -0.002 A 
HETATM    9  C           1     -22.312  -7.639  -0.813  0.00  0.00     0.014 A 
HETATM   10  C           1     -20.748  -9.475  -0.836  0.00  0.00     0.042 A 
HETATM   11  C           1     -22.315  -7.694   0.586  0.00  0.00     0.001 A 
HETATM   12  C           1     -21.538  -8.634   1.261  0.00  0.00     0.002 A 
HETATM   13  C           1     -20.738  -9.544   0.563  0.00  0.00     0.030 A 
HETATM   14  N           1     -20.072 -10.229  -1.768  0.00  0.00    -0.365 N 
HETATM   15  H           1     -19.412 -11.014  -1.543  0.00  0.00     0.165 HD
HETATM   16  C           1     -20.385  -9.809  -3.034  0.00  0.00     0.096 A 
ENDBRANCH   6   7
ENDBRANCH   5   6
BRANCH   5  17
HETATM   17  N           1     -21.239  -5.654  -3.664  0.00  0.00    -0.066 N 
HETATM   18  H           1     -21.647  -4.915  -4.280  0.00  0.00     0.275 HD
HETATM   19  H           1     -20.352  -5.300  -3.238  0.00  0.00     0.275 HD
HETATM   20  H           1     -21.919  -5.891  -2.908  0.00  0.00     0.275 HD
ENDBRANCH   5  17
ENDBRANCH   1   5
BRANCH   2  21
HETATM   21  C           1     -21.346  -4.980  -7.780  0.00  0.00     0.185 C 
BRANCH  21  22
HETATM   22  C           1     -22.229  -3.747  -7.922  0.00  0.00     0.036 C 
BRANCH  22  23
HETATM   23  C           1     -23.496  -4.114  -8.683  0.00  0.00     0.004 C 
BRANCH  23  24
HETATM   24  C           1     -23.403  -3.585 -10.109  0.00  0.00     0.027 C 
BRANCH  24  25
HETATM   25  C           1     -23.234  -4.750 -11.074  0.00  0.00     0.229 C 
BRANCH  25  26
HETATM   26  N           1     -22.010  -4.532 -11.913  0.00  0.00    -0.079 N 
HETATM   27  H           1     -22.287  -4.443 -12.918  0.00  0.00     0.274 HD
HETATM   28  H           1     -21.529  -3.656 -11.606  0.00  0.00     0.274 HD
HETATM   29  H           1     -21.362  -5.344 -11.801  0.00  0.00     0.274 HD
ENDBRANCH  25  26
ENDBRANCH  24  25
ENDBRANCH  23  24
ENDBRANCH  22  23
ENDBRANCH  21  22
BRANCH  21  30
HETATM   30  C           1     -20.010  -4.718  -8.431  0.00  0.00     0.196 C 
HETATM   31  O           1     -19.892  -4.803  -9.673  0.00  0.00    -0.646 OA
HETATM   32  O           1     -19.021  -4.417  -7.729  0.00  0.00    -0.646 OA
ENDBRANCH  21  30
ENDBRANCH   2  21
TORSDOF 11
ENDMDL
MODEL 5
REMARK VINA RESULT:      -6.7      2.278      7.918
REMARK  11 active torsions:
REMARK  status: ('A' for Active; 'I' for Inactive)
REMARK       I    between atoms: C_6  and  N_7 
REMARK    1  A    between atoms: C_6  and  C_28 
REMARK    2  A    between atoms: N_7  and  C_8 
REMARK    3  A    between atoms: C_8  and  C_15 
REMARK    4  A    between atoms: C_8  and  C_9 
REMARK    5  A    between atoms: C_12  and  C_28 
REMARK    6  A    between atoms: C_12  and  C_16 
REMARK    7  A    between atoms: N_14  and  C_22 
REMARK    8  A    between atoms: C_15  and  C_21 
REMARK    9  A    between atoms: C_20  and  C_22 
REMARK   10  A    between atoms: C_20  and  C_21 
REMARK   11  A    between atoms: N_27  and  C_28 
ROOT
HETATM    1  C           1     -20.840  -6.339  -5.373  0.00  0.00     0.249 C 
HETATM    2  N           1     -21.005  -5.917  -6.665  0.00  0.00    -0.345 N 
HETATM    3  H           1     -20.894  -6.570  -7.429  0.00  0.00     0.163 HD
HETATM    4  O           1     -20.971  -5.558  -4.461  0.00  0.00    -0.271 OA
ENDROOT
BRANCH   1   5
HETATM    5  C           1     -20.493  -7.780  -5.089  0.00  0.00     0.278 C 
BRANCH   5   6
HETATM    6  C           1     -20.090  -7.928  -3.627  0.00  0.00     0.083 C 
BRANCH   6   7
HETATM    7  C           1     -20.976  -8.934  -2.964  0.00  0.00    -0.028 A 
HETATM    8  C           1     -21.728  -8.734  -1.773  0.00  0.00    -0.002 A 
HETATM    9  C           1     -21.894  -7.651  -0.890  0.00  0.00     0.014 A 
HETATM   10  C           1     -22.408  -9.924  -1.512  0.00  0.00     0.042 A 
HETATM   11  C           1     -22.734  -7.795   0.221  0.00  0.00     0.001 A 
HETATM   12  C           1     -23.401  -8.996   0.457  0.00  0.00     0.002 A 
HETATM   13  C           1     -23.251 -10.086  -0.405  0.00  0.00     0.030 A 
HETATM   14  N           1     -22.075 -10.809  -2.513  0.00  0.00    -0.365 N 
HETATM   15  H           1     -22.433 -11.793  -2.589  0.00  0.00     0.165 HD
HETATM   16  C           1     -21.210 -10.220  -3.396  0.00  0.00     0.096 A 
ENDBRANCH   6   7
ENDBRANCH   5   6
BRANCH   5  17
HETATM   17  N           1     -19.352  -8.201  -5.966  0.00  0.00    -0.066 N 
HETATM   18  H           1     -19.201  -7.483  -6.710  0.00  0.00     0.275 HD
HETATM   19  H           1     -19.576  -9.121  -6.411  0.00  0.00     0.275 HD
HETATM   20  H           1     -18.486  -8.293  -5.390  0.00  0.00     0.275 HD
ENDBRANCH   5  17
ENDBRANCH   1   5
BRANCH   2  21
HETATM   21  C           1     -21.338  -4.532  -6.938  0.00  0.00     0.185 C 
BRANCH  21  22
HETATM   22  C           1     -20.507  -4.031  -8.112  0.00  0.00     0.036 C 
BRANCH  22  23
HETATM   23  C           1     -20.235  -5.183  -9.070  0.00  0.00     0.004 C 
BRANCH  23  24
HETATM   24  C           1     -19.914  -4.630 -10.452  0.00  0.00     0.027 C 
BRANCH  24  25
HETATM   25  C           1     -21.025  -3.687 -10.893  0.00  0.00     0.229 C 
BRANCH  25  26
HETATM   26  N           1     -22.235  -4.485 -11.281  0.00  0.00    -0.079 N 
HETATM   27  H           1     -22.624  -4.964 -10.437  0.00  0.00     0.274 HD
HETATM   28  H           1     -22.958  -3.846 -11.683  0.00  0.00     0.274 HD
HETATM   29  H           1     -21.966  -5.201 -11.995  0.00  0.00     0.274 HD
ENDBRANCH  25  26
ENDBRANCH  24  25
ENDBRANCH  23  24
ENDBRANCH  22  23
ENDBRANCH  21  22
BRANCH  21  30
HETATM   30  C           1     -22.804  -4.426  -7.277  0.00  0.00     0.196 C 
HETATM   31  O           1     -23.665  -4.811  -6.458  0.00  0.00    -0.646 OA
HETATM   32  O           1     -23.158  -3.953  -8.379  0.00  0.00    -0.646 OA
ENDBRANCH  21  30
ENDBRANCH   2  21
TORSDOF 11
ENDMDL
MODEL 6
REMARK VINA RESULT:      -6.6      2.351      7.688
REMARK  11 active torsions:
REMARK  status: ('A' for Active; 'I' for Inactive)
REMARK       I    between atoms: C_6  and  N_7 
REMARK    1  A    between atoms: C_6  and  C_28 
REMARK    2  A    between atoms: N_7  and  C_8 
REMARK    3  A    between atoms: C_8  and  C_15 
REMARK    4  A    between atoms: C_8  and  C_9 
REMARK    5  A    between atoms: C_12  and  C_28 
REMARK    6  A    between atoms: C_12  and  C_16 
REMARK    7  A    between atoms: N_14  and  C_22 
REMARK    8  A    between atoms: C_15  and  C_21 
REMARK    9  A    between atoms: C_20  and  C_22 
REMARK   10  A    between atoms: C_20  and  C_21 
REMARK   11  A    between atoms: N_27  and  C_28 
ROOT
HETATM    1  C           1     -20.249  -9.129  -5.029  0.00  0.00     0.249 C 
HETATM    2  N           1     -21.023  -8.200  -5.671  0.00  0.00    -0.345 N 
HETATM    3  H           1     -21.790  -8.499  -6.259  0.00  0.00     0.163 HD
HETATM    4  O           1     -19.332  -8.771  -4.329  0.00  0.00    -0.271 OA
ENDROOT
BRANCH   1   5
HETATM    5  C           1     -20.540 -10.600  -5.198  0.00  0.00     0.278 C 
BRANCH   5   6
HETATM    6  C           1     -20.222 -11.333  -3.902  0.00  0.00     0.083 C 
BRANCH   6   7
HETATM    7  C           1     -21.405 -11.270  -2.988  0.00  0.00    -0.028 A 
HETATM    8  C           1     -21.594 -10.347  -1.922  0.00  0.00    -0.002 A 
HETATM    9  C           1     -20.831  -9.286  -1.399  0.00  0.00     0.014 A 
HETATM   10  C           1     -22.824 -10.642  -1.335  0.00  0.00     0.042 A 
HETATM   11  C           1     -21.325  -8.557  -0.311  0.00  0.00     0.001 A 
HETATM   12  C           1     -22.559  -8.875   0.256  0.00  0.00     0.002 A 
HETATM   13  C           1     -23.334  -9.925  -0.246  0.00  0.00     0.030 A 
HETATM   14  N           1     -23.357 -11.707  -2.026  0.00  0.00    -0.365 N 
HETATM   15  H           1     -24.282 -12.159  -1.816  0.00  0.00     0.165 HD
HETATM   16  C           1     -22.507 -12.095  -3.028  0.00  0.00     0.096 A 
ENDBRANCH   6   7
ENDBRANCH   5   6
BRANCH   5  17
HETATM   17  N           1     -19.694 -11.153  -6.305  0.00  0.00    -0.066 N 
HETATM   18  H           1     -19.506 -12.165  -6.128  0.00  0.00     0.275 HD
HETATM   19  H           1     -18.788 -10.632  -6.344  0.00  0.00     0.275 HD
HETATM   20  H           1     -20.197 -11.046  -7.214  0.00  0.00     0.275 HD
ENDBRANCH   5  17
ENDBRANCH   1   5
BRANCH   2  21
HETATM   21  C           1     -20.742  -6.786  -5.509  0.00  0.00     0.185 C 
BRANCH  21  22
HETATM   22  C           1     -20.767  -6.103  -6.871  0.00  0.00     0.036 C 
BRANCH  22  23
HETATM   23  C           1     -20.240  -4.681  -6.736  0.00  0.00     0.004 C 
BRANCH  23  24
HETATM   24  C           1     -21.246  -3.708  -7.336  0.00  0.00     0.027 C 
BRANCH  24  25
HETATM   25  C           1     -22.309  -4.482  -8.102  0.00  0.00     0.229 C 
BRANCH  25  26
HETATM   26  N           1     -23.655  -4.220  -7.495  0.00  0.00    -0.079 N 
HETATM   27  H           1     -23.605  -3.371  -6.886  0.00  0.00     0.274 HD
HETATM   28  H           1     -24.354  -4.062  -8.256  0.00  0.00     0.274 HD
HETATM   29  H           1     -23.945  -5.044  -6.921  0.00  0.00     0.274 HD
ENDBRANCH  25  26
ENDBRANCH  24  25
ENDBRANCH  23  24
ENDBRANCH  22  23
ENDBRANCH  21  22
BRANCH  21  30
HETATM   30  C           1     -21.790  -6.166  -4.617  0.00  0.00     0.196 C 
HETATM   31  O           1     -21.478  -5.759  -3.477  0.00  0.00    -0.646 OA
HETATM   32  O           1     -22.969  -6.059  -5.019  0.00  0.00    -0.646 OA
ENDBRANCH  21  30
ENDBRANCH   2  21
TORSDOF 11
ENDMDL
MODEL 7
REMARK VINA RESULT:      -6.5      2.151      3.599
REMARK  11 active torsions:
REMARK  status: ('A' for Active; 'I' for Inactive)
REMARK       I    between atoms: C_6  and  N_7 
REMARK    1  A    between atoms: C_6  and  C_28 
REMARK    2  A    between atoms: N_7  and  C_8 
REMARK    3  A    between atoms: C_8  and  C_15 
REMARK    4  A    between atoms: C_8  and  C_9 
REMARK    5  A    between atoms: C_12  and  C_28 
REMARK    6  A    between atoms: C_12  and  C_16 
REMARK    7  A    between atoms: N_14  and  C_22 
REMARK    8  A    between atoms: C_15  and  C_21 
REMARK    9  A    between atoms: C_20  and  C_22 
REMARK   10  A    between atoms: C_20  and  C_21 
REMARK   11  A    between atoms: N_27  and  C_28 
ROOT
HETATM    1  C           1     -20.575  -7.302  -5.437  0.00  0.00     0.249 C 
HETATM    2  N           1     -20.801  -7.994  -4.278  0.00  0.00    -0.345 N 
HETATM    3  H           1     -21.651  -7.836  -3.751  0.00  0.00     0.163 HD
HETATM    4  O           1     -19.560  -7.491  -6.065  0.00  0.00    -0.271 OA
ENDROOT
BRANCH   1   5
HETATM    5  C           1     -21.592  -6.302  -5.930  0.00  0.00     0.278 C 
BRANCH   5   6
HETATM    6  C           1     -20.923  -4.947  -6.118  0.00  0.00     0.083 C 
BRANCH   6   7
HETATM    7  C           1     -20.863  -4.616  -7.576  0.00  0.00    -0.028 A 
HETATM    8  C           1     -21.967  -4.270  -8.404  0.00  0.00    -0.002 A 
HETATM    9  C           1     -23.350  -4.128  -8.184  0.00  0.00     0.014 A 
HETATM   10  C           1     -21.463  -4.043  -9.685  0.00  0.00     0.042 A 
HETATM   11  C           1     -24.180  -3.764  -9.251  0.00  0.00     0.001 A 
HETATM   12  C           1     -23.649  -3.543 -10.521  0.00  0.00     0.002 A 
HETATM   13  C           1     -22.279  -3.678 -10.764  0.00  0.00     0.030 A 
HETATM   14  N           1     -20.103  -4.246  -9.627  0.00  0.00    -0.365 N 
HETATM   15  H           1     -19.446  -4.149 -10.441  0.00  0.00     0.165 HD
HETATM   16  C           1     -19.729  -4.594  -8.356  0.00  0.00     0.096 A 
ENDBRANCH   6   7
ENDBRANCH   5   6
BRANCH   5  17
HETATM   17  N           1     -22.698  -6.179  -4.925  0.00  0.00    -0.066 N 
HETATM   18  H           1     -23.615  -6.364  -5.391  0.00  0.00     0.275 HD
HETATM   19  H           1     -22.701  -5.212  -4.527  0.00  0.00     0.275 HD
HETATM   20  H           1     -22.551  -6.873  -4.159  0.00  0.00     0.275 HD
ENDBRANCH   5  17
ENDBRANCH   1   5
BRANCH   2  21
HETATM   21  C           1     -19.824  -8.954  -3.804  0.00  0.00     0.185 C 
BRANCH  21  22
HETATM   22  C           1     -19.741  -8.889  -2.284  0.00  0.00     0.036 C 
BRANCH  22  23
HETATM   23  C           1     -20.762  -7.886  -1.763  0.00  0.00     0.004 C 
BRANCH  23  24
HETATM   24  C           1     -21.906  -8.632  -1.087  0.00  0.00     0.027 C 
BRANCH  24  25
HETATM   25  C           1     -22.341  -7.873   0.159  0.00  0.00     0.229 C 
BRANCH  25  26
HETATM   26  N           1     -21.467  -8.262   1.314  0.00  0.00    -0.079 N 
HETATM   27  H           1     -20.502  -8.470   0.968  0.00  0.00     0.274 HD
HETATM   28  H           1     -21.428  -7.475   2.001  0.00  0.00     0.274 HD
HETATM   29  H           1     -21.862  -9.112   1.778  0.00  0.00     0.274 HD
ENDBRANCH  25  26
ENDBRANCH  24  25
ENDBRANCH  23  24
ENDBRANCH  22  23
ENDBRANCH  21  22
BRANCH  21  30
HETATM   30  C           1     -20.239 -10.343  -4.225  0.00  0.00     0.196 C 
HETATM   31  O           1     -19.947 -10.763  -5.365  0.00  0.00    -0.646 OA
HETATM   32  O           1     -20.874 -11.072  -3.434  0.00  0.00    -0.646 OA
ENDBRANCH  21  30
ENDBRANCH   2  21
TORSDOF 11
ENDMDL
MODEL 8
REMARK VINA RESULT:      -6.4      2.603      3.982
REMARK  11 active torsions:
REMARK  status: ('A' for Active; 'I' for Inactive)
REMARK       I    between atoms: C_6  and  N_7 
REMARK    1  A    between atoms: C_6  and  C_28 
REMARK    2  A    between atoms: N_7  and  C_8 
REMARK    3  A    between atoms: C_8  and  C_15 
REMARK    4  A    between atoms: C_8  and  C_9 
REMARK    5  A    between atoms: C_12  and  C_28 
REMARK    6  A    between atoms: C_12  and  C_16 
REMARK    7  A    between atoms: N_14  and  C_22 
REMARK    8  A    between atoms: C_15  and  C_21 
REMARK    9  A    between atoms: C_20  and  C_22 
REMARK   10  A    between atoms: C_20  and  C_21 
REMARK   11  A    between atoms: N_27  and  C_28 
ROOT
HETATM    1  C           1     -21.811  -7.552  -2.120  0.00  0.00     0.249 C 
HETATM    2  N           1     -21.859  -8.704  -1.381  0.00  0.00    -0.345 N 
HETATM    3  H           1     -21.557  -9.579  -1.787  0.00  0.00     0.163 HD
HETATM    4  O           1     -22.173  -6.507  -1.634  0.00  0.00    -0.271 OA
ENDROOT
BRANCH   1   5
HETATM    5  C           1     -21.307  -7.589  -3.542  0.00  0.00     0.278 C 
BRANCH   5   6
HETATM    6  C           1     -22.033  -6.534  -4.366  0.00  0.00     0.083 C 
BRANCH   6   7
HETATM    7  C           1     -21.256  -6.251  -5.613  0.00  0.00    -0.028 A 
HETATM    8  C           1     -21.685  -5.447  -6.705  0.00  0.00    -0.002 A 
HETATM    9  C           1     -22.854  -4.714  -6.981  0.00  0.00     0.014 A 
HETATM   10  C           1     -20.658  -5.453  -7.649  0.00  0.00     0.042 A 
HETATM   11  C           1     -22.955  -4.012  -8.188  0.00  0.00     0.001 A 
HETATM   12  C           1     -21.911  -4.036  -9.113  0.00  0.00     0.002 A 
HETATM   13  C           1     -20.741  -4.758  -8.861  0.00  0.00     0.030 A 
HETATM   14  N           1     -19.645  -6.235  -7.139  0.00  0.00    -0.365 N 
HETATM   15  H           1     -18.734  -6.430  -7.624  0.00  0.00     0.165 HD
HETATM   16  C           1     -19.997  -6.723  -5.909  0.00  0.00     0.096 A 
ENDBRANCH   6   7
ENDBRANCH   5   6
BRANCH   5  17
HETATM   17  N           1     -21.565  -8.945  -4.128  0.00  0.00    -0.066 N 
HETATM   18  H           1     -20.859  -9.144  -4.871  0.00  0.00     0.275 HD
HETATM   19  H           1     -22.524  -8.968  -4.544  0.00  0.00     0.275 HD
HETATM   20  H           1     -21.493  -9.668  -3.377  0.00  0.00     0.275 HD
ENDBRANCH   5  17
ENDBRANCH   1   5
BRANCH   2  21
HETATM   21  C           1     -22.343  -8.668  -0.014  0.00  0.00     0.185 C 
BRANCH  21  22
HETATM   22  C           1     -23.533  -9.609   0.129  0.00  0.00     0.036 C 
BRANCH  22  23
HETATM   23  C           1     -23.512 -10.629  -1.002  0.00  0.00     0.004 C 
BRANCH  23  24
HETATM   24  C           1     -23.869 -12.004  -0.451  0.00  0.00     0.027 C 
BRANCH  24  25
HETATM   25  C           1     -22.885 -13.036  -0.984  0.00  0.00     0.229 C 
BRANCH  25  26
HETATM   26  N           1     -21.492 -12.484  -0.913  0.00  0.00    -0.079 N 
HETATM   27  H           1     -20.907 -12.910  -1.668  0.00  0.00     0.274 HD
HETATM   28  H           1     -21.522 -11.447  -1.041  0.00  0.00     0.274 HD
HETATM   29  H           1     -21.075 -12.709   0.019  0.00  0.00     0.274 HD
ENDBRANCH  25  26
ENDBRANCH  24  25
ENDBRANCH  23  24
ENDBRANCH  22  23
ENDBRANCH  21  22
BRANCH  21  30
HETATM   30  C           1     -21.242  -9.105   0.920  0.00  0.00     0.196 C 
HETATM   31  O           1     -20.730 -10.238   0.796  0.00  0.00    -0.646 OA
HETATM   32  O           1     -20.841  -8.333   1.818  0.00  0.00    -0.646 OA
ENDBRANCH  21  30
ENDBRANCH   2  21
TORSDOF 11
ENDMDL
MODEL 9
REMARK VINA RESULT:      -6.2      2.436      3.595
REMARK  11 active torsions:
REMARK  status: ('A' for Active; 'I' for Inactive)
REMARK       I    between atoms: C_6  and  N_7 
REMARK    1  A    between atoms: C_6  and  C_28 
REMARK    2  A    between atoms: N_7  and  C_8 
REMARK    3  A    between atoms: C_8  and  C_15 
REMARK    4  A    between atoms: C_8  and  C_9 
REMARK    5  A    between atoms: C_12  and  C_28 
REMARK    6  A    between atoms: C_12  and  C_16 
REMARK    7  A    between atoms: N_14  and  C_22 
REMARK    8  A    between atoms: C_15  and  C_21 
REMARK    9  A    between atoms: C_20  and  C_22 
REMARK   10  A    between atoms: C_20  and  C_21 
REMARK   11  A    between atoms: N_27  and  C_28 
ROOT
HETATM    1  C           1     -21.142  -8.037  -4.640  0.00  0.00     0.249 C 
HETATM    2  N           1     -21.009  -8.979  -5.625  0.00  0.00    -0.345 N 
HETATM    3  H           1     -21.276  -8.758  -6.576  0.00  0.00     0.163 HD
HETATM    4  O           1     -20.825  -8.302  -3.505  0.00  0.00    -0.271 OA
ENDROOT
BRANCH   1   5
HETATM    5  C           1     -21.685  -6.669  -4.972  0.00  0.00     0.278 C 
BRANCH   5   6
HETATM    6  C           1     -20.826  -6.029  -6.055  0.00  0.00     0.083 C 
BRANCH   6   7
HETATM    7  C           1     -21.697  -5.248  -6.988  0.00  0.00    -0.028 A 
HETATM    8  C           1     -21.355  -4.833  -8.305  0.00  0.00    -0.002 A 
HETATM    9  C           1     -20.213  -4.985  -9.114  0.00  0.00     0.014 A 
HETATM   10  C           1     -22.450  -4.134  -8.813  0.00  0.00     0.042 A 
HETATM   11  C           1     -20.208  -4.435 -10.402  0.00  0.00     0.001 A 
HETATM   12  C           1     -21.317  -3.742 -10.883  0.00  0.00     0.002 A 
HETATM   13  C           1     -22.462  -3.578 -10.098  0.00  0.00     0.030 A 
HETATM   14  N           1     -23.417  -4.130  -7.833  0.00  0.00    -0.365 N 
HETATM   15  H           1     -24.361  -3.678  -7.922  0.00  0.00     0.165 HD
HETATM   16  C           1     -22.972  -4.801  -6.725  0.00  0.00     0.096 A 
ENDBRANCH   6   7
ENDBRANCH   5   6
BRANCH   5  17
HETATM   17  N           1     -21.662  -5.810  -3.743  0.00  0.00    -0.066 N 
HETATM   18  H           1     -22.408  -5.082  -3.813  0.00  0.00     0.275 HD
HETATM   19  H           1     -20.729  -5.345  -3.661  0.00  0.00     0.275 HD
HETATM   20  H           1     -21.832  -6.403  -2.901  0.00  0.00     0.275 HD
ENDBRANCH   5  17
ENDBRANCH   1   5
BRANCH   2  21
HETATM   21  C           1     -20.487 -10.293  -5.306  0.00  0.00     0.185 C 
BRANCH  21  22
HETATM   22  C           1     -21.175 -11.339  -6.174  0.00  0.00     0.036 C 
BRANCH  22  23
HETATM   23  C           1     -21.050 -12.706  -5.517  0.00  0.00     0.004 C 
BRANCH  23  24
HETATM   24  C           1     -20.446 -13.693  -6.508  0.00  0.00     0.027 C 
BRANCH  24  25
HETATM   25  C           1     -20.564 -13.133  -7.918  0.00  0.00     0.229 C 
BRANCH  25  26
HETATM   26  N           1     -19.212 -13.121  -8.568  0.00  0.00    -0.079 N 
HETATM   27  H           1     -18.522 -13.603  -7.948  0.00  0.00     0.274 HD
HETATM   28  H           1     -19.263 -13.619  -9.485  0.00  0.00     0.274 HD
HETATM   29  H           1     -18.909 -12.132  -8.723  0.00  0.00     0.274 HD
ENDBRANCH  25  26
ENDBRANCH  24  25
ENDBRANCH  23  24
ENDBRANCH  22  23
ENDBRANCH  21  22
BRANCH  21  30
HETATM   30  C           1     -19.001 -10.320  -5.569  0.00  0.00     0.196 C 
HETATM   31  O           1     -18.197 -10.142  -4.629  0.00  0.00    -0.646 OA
HETATM   32  O           1     -18.575 -10.522  -6.726  0.00  0.00    -0.646 OA
ENDBRANCH  21  30
ENDBRANCH   2  21
TORSDOF 11
ENDMDL
