MODEL 1
REMARK VINA RESULT:      -8.1      0.000      0.000
REMARK  10 active torsions:
REMARK  status: ('A' for Active; 'I' for Inactive)
REMARK    1  A    between atoms: C_2  and  C_3 
REMARK    2  A    between atoms: C_2  and  C_17 
REMARK    3  A    between atoms: C_3  and  N_4 
REMARK       I    between atoms: N_4  and  C_24 
REMARK    4  A    between atoms: C_8  and  C_19 
REMARK       I    between atoms: N_10  and  C_24 
REMARK    5  A    between atoms: C_14  and  C_15 
REMARK    6  A    between atoms: C_14  and  C_19 
REMARK    7  A    between atoms: C_14  and  N_29 
REMARK       I    between atoms: C_15  and  N_21 
REMARK    8  A    between atoms: C_17  and  C_31 
REMARK    9  A    between atoms: N_21  and  C_31 
REMARK   10  A    between atoms: C_30  and  C_31 
ROOT
HETATM    1  C           1     -34.043  -4.510 -15.152  0.00  0.00     0.249 C 
HETATM    2  N           1     -33.541  -3.759 -14.122  0.00  0.00    -0.345 N 
HETATM    3  H           1     -32.708  -3.201 -14.261  0.00  0.00     0.163 HD
HETATM    4  O           1     -35.037  -5.175 -14.985  0.00  0.00    -0.271 OA
ENDROOT
BRANCH   1   5
HETATM    5  C           1     -33.353  -4.506 -16.494  0.00  0.00     0.278 C 
BRANCH   5   6
HETATM    6  C           1     -31.845  -4.484 -16.289  0.00  0.00     0.083 C 
BRANCH   6   7
HETATM    7  C           1     -31.216  -5.587 -17.084  0.00  0.00    -0.028 A 
HETATM    8  C           1     -31.846  -6.730 -17.522  0.00  0.00     0.096 A 
HETATM    9  N           1     -30.924  -7.476 -18.209  0.00  0.00    -0.365 N 
HETATM   10  C           1     -29.706  -6.835 -18.224  0.00  0.00     0.042 A 
HETATM   11  H           1     -31.121  -8.405 -18.660  0.00  0.00     0.165 HD
HETATM   12  C           1     -29.863  -5.641 -17.520  0.00  0.00    -0.002 A 
HETATM   13  C           1     -28.490  -7.218 -18.800  0.00  0.00     0.030 A 
HETATM   14  C           1     -28.755  -4.784 -17.384  0.00  0.00     0.014 A 
HETATM   15  C           1     -27.531  -5.151 -17.955  0.00  0.00     0.001 A 
HETATM   16  C           1     -27.403  -6.351 -18.651  0.00  0.00     0.002 A 
ENDBRANCH   6   7
ENDBRANCH   5   6
BRANCH   5  17
HETATM   17  N           1     -33.770  -3.289 -17.265  0.00  0.00    -0.066 N 
HETATM   18  H           1     -34.482  -2.755 -16.717  0.00  0.00     0.275 HD
HETATM   19  H           1     -32.936  -2.683 -17.437  0.00  0.00     0.275 HD
HETATM   20  H           1     -34.183  -3.582 -18.180  0.00  0.00     0.275 HD
ENDBRANCH   5  17
ENDBRANCH   1   5
BRANCH   2  21
HETATM   21  C           1     -34.204  -3.762 -12.833  0.00  0.00     0.185 C 
BRANCH  21  22
HETATM   22  C           1     -33.166  -3.907 -11.727  0.00  0.00     0.038 C 
BRANCH  22  23
HETATM   23  C           1     -33.797  -4.595 -10.524  0.00  0.00     0.023 C 
BRANCH  23  24
HETATM   24  C           1     -34.651  -5.764 -10.998  0.00  0.00     0.138 C 
BRANCH  24  25
HETATM   25  N           1     -33.852  -6.997 -10.975  0.00  0.00    -0.227 N 
HETATM   26  C           1     -34.178  -7.950 -10.208  0.00  0.00     0.665 C 
HETATM   27  N           1     -33.471  -9.041 -10.188  0.00  0.00    -0.235 N 
HETATM   28  N           1     -35.195  -7.841  -9.461  0.00  0.00    -0.235 N 
HETATM   29  H           1     -32.632  -9.130 -10.805  0.00  0.00     0.174 HD
HETATM   30  H           1     -33.741  -9.827  -9.556  0.00  0.00     0.174 HD
HETATM   31  H           1     -35.767  -6.961  -9.478  0.00  0.00     0.174 HD
HETATM   32  H           1     -35.466  -8.632  -8.826  0.00  0.00     0.174 HD
HETATM   33  H           1     -33.008  -7.087 -11.595  0.00  0.00     0.177 HD
ENDBRANCH  24  25
ENDBRANCH  23  24
ENDBRANCH  22  23
ENDBRANCH  21  22
BRANCH  21  34
HETATM   34  C           1     -34.954  -2.465 -12.650  0.00  0.00     0.196 C 
HETATM   35  O           1     -34.709  -1.491 -13.393  0.00  0.00    -0.646 OA
HETATM   36  O           1     -35.821  -2.365 -11.754  0.00  0.00    -0.646 OA
ENDBRANCH  21  34
ENDBRANCH   2  21
TORSDOF 10
ENDMDL
MODEL 2
REMARK VINA RESULT:      -8.0     14.195     15.524
REMARK  10 active torsions:
REMARK  status: ('A' for Active; 'I' for Inactive)
REMARK    1  A    between atoms: C_2  and  C_3 
REMARK    2  A    between atoms: C_2  and  C_17 
REMARK    3  A    between atoms: C_3  and  N_4 
REMARK       I    between atoms: N_4  and  C_24 
REMARK    4  A    between atoms: C_8  and  C_19 
REMARK       I    between atoms: N_10  and  C_24 
REMARK    5  A    between atoms: C_14  and  C_15 
REMARK    6  A    between atoms: C_14  and  C_19 
REMARK    7  A    between atoms: C_14  and  N_29 
REMARK       I    between atoms: C_15  and  N_21 
REMARK    8  A    between atoms: C_17  and  C_31 
REMARK    9  A    between atoms: N_21  and  C_31 
REMARK   10  A    between atoms: C_30  and  C_31 
ROOT
HETATM    1  C           1     -20.477  -7.356  -5.474  0.00  0.00     0.249 C 
HETATM    2  N           1     -20.488  -8.284  -4.467  0.00  0.00    -0.345 N 
HETATM    3  H           1     -21.246  -8.294  -3.796  0.00  0.00     0.163 HD
HETATM    4  O           1     -19.572  -7.345  -6.274  0.00  0.00    -0.271 OA
ENDROOT
BRANCH   1   5
HETATM    5  C           1     -21.595  -6.349  -5.585  0.00  0.00     0.278 C 
BRANCH   5   6
HETATM    6  C           1     -21.062  -5.065  -6.203  0.00  0.00     0.083 C 
BRANCH   6   7
HETATM    7  C           1     -21.948  -4.650  -7.336  0.00  0.00    -0.028 A 
HETATM    8  C           1     -23.298  -4.392  -7.257  0.00  0.00     0.096 A 
HETATM    9  N           1     -23.731  -4.044  -8.510  0.00  0.00    -0.365 N 
HETATM   10  C           1     -22.682  -4.071  -9.402  0.00  0.00     0.042 A 
HETATM   11  H           1     -24.721  -3.793  -8.755  0.00  0.00     0.165 HD
HETATM   12  C           1     -21.546  -4.451  -8.686  0.00  0.00    -0.002 A 
HETATM   13  C           1     -22.653  -3.792 -10.772  0.00  0.00     0.030 A 
HETATM   14  C           1     -20.319  -4.557  -9.369  0.00  0.00     0.014 A 
HETATM   15  C           1     -20.272  -4.280 -10.740  0.00  0.00     0.001 A 
HETATM   16  C           1     -21.423  -3.905 -11.430  0.00  0.00     0.002 A 
ENDBRANCH   6   7
ENDBRANCH   5   6
BRANCH   5  17
HETATM   17  N           1     -22.140  -6.058  -4.218  0.00  0.00    -0.066 N 
HETATM   18  H           1     -21.508  -5.387  -3.727  0.00  0.00     0.275 HD
HETATM   19  H           1     -23.093  -5.638  -4.306  0.00  0.00     0.275 HD
HETATM   20  H           1     -22.199  -6.946  -3.670  0.00  0.00     0.275 HD
ENDBRANCH   5  17
ENDBRANCH   1   5
BRANCH   2  21
HETATM   21  C           1     -19.414  -9.252  -4.361  0.00  0.00     0.185 C 
BRANCH  21  22
HETATM   22  C           1     -19.009  -9.404  -2.900  0.00  0.00     0.038 C 
BRANCH  22  23
HETATM   23  C           1     -19.953  -8.592  -2.023  0.00  0.00     0.023 C 
BRANCH  23  24
HETATM   24  C           1     -20.674  -9.522  -1.056  0.00  0.00     0.138 C 
BRANCH  24  25
HETATM   25  N           1     -22.028  -9.011  -0.801  0.00  0.00    -0.227 N 
HETATM   26  C           1     -22.309  -8.493   0.320  0.00  0.00     0.665 C 
HETATM   27  N           1     -23.506  -8.041   0.546  0.00  0.00    -0.235 N 
HETATM   28  N           1     -21.422  -8.415   1.221  0.00  0.00    -0.235 N 
HETATM   29  H           1     -24.237  -8.105  -0.198  0.00  0.00     0.174 HD
HETATM   30  H           1     -23.738  -7.613   1.470  0.00  0.00     0.174 HD
HETATM   31  H           1     -20.455  -8.780   1.039  0.00  0.00     0.174 HD
HETATM   32  H           1     -21.655  -7.986   2.150  0.00  0.00     0.174 HD
HETATM   33  H           1     -22.763  -9.075  -1.548  0.00  0.00     0.177 HD
ENDBRANCH  24  25
ENDBRANCH  23  24
ENDBRANCH  22  23
ENDBRANCH  21  22
BRANCH  21  34
HETATM   34  C           1     -19.884 -10.585  -4.892  0.00  0.00     0.196 C 
HETATM   35  O           1     -19.966 -10.771  -6.125  0.00  0.00    -0.646 OA
HETATM   36  O           1     -20.191 -11.501  -4.099  0.00  0.00    -0.646 OA
ENDBRANCH  21  34
ENDBRANCH   2  21
TORSDOF 10
ENDMDL
MODEL 3
REMARK VINA RESULT:      -7.9     14.022     16.684
REMARK  10 active torsions:
REMARK  status: ('A' for Active; 'I' for Inactive)
REMARK    1  A    between atoms: C_2  and  C_3 
REMARK    2  A    between atoms: C_2  and  C_17 
REMARK    3  A    between atoms: C_3  and  N_4 
REMARK       I    between atoms: N_4  and  C_24 
REMARK    4  A    between atoms: C_8  and  C_19 
REMARK       I    between atoms: N_10  and  C_24 
REMARK    5  A    between atoms: C_14  and  C_15 
REMARK    6  A    between atoms: C_14  and  C_19 
REMARK    7  A    between atoms: C_14  and  N_29 
REMARK       I    between atoms: C_15  and  N_21 
REMARK    8  A    between atoms: C_17  and  C_31 
REMARK    9  A    between atoms: N_21  and  C_31 
REMARK   10  A    between atoms: C_30  and  C_31 
ROOT
HETATM    1  C           1     -21.497  -6.316  -4.370  0.00  0.00     0.249 C 
HETATM    2  N           1     -21.052  -5.297  -5.170  0.00  0.00    -0.345 N 
HETATM    3  H           1     -20.593  -4.495  -4.760  0.00  0.00     0.163 HD
HETATM    4  O           1     -22.046  -7.273  -4.860  0.00  0.00    -0.271 OA
ENDROOT
BRANCH   1   5
HETATM    5  C           1     -21.301  -6.241  -2.875  0.00  0.00     0.278 C 
BRANCH   5   6
HETATM    6  C           1     -20.723  -7.557  -2.373  0.00  0.00     0.083 C 
BRANCH   6   7
HETATM    7  C           1     -21.643  -8.149  -1.350  0.00  0.00    -0.028 A 
HETATM    8  C           1     -21.976  -7.587  -0.139  0.00  0.00     0.096 A 
HETATM    9  N           1     -22.839  -8.443   0.495  0.00  0.00    -0.365 N 
HETATM   10  C           1     -23.071  -9.551  -0.287  0.00  0.00     0.042 A 
HETATM   11  H           1     -23.262  -8.275   1.442  0.00  0.00     0.165 HD
HETATM   12  C           1     -22.328  -9.391  -1.456  0.00  0.00    -0.002 A 
HETATM   13  C           1     -23.874 -10.672  -0.050  0.00  0.00     0.030 A 
HETATM   14  C           1     -22.387 -10.395  -2.440  0.00  0.00     0.014 A 
HETATM   15  C           1     -23.186 -11.524  -2.220  0.00  0.00     0.001 A 
HETATM   16  C           1     -23.917 -11.658  -1.041  0.00  0.00     0.002 A 
ENDBRANCH   6   7
ENDBRANCH   5   6
BRANCH   5  17
HETATM   17  N           1     -22.622  -5.990  -2.211  0.00  0.00    -0.066 N 
HETATM   18  H           1     -23.356  -6.584  -2.657  0.00  0.00     0.275 HD
HETATM   19  H           1     -22.551  -6.226  -1.196  0.00  0.00     0.275 HD
HETATM   20  H           1     -22.879  -4.982  -2.317  0.00  0.00     0.275 HD
ENDBRANCH   5  17
ENDBRANCH   1   5
BRANCH   2  21
HETATM   21  C           1     -21.240  -5.369  -6.606  0.00  0.00     0.185 C 
BRANCH  21  22
HETATM   22  C           1     -21.746  -4.027  -7.120  0.00  0.00     0.038 C 
BRANCH  22  23
HETATM   23  C           1     -23.020  -4.241  -7.928  0.00  0.00     0.023 C 
BRANCH  23  24
HETATM   24  C           1     -22.658  -4.702  -9.334  0.00  0.00     0.138 C 
BRANCH  24  25
HETATM   25  N           1     -21.589  -3.848  -9.871  0.00  0.00    -0.227 N 
HETATM   26  C           1     -21.355  -3.834 -11.115  0.00  0.00     0.665 C 
HETATM   27  N           1     -20.410  -3.078 -11.591  0.00  0.00    -0.235 N 
HETATM   28  N           1     -22.043  -4.554 -11.897  0.00  0.00    -0.235 N 
HETATM   29  H           1     -19.843  -2.483 -10.945  0.00  0.00     0.174 HD
HETATM   30  H           1     -20.217  -3.065 -12.617  0.00  0.00     0.174 HD
HETATM   31  H           1     -22.806  -5.164 -11.514  0.00  0.00     0.174 HD
HETATM   32  H           1     -21.849  -4.542 -12.928  0.00  0.00     0.174 HD
HETATM   33  H           1     -21.019  -3.250  -9.223  0.00  0.00     0.177 HD
ENDBRANCH  24  25
ENDBRANCH  23  24
ENDBRANCH  22  23
ENDBRANCH  21  22
BRANCH  21  34
HETATM   34  C           1     -19.924  -5.697  -7.269  0.00  0.00     0.196 C 
HETATM   35  O           1     -19.349  -4.840  -7.974  0.00  0.00    -0.646 OA
HETATM   36  O           1     -19.411  -6.826  -7.114  0.00  0.00    -0.646 OA
ENDBRANCH  21  34
ENDBRANCH   2  21
TORSDOF 10
ENDMDL
MODEL 4
REMARK VINA RESULT:      -7.5     14.269     16.718
REMARK  10 active torsions:
REMARK  status: ('A' for Active; 'I' for Inactive)
REMARK    1  A    between atoms: C_2  and  C_3 
REMARK    2  A    between atoms: C_2  and  C_17 
REMARK    3  A    between atoms: C_3  and  N_4 
REMARK       I    between atoms: N_4  and  C_24 
REMARK    4  A    between atoms: C_8  and  C_19 
REMARK       I    between atoms: N_10  and  C_24 
REMARK    5  A    between atoms: C_14  and  C_15 
REMARK    6  A    between atoms: C_14  and  C_19 
REMARK    7  A    between atoms: C_14  and  N_29 
REMARK       I    between atoms: C_15  and  N_21 
REMARK    8  A    between atoms: C_17  and  C_31 
REMARK    9  A    between atoms: N_21  and  C_31 
REMARK   10  A    between atoms: C_30  and  C_31 
ROOT
HETATM    1  C           1     -20.396  -8.992  -4.948  0.00  0.00     0.249 C 
HETATM    2  N           1     -21.136  -8.166  -5.752  0.00  0.00    -0.345 N 
HETATM    3  H           1     -21.823  -8.556  -6.383  0.00  0.00     0.163 HD
HETATM    4  O           1     -19.575  -8.526  -4.195  0.00  0.00    -0.271 OA
ENDROOT
BRANCH   1   5
HETATM    5  C           1     -20.607 -10.485  -5.005  0.00  0.00     0.278 C 
BRANCH   5   6
HETATM    6  C           1     -20.237 -11.101  -3.663  0.00  0.00     0.083 C 
BRANCH   6   7
HETATM    7  C           1     -21.438 -11.112  -2.769  0.00  0.00    -0.028 A 
HETATM    8  C           1     -22.456 -12.037  -2.791  0.00  0.00     0.096 A 
HETATM    9  N           1     -23.357 -11.690  -1.818  0.00  0.00    -0.365 N 
HETATM   10  C           1     -22.938 -10.554  -1.164  0.00  0.00     0.042 A 
HETATM   11  H           1     -24.241 -12.217  -1.603  0.00  0.00     0.165 HD
HETATM   12  C           1     -21.730 -10.169  -1.745  0.00  0.00    -0.002 A 
HETATM   13  C           1     -23.531  -9.846  -0.113  0.00  0.00     0.030 A 
HETATM   14  C           1     -21.078  -9.022  -1.255  0.00  0.00     0.014 A 
HETATM   15  C           1     -21.657  -8.301  -0.203  0.00  0.00     0.001 A 
HETATM   16  C           1     -22.866  -8.708   0.357  0.00  0.00     0.002 A 
ENDBRANCH   6   7
ENDBRANCH   5   6
BRANCH   5  17
HETATM   17  N           1     -19.740 -11.071  -6.079  0.00  0.00    -0.066 N 
HETATM   18  H           1     -18.740 -11.040  -5.777  0.00  0.00     0.275 HD
HETATM   19  H           1     -20.021 -12.063  -6.251  0.00  0.00     0.275 HD
HETATM   20  H           1     -19.855 -10.519  -6.959  0.00  0.00     0.275 HD
ENDBRANCH   5  17
ENDBRANCH   1   5
BRANCH   2  21
HETATM   21  C           1     -20.933  -6.731  -5.697  0.00  0.00     0.185 C 
BRANCH  21  22
HETATM   22  C           1     -20.882  -6.171  -7.113  0.00  0.00     0.038 C 
BRANCH  22  23
HETATM   23  C           1     -20.054  -4.892  -7.124  0.00  0.00     0.023 C 
BRANCH  23  24
HETATM   24  C           1     -20.714  -3.868  -8.037  0.00  0.00     0.138 C 
BRANCH  24  25
HETATM   25  N           1     -22.165  -3.863  -7.802  0.00  0.00    -0.227 N 
HETATM   26  C           1     -22.965  -3.767  -8.779  0.00  0.00     0.665 C 
HETATM   27  N           1     -24.248  -3.763  -8.570  0.00  0.00    -0.235 N 
HETATM   28  N           1     -22.515  -3.676  -9.959  0.00  0.00    -0.235 N 
HETATM   29  H           1     -24.619  -3.838  -7.596  0.00  0.00     0.174 HD
HETATM   30  H           1     -24.908  -3.684  -9.376  0.00  0.00     0.174 HD
HETATM   31  H           1     -21.479  -3.680 -10.127  0.00  0.00     0.174 HD
HETATM   32  H           1     -23.178  -3.597 -10.768  0.00  0.00     0.174 HD
HETATM   33  H           1     -22.538  -3.938  -6.823  0.00  0.00     0.177 HD
ENDBRANCH  24  25
ENDBRANCH  23  24
ENDBRANCH  22  23
ENDBRANCH  21  22
BRANCH  21  34
HETATM   34  C           1     -22.074  -6.091  -4.945  0.00  0.00     0.196 C 
HETATM   35  O           1     -23.058  -5.637  -5.569  0.00  0.00    -0.646 OA
HETATM   36  O           1     -22.035  -6.013  -3.698  0.00  0.00    -0.646 OA
ENDBRANCH  21  34
ENDBRANCH   2  21
TORSDOF 10
ENDMDL
MODEL 5
REMARK VINA RESULT:      -7.5     13.855     16.418
REMARK  10 active torsions:
REMARK  status: ('A' for Active; 'I' for Inactive)
REMARK    1  A    between atoms: C_2  and  C_3 
REMARK    2  A    between atoms: C_2  and  C_17 
REMARK    3  A    between atoms: C_3  and  N_4 
REMARK       I    between atoms: N_4  and  C_24 
REMARK    4  A    between atoms: C_8  and  C_19 
REMARK       I    between atoms: N_10  and  C_24 
REMARK    5  A    between atoms: C_14  and  C_15 
REMARK    6  A    between atoms: C_14  and  C_19 
REMARK    7  A    between atoms: C_14  and  N_29 
REMARK       I    between atoms: C_15  and  N_21 
REMARK    8  A    between atoms: C_17  and  C_31 
REMARK    9  A    between atoms: N_21  and  C_31 
REMARK   10  A    between atoms: C_30  and  C_31 
ROOT
HETATM    1  C           1     -20.867  -6.404  -5.222  0.00  0.00     0.249 C 
HETATM    2  N           1     -21.011  -5.917  -6.494  0.00  0.00    -0.345 N 
HETATM    3  H           1     -20.867  -6.527  -7.288  0.00  0.00     0.163 HD
HETATM    4  O           1     -21.038  -5.675  -4.274  0.00  0.00    -0.271 OA
ENDROOT
BRANCH   1   5
HETATM    5  C           1     -20.494  -7.850  -5.005  0.00  0.00     0.278 C 
BRANCH   5   6
HETATM    6  C           1     -20.026  -8.044  -3.570  0.00  0.00     0.083 C 
BRANCH   6   7
HETATM    7  C           1     -20.931  -9.013  -2.875  0.00  0.00    -0.028 A 
HETATM    8  C           1     -21.152 -10.321  -3.240  0.00  0.00     0.096 A 
HETATM    9  N           1     -22.043 -10.859  -2.349  0.00  0.00    -0.365 N 
HETATM   10  C           1     -22.404  -9.920  -1.409  0.00  0.00     0.042 A 
HETATM   11  H           1     -22.399 -11.847  -2.378  0.00  0.00     0.165 HD
HETATM   12  C           1     -21.717  -8.746  -1.719  0.00  0.00    -0.002 A 
HETATM   13  C           1     -23.278 -10.019  -0.321  0.00  0.00     0.030 A 
HETATM   14  C           1     -21.908  -7.614  -0.904  0.00  0.00     0.014 A 
HETATM   15  C           1     -22.778  -7.696   0.189  0.00  0.00     0.001 A 
HETATM   16  C           1     -23.452  -8.882   0.474  0.00  0.00     0.002 A 
ENDBRANCH   6   7
ENDBRANCH   5   6
BRANCH   5  17
HETATM   17  N           1     -19.390  -8.227  -5.946  0.00  0.00    -0.066 N 
HETATM   18  H           1     -18.502  -8.354  -5.410  0.00  0.00     0.275 HD
HETATM   19  H           1     -19.635  -9.119  -6.431  0.00  0.00     0.275 HD
HETATM   20  H           1     -19.262  -7.469  -6.655  0.00  0.00     0.275 HD
ENDBRANCH   5  17
ENDBRANCH   1   5
BRANCH   2  21
HETATM   21  C           1     -21.369  -4.528  -6.702  0.00  0.00     0.185 C 
BRANCH  21  22
HETATM   22  C           1     -20.418  -3.904  -7.716  0.00  0.00     0.038 C 
BRANCH  22  23
HETATM   23  C           1     -19.636  -5.003  -8.422  0.00  0.00     0.023 C 
BRANCH  23  24
HETATM   24  C           1     -20.074  -5.082  -9.879  0.00  0.00     0.138 C 
BRANCH  24  25
HETATM   25  N           1     -20.414  -3.737 -10.363  0.00  0.00    -0.227 N 
HETATM   26  C           1     -21.210  -3.596 -11.337  0.00  0.00     0.665 C 
HETATM   27  N           1     -21.511  -2.406 -11.765  0.00  0.00    -0.235 N 
HETATM   28  N           1     -21.716  -4.615 -11.892  0.00  0.00    -0.235 N 
HETATM   29  H           1     -21.094  -1.565 -11.305  0.00  0.00     0.174 HD
HETATM   30  H           1     -22.169  -2.290 -12.567  0.00  0.00     0.174 HD
HETATM   31  H           1     -21.474  -5.576 -11.546  0.00  0.00     0.174 HD
HETATM   32  H           1     -22.377  -4.498 -12.699  0.00  0.00     0.174 HD
HETATM   33  H           1     -19.994  -2.892  -9.902  0.00  0.00     0.177 HD
ENDBRANCH  24  25
ENDBRANCH  23  24
ENDBRANCH  22  23
ENDBRANCH  21  22
BRANCH  21  34
HETATM   34  C           1     -22.783  -4.446  -7.224  0.00  0.00     0.196 C 
HETATM   35  O           1     -23.737  -4.805  -6.501  0.00  0.00    -0.646 OA
HETATM   36  O           1     -23.000  -4.019  -8.379  0.00  0.00    -0.646 OA
ENDBRANCH  21  34
ENDBRANCH   2  21
TORSDOF 10
ENDMDL
MODEL 6
REMARK VINA RESULT:      -7.4     14.518     16.122
REMARK  10 active torsions:
REMARK  status: ('A' for Active; 'I' for Inactive)
REMARK    1  A    between atoms: C_2  and  C_3 
REMARK    2  A    between atoms: C_2  and  C_17 
REMARK    3  A    between atoms: C_3  and  N_4 
REMARK       I    between atoms: N_4  and  C_24 
REMARK    4  A    between atoms: C_8  and  C_19 
REMARK       I    between atoms: N_10  and  C_24 
REMARK    5  A    between atoms: C_14  and  C_15 
REMARK    6  A    between atoms: C_14  and  C_19 
REMARK    7  A    between atoms: C_14  and  N_29 
REMARK       I    between atoms: C_15  and  N_21 
REMARK    8  A    between atoms: C_17  and  C_31 
REMARK    9  A    between atoms: N_21  and  C_31 
REMARK   10  A    between atoms: C_30  and  C_31 
ROOT
HETATM    1  C           1     -21.131  -6.565  -5.750  0.00  0.00     0.249 C 
HETATM    2  N           1     -21.092  -5.259  -6.159  0.00  0.00    -0.345 N 
HETATM    3  H           1     -20.998  -4.517  -5.477  0.00  0.00     0.163 HD
HETATM    4  O           1     -21.244  -7.449  -6.565  0.00  0.00    -0.271 OA
ENDROOT
BRANCH   1   5
HETATM    5  C           1     -21.033  -6.899  -4.282  0.00  0.00     0.278 C 
BRANCH   5   6
HETATM    6  C           1     -21.120  -8.408  -4.097  0.00  0.00     0.083 C 
BRANCH   6   7
HETATM    7  C           1     -19.821  -8.922  -3.560  0.00  0.00    -0.028 A 
HETATM    8  C           1     -19.523  -9.145  -2.234  0.00  0.00     0.096 A 
HETATM    9  N           1     -18.237  -9.613  -2.168  0.00  0.00    -0.365 N 
HETATM   10  C           1     -17.695  -9.699  -3.430  0.00  0.00     0.042 A 
HETATM   11  H           1     -17.737  -9.870  -1.280  0.00  0.00     0.165 HD
HETATM   12  C           1     -18.673  -9.268  -4.327  0.00  0.00    -0.002 A 
HETATM   13  C           1     -16.426 -10.120  -3.842  0.00  0.00     0.030 A 
HETATM   14  C           1     -18.375  -9.257  -5.702  0.00  0.00     0.014 A 
HETATM   15  C           1     -17.110  -9.675  -6.132  0.00  0.00     0.001 A 
HETATM   16  C           1     -16.151 -10.099  -5.214  0.00  0.00     0.002 A 
ENDBRANCH   6   7
ENDBRANCH   5   6
BRANCH   5  17
HETATM   17  N           1     -22.159  -6.240  -3.543  0.00  0.00    -0.066 N 
HETATM   18  H           1     -21.824  -5.922  -2.607  0.00  0.00     0.275 HD
HETATM   19  H           1     -22.499  -5.416  -4.090  0.00  0.00     0.275 HD
HETATM   20  H           1     -22.941  -6.923  -3.419  0.00  0.00     0.275 HD
ENDBRANCH   5  17
ENDBRANCH   1   5
BRANCH   2  21
HETATM   21  C           1     -21.186  -4.938  -7.570  0.00  0.00     0.185 C 
BRANCH  21  22
HETATM   22  C           1     -22.184  -3.804  -7.768  0.00  0.00     0.038 C 
BRANCH  22  23
HETATM   23  C           1     -23.451  -4.349  -8.414  0.00  0.00     0.023 C 
BRANCH  23  24
HETATM   24  C           1     -23.706  -3.621  -9.727  0.00  0.00     0.138 C 
BRANCH  24  25
HETATM   25  N           1     -22.430  -3.412 -10.427  0.00  0.00    -0.227 N 
HETATM   26  C           1     -22.176  -4.058 -11.486  0.00  0.00     0.665 C 
HETATM   27  N           1     -21.048  -3.874 -12.106  0.00  0.00    -0.235 N 
HETATM   28  N           1     -23.021  -4.884 -11.942  0.00  0.00    -0.235 N 
HETATM   29  H           1     -20.351  -3.192 -11.729  0.00  0.00     0.174 HD
HETATM   30  H           1     -20.838  -4.406 -12.979  0.00  0.00     0.174 HD
HETATM   31  H           1     -23.932  -5.032 -11.442  0.00  0.00     0.174 HD
HETATM   32  H           1     -22.810  -5.419 -12.820  0.00  0.00     0.174 HD
HETATM   33  H           1     -21.730  -2.728 -10.049  0.00  0.00     0.177 HD
ENDBRANCH  24  25
ENDBRANCH  23  24
ENDBRANCH  22  23
ENDBRANCH  21  22
BRANCH  21  34
HETATM   34  C           1     -19.831  -4.509  -8.079  0.00  0.00     0.196 C 
HETATM   35  O           1     -19.701  -4.126  -9.262  0.00  0.00    -0.646 OA
HETATM   36  O           1     -18.840  -4.537  -7.318  0.00  0.00    -0.646 OA
ENDBRANCH  21  34
ENDBRANCH   2  21
TORSDOF 10
ENDMDL
MODEL 7
REMARK VINA RESULT:      -7.4     14.621     16.061
REMARK  10 active torsions:
REMARK  status: ('A' for Active; 'I' for Inactive)
REMARK    1  A    between atoms: C_2  and  C_3 
REMARK    2  A    between atoms: C_2  and  C_17 
REMARK    3  A    between atoms: C_3  and  N_4 
REMARK       I    between atoms: N_4  and  C_24 
REMARK    4  A    between atoms: C_8  and  C_19 
REMARK       I    between atoms: N_10  and  C_24 
REMARK    5  A    between atoms: C_14  and  C_15 
REMARK    6  A    between atoms: C_14  and  C_19 
REMARK    7  A    between atoms: C_14  and  N_29 
REMARK       I    between atoms: C_15  and  N_21 
REMARK    8  A    between atoms: C_17  and  C_31 
REMARK    9  A    between atoms: N_21  and  C_31 
REMARK   10  A    between atoms: C_30  and  C_31 
ROOT
HETATM    1  C           1     -21.102  -7.967  -4.875  0.00  0.00     0.249 C 
HETATM    2  N           1     -20.648  -8.257  -3.615  0.00  0.00    -0.345 N 
HETATM    3  H           1     -20.790  -7.597  -2.862  0.00  0.00     0.163 HD
HETATM    4  O           1     -20.932  -8.756  -5.773  0.00  0.00    -0.271 OA
ENDROOT
BRANCH   1   5
HETATM    5  C           1     -21.815  -6.664  -5.138  0.00  0.00     0.278 C 
BRANCH   5   6
HETATM    6  C           1     -20.946  -5.779  -6.021  0.00  0.00     0.083 C 
BRANCH   6   7
HETATM    7  C           1     -21.804  -5.091  -7.037  0.00  0.00    -0.028 A 
HETATM    8  C           1     -23.107  -4.687  -6.858  0.00  0.00     0.096 A 
HETATM    9  N           1     -23.527  -4.101  -8.023  0.00  0.00    -0.365 N 
HETATM   10  C           1     -22.515  -4.117  -8.956  0.00  0.00     0.042 A 
HETATM   11  H           1     -24.484  -3.697  -8.181  0.00  0.00     0.165 HD
HETATM   12  C           1     -21.417  -4.736  -8.359  0.00  0.00    -0.002 A 
HETATM   13  C           1     -22.489  -3.634 -10.270  0.00  0.00     0.030 A 
HETATM   14  C           1     -20.233  -4.883  -9.106  0.00  0.00     0.014 A 
HETATM   15  C           1     -20.189  -4.406 -10.422  0.00  0.00     0.001 A 
HETATM   16  C           1     -21.302  -3.792 -10.993  0.00  0.00     0.002 A 
ENDBRANCH   6   7
ENDBRANCH   5   6
BRANCH   5  17
HETATM   17  N           1     -22.078  -5.967  -3.837  0.00  0.00    -0.066 N 
HETATM   18  H           1     -21.490  -5.105  -3.778  0.00  0.00     0.275 HD
HETATM   19  H           1     -23.088  -5.705  -3.780  0.00  0.00     0.275 HD
HETATM   20  H           1     -21.838  -6.606  -3.045  0.00  0.00     0.275 HD
ENDBRANCH   5  17
ENDBRANCH   1   5
BRANCH   2  21
HETATM   21  C           1     -19.963  -9.509  -3.362  0.00  0.00     0.185 C 
BRANCH  21  22
HETATM   22  C           1     -18.558  -9.225  -2.846  0.00  0.00     0.038 C 
BRANCH  22  23
HETATM   23  C           1     -17.705 -10.480  -2.977  0.00  0.00     0.023 C 
BRANCH  23  24
HETATM   24  C           1     -16.886 -10.406  -4.259  0.00  0.00     0.138 C 
BRANCH  24  25
HETATM   25  N           1     -17.515 -11.240  -5.293  0.00  0.00    -0.227 N 
HETATM   26  C           1     -18.054 -10.699  -6.303  0.00  0.00     0.665 C 
HETATM   27  N           1     -18.610 -11.438  -7.217  0.00  0.00    -0.235 N 
HETATM   28  N           1     -18.049  -9.439  -6.424  0.00  0.00    -0.235 N 
HETATM   29  H           1     -18.614 -12.478  -7.117  0.00  0.00     0.174 HD
HETATM   30  H           1     -19.053 -10.992  -8.051  0.00  0.00     0.174 HD
HETATM   31  H           1     -17.599  -8.843  -5.686  0.00  0.00     0.174 HD
HETATM   32  H           1     -18.494  -8.991  -7.262  0.00  0.00     0.174 HD
HETATM   33  H           1     -17.519 -12.286  -5.192  0.00  0.00     0.177 HD
ENDBRANCH  24  25
ENDBRANCH  23  24
ENDBRANCH  22  23
ENDBRANCH  21  22
BRANCH  21  34
HETATM   34  C           1     -20.727 -10.299  -2.327  0.00  0.00     0.196 C 
HETATM   35  O           1     -20.676  -9.966  -1.124  0.00  0.00    -0.646 OA
HETATM   36  O           1     -21.410 -11.287  -2.674  0.00  0.00    -0.646 OA
ENDBRANCH  21  34
ENDBRANCH   2  21
TORSDOF 10
ENDMDL
MODEL 8
REMARK VINA RESULT:      -7.3     14.151     16.602
REMARK  10 active torsions:
REMARK  status: ('A' for Active; 'I' for Inactive)
REMARK    1  A    between atoms: C_2  and  C_3 
REMARK    2  A    between atoms: C_2  and  C_17 
REMARK    3  A    between atoms: C_3  and  N_4 
REMARK       I    between atoms: N_4  and  C_24 
REMARK    4  A    between atoms: C_8  and  C_19 
REMARK       I    between atoms: N_10  and  C_24 
REMARK    5  A    between atoms: C_14  and  C_15 
REMARK    6  A    between atoms: C_14  and  C_19 
REMARK    7  A    between atoms: C_14  and  N_29 
REMARK       I    between atoms: C_15  and  N_21 
REMARK    8  A    between atoms: C_17  and  C_31 
REMARK    9  A    between atoms: N_21  and  C_31 
REMARK   10  A    between atoms: C_30  and  C_31 
ROOT
HETATM    1  C           1     -20.419  -8.785  -5.533  0.00  0.00     0.249 C 
HETATM    2  N           1     -21.331  -7.787  -5.757  0.00  0.00    -0.345 N 
HETATM    3  H           1     -22.318  -7.964  -5.624  0.00  0.00     0.163 HD
HETATM    4  O           1     -19.241  -8.572  -5.693  0.00  0.00    -0.271 OA
ENDROOT
BRANCH   1   5
HETATM    5  C           1     -20.888 -10.148  -5.088  0.00  0.00     0.278 C 
BRANCH   5   6
HETATM    6  C           1     -20.125 -10.564  -3.838  0.00  0.00     0.083 C 
BRANCH   6   7
HETATM    7  C           1     -20.723  -9.893  -2.641  0.00  0.00    -0.028 A 
HETATM    8  C           1     -20.247  -8.757  -2.026  0.00  0.00     0.096 A 
HETATM    9  N           1     -21.076  -8.473  -0.973  0.00  0.00    -0.365 N 
HETATM   10  C           1     -22.084  -9.408  -0.894  0.00  0.00     0.042 A 
HETATM   11  H           1     -20.959  -7.659  -0.319  0.00  0.00     0.165 HD
HETATM   12  C           1     -21.884 -10.315  -1.935  0.00  0.00    -0.002 A 
HETATM   13  C           1     -23.146  -9.517   0.010  0.00  0.00     0.030 A 
HETATM   14  C           1     -22.786 -11.384  -2.084  0.00  0.00     0.014 A 
HETATM   15  C           1     -23.855 -11.509  -1.189  0.00  0.00     0.001 A 
HETATM   16  C           1     -24.030 -10.589  -0.158  0.00  0.00     0.002 A 
ENDBRANCH   6   7
ENDBRANCH   5   6
BRANCH   5  17
HETATM   17  N           1     -20.636 -11.143  -6.181  0.00  0.00    -0.066 N 
HETATM   18  H           1     -21.548 -11.510  -6.535  0.00  0.00     0.275 HD
HETATM   19  H           1     -20.120 -10.680  -6.962  0.00  0.00     0.275 HD
HETATM   20  H           1     -20.065 -11.935  -5.807  0.00  0.00     0.275 HD
ENDBRANCH   5  17
ENDBRANCH   1   5
BRANCH   2  21
HETATM   21  C           1     -20.880  -6.476  -6.184  0.00  0.00     0.185 C 
BRANCH  21  22
HETATM   22  C           1     -21.841  -5.925  -7.230  0.00  0.00     0.038 C 
BRANCH  22  23
HETATM   23  C           1     -21.095  -4.971  -8.153  0.00  0.00     0.023 C 
BRANCH  23  24
HETATM   24  C           1     -21.840  -3.644  -8.223  0.00  0.00     0.138 C 
BRANCH  24  25
HETATM   25  N           1     -23.285  -3.897  -8.307  0.00  0.00    -0.227 N 
HETATM   26  C           1     -23.890  -3.756  -9.410  0.00  0.00     0.665 C 
HETATM   27  N           1     -25.168  -3.981  -9.485  0.00  0.00    -0.235 N 
HETATM   28  N           1     -23.249  -3.399 -10.442  0.00  0.00    -0.235 N 
HETATM   29  H           1     -25.697  -4.276  -8.634  0.00  0.00     0.174 HD
HETATM   30  H           1     -25.667  -3.865 -10.395  0.00  0.00     0.174 HD
HETATM   31  H           1     -22.216  -3.218 -10.382  0.00  0.00     0.174 HD
HETATM   32  H           1     -23.750  -3.282 -11.357  0.00  0.00     0.174 HD
HETATM   33  H           1     -23.817  -4.194  -7.452  0.00  0.00     0.177 HD
ENDBRANCH  24  25
ENDBRANCH  23  24
ENDBRANCH  22  23
ENDBRANCH  21  22
BRANCH  21  34
HETATM   34  C           1     -20.843  -5.546  -4.996  0.00  0.00     0.196 C 
HETATM   35  O           1     -20.098  -4.542  -5.012  0.00  0.00    -0.646 OA
HETATM   36  O           1     -21.556  -5.779  -3.996  0.00  0.00    -0.646 OA
ENDBRANCH  21  34
ENDBRANCH   2  21
TORSDOF 10
ENDMDL
MODEL 9
REMARK VINA RESULT:      -7.1     14.045     15.459
REMARK  10 active torsions:
REMARK  status: ('A' for Active; 'I' for Inactive)
REMARK    1  A    between atoms: C_2  and  C_3 
REMARK    2  A    between atoms: C_2  and  C_17 
REMARK    3  A    between atoms: C_3  and  N_4 
REMARK       I    between atoms: N_4  and  C_24 
REMARK    4  A    between atoms: C_8  and  C_19 
REMARK       I    between atoms: N_10  and  C_24 
REMARK    5  A    between atoms: C_14  and  C_15 
REMARK    6  A    between atoms: C_14  and  C_19 
REMARK    7  A    between atoms: C_14  and  N_29 
REMARK       I    between atoms: C_15  and  N_21 
REMARK    8  A    between atoms: C_17  and  C_31 
REMARK    9  A    between atoms: N_21  and  C_31 
REMARK   10  A    between atoms: C_30  and  C_31 
ROOT
HETATM    1  C           1     -21.514  -6.292  -4.192  0.00  0.00     0.249 C 
HETATM    2  N           1     -21.042  -7.572  -4.318  0.00  0.00    -0.345 N 
HETATM    3  H           1     -20.477  -7.826  -5.118  0.00  0.00     0.163 HD
HETATM    4  O           1     -22.189  -5.990  -3.236  0.00  0.00    -0.271 OA
ENDROOT
BRANCH   1   5
HETATM    5  C           1     -21.191  -5.262  -5.245  0.00  0.00     0.278 C 
BRANCH   5   6
HETATM    6  C           1     -21.198  -5.920  -6.618  0.00  0.00     0.083 C 
BRANCH   6   7
HETATM    7  C           1     -21.920  -5.041  -7.591  0.00  0.00    -0.028 A 
HETATM    8  C           1     -23.159  -4.471  -7.403  0.00  0.00     0.096 A 
HETATM    9  N           1     -23.459  -3.743  -8.524  0.00  0.00    -0.365 N 
HETATM   10  C           1     -22.433  -3.830  -9.438  0.00  0.00     0.042 A 
HETATM   11  H           1     -24.345  -3.197  -8.666  0.00  0.00     0.165 HD
HETATM   12  C           1     -21.450  -4.643  -8.873  0.00  0.00    -0.002 A 
HETATM   13  C           1     -22.302  -3.257 -10.707  0.00  0.00     0.030 A 
HETATM   14  C           1     -20.277  -4.898  -9.608  0.00  0.00     0.014 A 
HETATM   15  C           1     -20.129  -4.333 -10.880  0.00  0.00     0.001 A 
HETATM   16  C           1     -21.128  -3.525 -11.420  0.00  0.00     0.002 A 
ENDBRANCH   6   7
ENDBRANCH   5   6
BRANCH   5  17
HETATM   17  N           1     -19.835  -4.682  -4.976  0.00  0.00    -0.066 N 
HETATM   18  H           1     -19.109  -5.243  -5.476  0.00  0.00     0.275 HD
HETATM   19  H           1     -19.805  -3.694  -5.315  0.00  0.00     0.275 HD
HETATM   20  H           1     -19.644  -4.704  -3.948  0.00  0.00     0.275 HD
ENDBRANCH   5  17
ENDBRANCH   1   5
BRANCH   2  21
HETATM   21  C           1     -21.352  -8.562  -3.305  0.00  0.00     0.185 C 
BRANCH  21  22
HETATM   22  C           1     -21.732  -9.875  -3.977  0.00  0.00     0.038 C 
BRANCH  22  23
HETATM   23  C           1     -21.333  -9.828  -5.447  0.00  0.00     0.023 C 
BRANCH  23  24
HETATM   24  C           1     -20.572 -11.097  -5.807  0.00  0.00     0.138 C 
BRANCH  24  25
HETATM   25  N           1     -19.141 -10.905  -5.531  0.00  0.00    -0.227 N 
HETATM   26  C           1     -18.279 -11.225  -6.402  0.00  0.00     0.665 C 
HETATM   27  N           1     -17.014 -11.055  -6.158  0.00  0.00    -0.235 N 
HETATM   28  N           1     -18.651 -11.709  -7.512  0.00  0.00    -0.235 N 
HETATM   29  H           1     -16.708 -10.656  -5.242  0.00  0.00     0.174 HD
HETATM   30  H           1     -16.303 -11.318  -6.877  0.00  0.00     0.174 HD
HETATM   31  H           1     -19.673 -11.845  -7.709  0.00  0.00     0.174 HD
HETATM   32  H           1     -17.937 -11.973  -8.234  0.00  0.00     0.174 HD
HETATM   33  H           1     -18.833 -10.504  -4.611  0.00  0.00     0.177 HD
ENDBRANCH  24  25
ENDBRANCH  23  24
ENDBRANCH  22  23
ENDBRANCH  21  22
BRANCH  21  34
HETATM   34  C           1     -20.143  -8.779  -2.428  0.00  0.00     0.196 C 
HETATM   35  O           1     -19.938  -8.028  -1.450  0.00  0.00    -0.646 OA
HETATM   36  O           1     -19.347  -9.710  -2.679  0.00  0.00    -0.646 OA
ENDBRANCH  21  34
ENDBRANCH   2  21
TORSDOF 10
ENDMDL
