MODEL 1
REMARK VINA RESULT:      -5.7      0.000      0.000
REMARK  8 active torsions:
REMARK  status: ('A' for Active; 'I' for Inactive)
REMARK    1  A    between atoms: N_3  and  C_6 
REMARK    2  A    between atoms: Se_4  and  C_5 
REMARK    3  A    between atoms: C_5  and  C_6 
REMARK    4  A    between atoms: C_6  and  C_7 
REMARK       I    between atoms: C_7  and  N_8 
REMARK    5  A    between atoms: N_8  and  C_12 
REMARK    6  A    between atoms: C_11  and  C_12 
REMARK    7  A    between atoms: C_12  and  C_14 
REMARK    8  A    between atoms: C_14  and  C_15 
ROOT
HETATM    1  H           1     -27.773  -7.036 -18.628  0.00  0.00     0.163 HD
HETATM    2  O           1     -24.718  -6.386 -18.332  0.00  0.00    -0.271 OA
HETATM    3  C           1     -25.725  -6.821 -18.838  0.00  0.00     0.249 C 
HETATM    4  N           1     -26.930  -6.671 -18.204  0.00  0.00    -0.344 N 
ENDROOT
BRANCH   3   5
HETATM    5  C           1     -25.655  -7.529 -20.168  0.00  0.00     0.274 C 
BRANCH   5   6
HETATM    6  N           1     -27.044  -7.865 -20.629  0.00  0.00    -0.067 N 
HETATM    7  H           1     -27.077  -8.863 -20.937  0.00  0.00     0.275 HD
HETATM    8  H           1     -27.715  -7.721 -19.841  0.00  0.00     0.275 HD
HETATM    9  H           1     -27.305  -7.245 -21.427  0.00  0.00     0.275 HD
ENDBRANCH   5   6
BRANCH   5  10
HETATM   10  C           1     -24.987  -6.622 -21.194  0.00  0.00     0.045 C 
BRANCH  10  11
HETATM   11 Se           1     -23.951  -7.703 -22.441  0.00  0.00     0.000 Se
HETATM   12  H           1     -22.647  -7.234 -21.944  0.00  0.00     0.000 HD
ENDBRANCH  10  11
ENDBRANCH   5  10
ENDBRANCH   3   5
BRANCH   4  13
HETATM   13  C           1     -26.996  -5.991 -16.925  0.00  0.00     0.189 C 
BRANCH  13  14
HETATM   14  C           1     -26.818  -6.995 -15.812  0.00  0.00     0.197 C 
HETATM   15  O           1     -27.819  -7.460 -15.224  0.00  0.00    -0.646 OA
HETATM   16  O           1     -25.670  -7.361 -15.479  0.00  0.00    -0.646 OA
ENDBRANCH  13  14
BRANCH  13  17
HETATM   17  C           1     -28.351  -5.310 -16.784  0.00  0.00     0.014 C 
HETATM   18  C           1     -28.167  -3.799 -16.840  0.00  0.00     0.012 C 
BRANCH  17  19
HETATM   19  C           1     -29.263  -5.754 -17.920  0.00  0.00     0.002 C 
HETATM   20  C           1     -30.499  -6.433 -17.344  0.00  0.00     0.005 C 
ENDBRANCH  17  19
ENDBRANCH  13  17
ENDBRANCH   4  13
TORSDOF 8
ENDMDL
MODEL 2
REMARK VINA RESULT:      -5.4      1.753      2.573
REMARK  8 active torsions:
REMARK  status: ('A' for Active; 'I' for Inactive)
REMARK    1  A    between atoms: N_3  and  C_6 
REMARK    2  A    between atoms: Se_4  and  C_5 
REMARK    3  A    between atoms: C_5  and  C_6 
REMARK    4  A    between atoms: C_6  and  C_7 
REMARK       I    between atoms: C_7  and  N_8 
REMARK    5  A    between atoms: N_8  and  C_12 
REMARK    6  A    between atoms: C_11  and  C_12 
REMARK    7  A    between atoms: C_12  and  C_14 
REMARK    8  A    between atoms: C_14  and  C_15 
ROOT
HETATM    1  H           1     -27.951  -6.754 -19.681  0.00  0.00     0.163 HD
HETATM    2  O           1     -26.109  -6.316 -17.180  0.00  0.00    -0.271 OA
HETATM    3  C           1     -26.397  -6.494 -18.339  0.00  0.00     0.249 C 
HETATM    4  N           1     -27.711  -6.603 -18.710  0.00  0.00    -0.344 N 
ENDROOT
BRANCH   3   5
HETATM    5  C           1     -25.309  -6.597 -19.379  0.00  0.00     0.274 C 
BRANCH   5   6
HETATM    6  N           1     -24.203  -7.469 -18.859  0.00  0.00    -0.067 N 
HETATM    7  H           1     -23.328  -7.282 -19.400  0.00  0.00     0.275 HD
HETATM    8  H           1     -24.039  -7.256 -17.849  0.00  0.00     0.275 HD
HETATM    9  H           1     -24.471  -8.473 -18.965  0.00  0.00     0.275 HD
ENDBRANCH   5   6
BRANCH   5  10
HETATM   10  C           1     -25.877  -7.208 -20.653  0.00  0.00     0.045 C 
BRANCH  10  11
HETATM   11 Se           1     -24.419  -7.865 -21.766  0.00  0.00     0.000 Se
HETATM   12  H           1     -25.159  -7.712 -23.029  0.00  0.00     0.000 HD
ENDBRANCH  10  11
ENDBRANCH   5  10
ENDBRANCH   3   5
BRANCH   4  13
HETATM   13  C           1     -28.756  -6.505 -17.710  0.00  0.00     0.189 C 
BRANCH  13  14
HETATM   14  C           1     -29.497  -7.817 -17.627  0.00  0.00     0.197 C 
HETATM   15  O           1     -29.482  -8.477 -16.565  0.00  0.00    -0.646 OA
HETATM   16  O           1     -30.125  -8.244 -18.620  0.00  0.00    -0.646 OA
ENDBRANCH  13  14
BRANCH  13  17
HETATM   17  C           1     -29.726  -5.397 -18.100  0.00  0.00     0.014 C 
HETATM   18  C           1     -30.881  -5.362 -17.106  0.00  0.00     0.012 C 
BRANCH  17  19
HETATM   19  C           1     -29.001  -4.058 -18.083  0.00  0.00     0.002 C 
HETATM   20  C           1     -28.452  -3.795 -16.687  0.00  0.00     0.005 C 
ENDBRANCH  17  19
ENDBRANCH  13  17
ENDBRANCH   4  13
TORSDOF 8
ENDMDL
MODEL 3
REMARK VINA RESULT:      -5.2      2.147      2.522
REMARK  8 active torsions:
REMARK  status: ('A' for Active; 'I' for Inactive)
REMARK    1  A    between atoms: N_3  and  C_6 
REMARK    2  A    between atoms: Se_4  and  C_5 
REMARK    3  A    between atoms: C_5  and  C_6 
REMARK    4  A    between atoms: C_6  and  C_7 
REMARK       I    between atoms: C_7  and  N_8 
REMARK    5  A    between atoms: N_8  and  C_12 
REMARK    6  A    between atoms: C_11  and  C_12 
REMARK    7  A    between atoms: C_12  and  C_14 
REMARK    8  A    between atoms: C_14  and  C_15 
ROOT
HETATM    1  H           1     -26.194  -6.516 -17.364  0.00  0.00     0.163 HD
HETATM    2  O           1     -27.115  -6.318 -20.356  0.00  0.00    -0.271 OA
HETATM    3  C           1     -26.367  -6.504 -19.426  0.00  0.00     0.249 C 
HETATM    4  N           1     -26.821  -6.361 -18.143  0.00  0.00    -0.344 N 
ENDROOT
BRANCH   3   5
HETATM    5  C           1     -24.931  -6.893 -19.680  0.00  0.00     0.274 C 
BRANCH   5   6
HETATM    6  N           1     -24.344  -7.478 -18.429  0.00  0.00    -0.067 N 
HETATM    7  H           1     -24.835  -8.371 -18.198  0.00  0.00     0.275 HD
HETATM    8  H           1     -23.327  -7.668 -18.579  0.00  0.00     0.275 HD
HETATM    9  H           1     -24.460  -6.802 -17.641  0.00  0.00     0.275 HD
ENDBRANCH   5   6
BRANCH   5  10
HETATM   10  C           1     -24.873  -7.926 -20.798  0.00  0.00     0.045 C 
BRANCH  10  11
HETATM   11 Se           1     -23.014  -8.284 -21.256  0.00  0.00     0.000 Se
HETATM   12  H           1     -23.332  -8.901 -22.554  0.00  0.00     0.000 HD
ENDBRANCH  10  11
ENDBRANCH   5  10
ENDBRANCH   3   5
BRANCH   4  13
HETATM   13  C           1     -28.201  -5.986 -17.899  0.00  0.00     0.189 C 
BRANCH  13  14
HETATM   14  C           1     -28.251  -4.577 -17.363  0.00  0.00     0.197 C 
HETATM   15  O           1     -29.204  -3.826 -17.667  0.00  0.00    -0.646 OA
HETATM   16  O           1     -27.341  -4.160 -16.615  0.00  0.00    -0.646 OA
ENDBRANCH  13  14
BRANCH  13  17
HETATM   17  C           1     -28.812  -6.940 -16.882  0.00  0.00     0.014 C 
HETATM   18  C           1     -28.770  -6.302 -15.499  0.00  0.00     0.012 C 
BRANCH  17  19
HETATM   19  C           1     -30.258  -7.231 -17.264  0.00  0.00     0.002 C 
HETATM   20  C           1     -30.310  -7.754 -18.693  0.00  0.00     0.005 C 
ENDBRANCH  17  19
ENDBRANCH  13  17
ENDBRANCH   4  13
TORSDOF 8
ENDMDL
MODEL 4
REMARK VINA RESULT:      -5.1     10.062     11.699
REMARK  8 active torsions:
REMARK  status: ('A' for Active; 'I' for Inactive)
REMARK    1  A    between atoms: N_3  and  C_6 
REMARK    2  A    between atoms: Se_4  and  C_5 
REMARK    3  A    between atoms: C_5  and  C_6 
REMARK    4  A    between atoms: C_6  and  C_7 
REMARK       I    between atoms: C_7  and  N_8 
REMARK    5  A    between atoms: N_8  and  C_12 
REMARK    6  A    between atoms: C_11  and  C_12 
REMARK    7  A    between atoms: C_12  and  C_14 
REMARK    8  A    between atoms: C_14  and  C_15 
ROOT
HETATM    1  H           1     -22.479  -5.743  -9.296  0.00  0.00     0.163 HD
HETATM    2  O           1     -21.647  -3.349  -7.447  0.00  0.00    -0.271 OA
HETATM    3  C           1     -21.775  -4.497  -7.801  0.00  0.00     0.249 C 
HETATM    4  N           1     -22.371  -4.781  -9.000  0.00  0.00    -0.344 N 
ENDROOT
BRANCH   3   5
HETATM    5  C           1     -21.279  -5.617  -6.920  0.00  0.00     0.274 C 
BRANCH   5   6
HETATM    6  N           1     -20.061  -6.237  -7.541  0.00  0.00    -0.067 N 
HETATM    7  H           1     -19.550  -5.518  -8.101  0.00  0.00     0.275 HD
HETATM    8  H           1     -19.434  -6.601  -6.787  0.00  0.00     0.275 HD
HETATM    9  H           1     -20.350  -7.024  -8.164  0.00  0.00     0.275 HD
ENDBRANCH   5   6
BRANCH   5  10
HETATM   10  C           1     -20.921  -5.065  -5.546  0.00  0.00     0.045 C 
BRANCH  10  11
HETATM   11 Se           1     -21.434  -6.351  -4.175  0.00  0.00     0.000 Se
HETATM   12  H           1     -21.205  -7.528  -5.029  0.00  0.00     0.000 HD
ENDBRANCH  10  11
ENDBRANCH   5  10
ENDBRANCH   3   5
BRANCH   4  13
HETATM   13  C           1     -22.849  -3.705  -9.845  0.00  0.00     0.189 C 
BRANCH  13  14
HETATM   14  C           1     -24.316  -3.906 -10.134  0.00  0.00     0.197 C 
HETATM   15  O           1     -24.935  -3.077 -10.837  0.00  0.00    -0.646 OA
HETATM   16  O           1     -24.913  -4.902  -9.672  0.00  0.00    -0.646 OA
ENDBRANCH  13  14
BRANCH  13  17
HETATM   17  C           1     -22.069  -3.703 -11.153  0.00  0.00     0.014 C 
HETATM   18  C           1     -21.250  -2.422 -11.253  0.00  0.00     0.012 C 
BRANCH  17  19
HETATM   19  C           1     -21.136  -4.907 -11.189  0.00  0.00     0.002 C 
HETATM   20  C           1     -19.730  -4.472 -10.796  0.00  0.00     0.005 C 
ENDBRANCH  17  19
ENDBRANCH  13  17
ENDBRANCH   4  13
TORSDOF 8
ENDMDL
MODEL 5
REMARK VINA RESULT:      -4.9     12.612     14.336
REMARK  8 active torsions:
REMARK  status: ('A' for Active; 'I' for Inactive)
REMARK    1  A    between atoms: N_3  and  C_6 
REMARK    2  A    between atoms: Se_4  and  C_5 
REMARK    3  A    between atoms: C_5  and  C_6 
REMARK    4  A    between atoms: C_6  and  C_7 
REMARK       I    between atoms: C_7  and  N_8 
REMARK    5  A    between atoms: N_8  and  C_12 
REMARK    6  A    between atoms: C_11  and  C_12 
REMARK    7  A    between atoms: C_12  and  C_14 
REMARK    8  A    between atoms: C_14  and  C_15 
ROOT
HETATM    1  H           1     -22.540  -6.511  -5.432  0.00  0.00     0.163 HD
HETATM    2  O           1     -19.835  -5.202  -6.331  0.00  0.00    -0.271 OA
HETATM    3  C           1     -21.028  -5.390  -6.290  0.00  0.00     0.249 C 
HETATM    4  N           1     -21.541  -6.353  -5.465  0.00  0.00    -0.344 N 
ENDROOT
BRANCH   3   5
HETATM    5  C           1     -21.951  -4.562  -7.150  0.00  0.00     0.274 C 
BRANCH   5   6
HETATM    6  N           1     -21.586  -3.112  -7.021  0.00  0.00    -0.067 N 
HETATM    7  H           1     -22.138  -2.681  -6.243  0.00  0.00     0.275 HD
HETATM    8  H           1     -20.566  -3.027  -6.812  0.00  0.00     0.275 HD
HETATM    9  H           1     -21.802  -2.618  -7.916  0.00  0.00     0.275 HD
ENDBRANCH   5   6
BRANCH   5  10
HETATM   10  C           1     -21.814  -4.991  -8.605  0.00  0.00     0.045 C 
BRANCH  10  11
HETATM   11 Se           1     -22.966  -3.884  -9.721  0.00  0.00     0.000 Se
HETATM   12  H           1     -24.208  -4.560  -9.309  0.00  0.00     0.000 HD
ENDBRANCH  10  11
ENDBRANCH   5  10
ENDBRANCH   3   5
BRANCH   4  13
HETATM   13  C           1     -20.654  -7.149  -4.640  0.00  0.00     0.189 C 
BRANCH  13  14
HETATM   14  C           1     -20.272  -8.408  -5.381  0.00  0.00     0.197 C 
HETATM   15  O           1     -21.154  -9.231  -5.710  0.00  0.00    -0.646 OA
HETATM   16  O           1     -19.075  -8.626  -5.665  0.00  0.00    -0.646 OA
ENDBRANCH  13  14
BRANCH  13  17
HETATM   17  C           1     -21.362  -7.518  -3.343  0.00  0.00     0.014 C 
HETATM   18  C           1     -20.390  -8.244  -2.422  0.00  0.00     0.012 C 
BRANCH  17  19
HETATM   19  C           1     -21.861  -6.251  -2.660  0.00  0.00     0.002 C 
HETATM   20  C           1     -22.301  -6.580  -1.239  0.00  0.00     0.005 C 
ENDBRANCH  17  19
ENDBRANCH  13  17
ENDBRANCH   4  13
TORSDOF 8
ENDMDL
MODEL 6
REMARK VINA RESULT:      -4.7     13.349     15.157
REMARK  8 active torsions:
REMARK  status: ('A' for Active; 'I' for Inactive)
REMARK    1  A    between atoms: N_3  and  C_6 
REMARK    2  A    between atoms: Se_4  and  C_5 
REMARK    3  A    between atoms: C_5  and  C_6 
REMARK    4  A    between atoms: C_6  and  C_7 
REMARK       I    between atoms: C_7  and  N_8 
REMARK    5  A    between atoms: N_8  and  C_12 
REMARK    6  A    between atoms: C_11  and  C_12 
REMARK    7  A    between atoms: C_12  and  C_14 
REMARK    8  A    between atoms: C_14  and  C_15 
ROOT
HETATM    1  H           1     -19.763  -6.857  -4.522  0.00  0.00     0.163 HD
HETATM    2  O           1     -22.597  -5.902  -5.470  0.00  0.00    -0.271 OA
HETATM    3  C           1     -21.391  -5.968  -5.440  0.00  0.00     0.249 C 
HETATM    4  N           1     -20.773  -6.802  -4.548  0.00  0.00    -0.344 N 
ENDROOT
BRANCH   3   5
HETATM    5  C           1     -20.566  -5.131  -6.386  0.00  0.00     0.274 C 
BRANCH   5   6
HETATM    6  N           1     -19.987  -6.011  -7.456  0.00  0.00    -0.067 N 
HETATM    7  H           1     -18.949  -5.885  -7.487  0.00  0.00     0.275 HD
HETATM    8  H           1     -20.210  -7.009  -7.243  0.00  0.00     0.275 HD
HETATM    9  H           1     -20.397  -5.751  -8.380  0.00  0.00     0.275 HD
ENDBRANCH   5   6
BRANCH   5  10
HETATM   10  C           1     -21.449  -4.069  -7.028  0.00  0.00     0.045 C 
BRANCH  10  11
HETATM   11 Se           1     -21.590  -4.409  -8.942  0.00  0.00     0.000 Se
HETATM   12  H           1     -22.152  -5.760  -8.778  0.00  0.00     0.000 HD
ENDBRANCH  10  11
ENDBRANCH   5  10
ENDBRANCH   3   5
BRANCH   4  13
HETATM   13  C           1     -21.565  -7.606  -3.637  0.00  0.00     0.189 C 
BRANCH  13  14
HETATM   14  C           1     -21.641  -6.919  -2.296  0.00  0.00     0.197 C 
HETATM   15  O           1     -21.041  -7.402  -1.311  0.00  0.00    -0.646 OA
HETATM   16  O           1     -22.304  -5.867  -2.170  0.00  0.00    -0.646 OA
ENDBRANCH  13  14
BRANCH  13  17
HETATM   17  C           1     -20.916  -8.973  -3.472  0.00  0.00     0.014 C 
HETATM   18  C           1     -21.793 -10.034  -4.126  0.00  0.00     0.012 C 
BRANCH  17  19
HETATM   19  C           1     -19.545  -8.967  -4.137  0.00  0.00     0.002 C 
HETATM   20  C           1     -18.482  -9.340  -3.112  0.00  0.00     0.005 C 
ENDBRANCH  17  19
ENDBRANCH  13  17
ENDBRANCH   4  13
TORSDOF 8
ENDMDL
MODEL 7
REMARK VINA RESULT:      -4.6     15.580     17.287
REMARK  8 active torsions:
REMARK  status: ('A' for Active; 'I' for Inactive)
REMARK    1  A    between atoms: N_3  and  C_6 
REMARK    2  A    between atoms: Se_4  and  C_5 
REMARK    3  A    between atoms: C_5  and  C_6 
REMARK    4  A    between atoms: C_6  and  C_7 
REMARK       I    between atoms: C_7  and  N_8 
REMARK    5  A    between atoms: N_8  and  C_12 
REMARK    6  A    between atoms: C_11  and  C_12 
REMARK    7  A    between atoms: C_12  and  C_14 
REMARK    8  A    between atoms: C_14  and  C_15 
ROOT
HETATM    1  H           1     -21.986  -9.802  -2.770  0.00  0.00     0.163 HD
HETATM    2  O           1     -20.825  -6.938  -2.228  0.00  0.00    -0.271 OA
HETATM    3  C           1     -21.337  -7.838  -2.850  0.00  0.00     0.249 C 
HETATM    4  N           1     -21.557  -9.048  -2.248  0.00  0.00    -0.344 N 
ENDROOT
BRANCH   3   5
HETATM    5  C           1     -21.735  -7.628  -4.290  0.00  0.00     0.274 C 
BRANCH   5   6
HETATM    6  N           1     -22.437  -6.308  -4.426  0.00  0.00    -0.067 N 
HETATM    7  H           1     -22.926  -6.079  -3.531  0.00  0.00     0.275 HD
HETATM    8  H           1     -21.737  -5.563  -4.641  0.00  0.00     0.275 HD
HETATM    9  H           1     -23.136  -6.364  -5.201  0.00  0.00     0.275 HD
ENDBRANCH   5   6
BRANCH   5  10
HETATM   10  C           1     -20.490  -7.632  -5.168  0.00  0.00     0.045 C 
BRANCH  10  11
HETATM   11 Se           1     -20.392  -5.961  -6.165  0.00  0.00     0.000 Se
HETATM   12  H           1     -19.065  -5.594  -5.646  0.00  0.00     0.000 HD
ENDBRANCH  10  11
ENDBRANCH   5  10
ENDBRANCH   3   5
BRANCH   4  13
HETATM   13  C           1     -21.174  -9.250  -0.865  0.00  0.00     0.189 C 
BRANCH  13  14
HETATM   14  C           1     -20.233 -10.426  -0.770  0.00  0.00     0.197 C 
HETATM   15  O           1     -19.567 -10.775  -1.769  0.00  0.00    -0.646 OA
HETATM   16  O           1     -20.120 -11.050   0.307  0.00  0.00    -0.646 OA
ENDBRANCH  13  14
BRANCH  13  17
HETATM   17  C           1     -22.417  -9.525  -0.030  0.00  0.00     0.014 C 
HETATM   18  C           1     -23.075  -8.205   0.351  0.00  0.00     0.012 C 
BRANCH  17  19
HETATM   19  C           1     -23.396 -10.366  -0.840  0.00  0.00     0.002 C 
HETATM   20  C           1     -23.824 -11.577  -0.021  0.00  0.00     0.005 C 
ENDBRANCH  17  19
ENDBRANCH  13  17
ENDBRANCH   4  13
TORSDOF 8
ENDMDL
MODEL 8
REMARK VINA RESULT:      -4.6      3.581      5.559
REMARK  8 active torsions:
REMARK  status: ('A' for Active; 'I' for Inactive)
REMARK    1  A    between atoms: N_3  and  C_6 
REMARK    2  A    between atoms: Se_4  and  C_5 
REMARK    3  A    between atoms: C_5  and  C_6 
REMARK    4  A    between atoms: C_6  and  C_7 
REMARK       I    between atoms: C_7  and  N_8 
REMARK    5  A    between atoms: N_8  and  C_12 
REMARK    6  A    between atoms: C_11  and  C_12 
REMARK    7  A    between atoms: C_12  and  C_14 
REMARK    8  A    between atoms: C_14  and  C_15 
ROOT
HETATM    1  H           1     -27.237  -7.562 -18.159  0.00  0.00     0.163 HD
HETATM    2  O           1     -28.721  -5.046 -19.303  0.00  0.00    -0.271 OA
HETATM    3  C           1     -28.343  -5.843 -18.477  0.00  0.00     0.249 C 
HETATM    4  N           1     -27.552  -6.895 -18.851  0.00  0.00    -0.344 N 
ENDROOT
BRANCH   3   5
HETATM    5  C           1     -28.745  -5.676 -17.032  0.00  0.00     0.274 C 
BRANCH   5   6
HETATM    6  N           1     -28.633  -4.230 -16.646  0.00  0.00    -0.067 N 
HETATM    7  H           1     -28.300  -4.158 -15.658  0.00  0.00     0.275 HD
HETATM    8  H           1     -27.951  -3.754 -17.279  0.00  0.00     0.275 HD
HETATM    9  H           1     -29.568  -3.773 -16.733  0.00  0.00     0.275 HD
ENDBRANCH   5   6
BRANCH   5  10
HETATM   10  C           1     -30.184  -6.140 -16.846  0.00  0.00     0.045 C 
BRANCH  10  11
HETATM   11 Se           1     -31.376  -4.599 -16.900  0.00  0.00     0.000 Se
HETATM   12  H           1     -32.009  -4.898 -15.605  0.00  0.00     0.000 HD
ENDBRANCH  10  11
ENDBRANCH   5  10
ENDBRANCH   3   5
BRANCH   4  13
HETATM   13  C           1     -27.167  -7.055 -20.240  0.00  0.00     0.189 C 
BRANCH  13  14
HETATM   14  C           1     -27.739  -8.345 -20.775  0.00  0.00     0.197 C 
HETATM   15  O           1     -28.822  -8.782 -20.327  0.00  0.00    -0.646 OA
HETATM   16  O           1     -27.131  -8.976 -21.666  0.00  0.00    -0.646 OA
ENDBRANCH  13  14
BRANCH  13  17
HETATM   17  C           1     -25.649  -7.090 -20.344  0.00  0.00     0.014 C 
HETATM   18  C           1     -25.184  -6.041 -21.346  0.00  0.00     0.012 C 
BRANCH  17  19
HETATM   19  C           1     -25.039  -6.795 -18.979  0.00  0.00     0.002 C 
HETATM   20  C           1     -23.564  -7.173 -18.989  0.00  0.00     0.005 C 
ENDBRANCH  17  19
ENDBRANCH  13  17
ENDBRANCH   4  13
TORSDOF 8
ENDMDL
MODEL 9
REMARK VINA RESULT:      -4.5     17.370     18.331
REMARK  8 active torsions:
REMARK  status: ('A' for Active; 'I' for Inactive)
REMARK    1  A    between atoms: N_3  and  C_6 
REMARK    2  A    between atoms: Se_4  and  C_5 
REMARK    3  A    between atoms: C_5  and  C_6 
REMARK    4  A    between atoms: C_6  and  C_7 
REMARK       I    between atoms: C_7  and  N_8 
REMARK    5  A    between atoms: N_8  and  C_12 
REMARK    6  A    between atoms: C_11  and  C_12 
REMARK    7  A    between atoms: C_12  and  C_14 
REMARK    8  A    between atoms: C_14  and  C_15 
ROOT
HETATM    1  H           1     -21.084  -9.736  -2.349  0.00  0.00     0.163 HD
HETATM    2  O           1     -19.745 -11.293   0.022  0.00  0.00    -0.271 OA
HETATM    3  C           1     -19.862 -10.829  -1.087  0.00  0.00     0.249 C 
HETATM    4  N           1     -20.987 -10.124  -1.420  0.00  0.00    -0.344 N 
ENDROOT
BRANCH   3   5
HETATM    5  C           1     -18.766 -11.027  -2.105  0.00  0.00     0.274 C 
BRANCH   5   6
HETATM    6  N           1     -19.275 -11.886  -3.226  0.00  0.00    -0.067 N 
HETATM    7  H           1     -19.957 -12.583  -2.848  0.00  0.00     0.275 HD
HETATM    8  H           1     -19.749 -11.285  -3.937  0.00  0.00     0.275 HD
HETATM    9  H           1     -18.474 -12.388  -3.671  0.00  0.00     0.275 HD
ENDBRANCH   5   6
BRANCH   5  10
HETATM   10  C           1     -18.335  -9.675  -2.659  0.00  0.00     0.045 C 
BRANCH  10  11
HETATM   11 Se           1     -16.417  -9.694  -3.001  0.00  0.00     0.000 Se
HETATM   12  H           1     -16.517  -8.941  -4.262  0.00  0.00     0.000 HD
ENDBRANCH  10  11
ENDBRANCH   5  10
ENDBRANCH   3   5
BRANCH   4  13
HETATM   13  C           1     -22.040  -9.935  -0.441  0.00  0.00     0.189 C 
BRANCH  13  14
HETATM   14  C           1     -23.276 -10.681  -0.882  0.00  0.00     0.197 C 
HETATM   15  O           1     -24.216 -10.863  -0.078  0.00  0.00    -0.646 OA
HETATM   16  O           1     -23.359 -11.116  -2.050  0.00  0.00    -0.646 OA
ENDBRANCH  13  14
BRANCH  13  17
HETATM   17  C           1     -22.358  -8.451  -0.319  0.00  0.00     0.014 C 
HETATM   18  C           1     -21.969  -7.961   1.070  0.00  0.00     0.012 C 
BRANCH  17  19
HETATM   19  C           1     -21.573  -7.676  -1.370  0.00  0.00     0.002 C 
HETATM   20  C           1     -22.261  -6.344  -1.637  0.00  0.00     0.005 C 
ENDBRANCH  17  19
ENDBRANCH  13  17
ENDBRANCH   4  13
TORSDOF 8
ENDMDL
