MODEL 1
REMARK VINA RESULT:      -6.9      0.000      0.000
REMARK  9 active torsions:
REMARK  status: ('A' for Active; 'I' for Inactive)
REMARK    1  A    between atoms: C_2  and  C_17 
REMARK    2  A    between atoms: C_2  and  C_9 
REMARK    3  A    between atoms: C_2  and  N_7 
REMARK    4  A    between atoms: C_9  and  C_12 
REMARK    5  A    between atoms: C_10  and  S_13 
REMARK    6  A    between atoms: C_10  and  C_14 
REMARK    7  A    between atoms: C_14  and  C_15 
REMARK    8  A    between atoms: C_15  and  C_21 
REMARK    9  A    between atoms: C_15  and  N_24 
REMARK       I    between atoms: C_17  and  N_24 
ROOT
HETATM    1  C           1     -32.905  -4.498 -16.644  0.00  0.00     0.278 C 
ENDROOT
BRANCH   1   2
HETATM    2  C           1     -33.779  -4.505 -15.413  0.00  0.00     0.249 C 
HETATM    3  O           1     -34.908  -4.929 -15.476  0.00  0.00    -0.271 OA
HETATM    4  N           1     -33.293  -4.028 -14.226  0.00  0.00    -0.345 N 
HETATM    5  H           1     -32.347  -3.672 -14.173  0.00  0.00     0.163 HD
BRANCH   4   6
HETATM    6  C           1     -34.133  -4.033 -13.043  0.00  0.00     0.186 C 
BRANCH   6   7
HETATM    7  C           1     -33.261  -4.177 -11.803  0.00  0.00     0.046 C 
BRANCH   7   8
HETATM    8  C           1     -33.323  -5.613 -11.301  0.00  0.00     0.076 C 
BRANCH   8   9
HETATM    9  S           1     -34.837  -5.850 -10.328  0.00  0.00    -0.173 SA
HETATM   10  C           1     -34.675  -7.648 -10.141  0.00  0.00     0.089 C 
ENDBRANCH   8   9
ENDBRANCH   7   8
ENDBRANCH   6   7
BRANCH   6  11
HETATM   11  C           1     -34.904  -2.739 -12.968  0.00  0.00     0.196 C 
HETATM   12  O           1     -35.644  -2.508 -11.987  0.00  0.00    -0.646 OA
HETATM   13  O           1     -34.803  -1.897 -13.887  0.00  0.00    -0.646 OA
ENDBRANCH   6  11
ENDBRANCH   4   6
ENDBRANCH   1   2
BRANCH   1  14
HETATM   14  C           1     -31.440  -4.481 -16.226  0.00  0.00     0.081 C 
BRANCH  14  15
HETATM   15  C           1     -30.655  -5.385 -17.124  0.00  0.00    -0.056 A 
HETATM   16  C           1     -29.489  -4.923 -17.733  0.00  0.00     0.007 A 
HETATM   17  C           1     -28.756  -5.765 -18.570  0.00  0.00     0.001 A 
HETATM   18  C           1     -29.192  -7.071 -18.797  0.00  0.00     0.000 A 
HETATM   19  C           1     -30.357  -7.534 -18.188  0.00  0.00     0.001 A 
HETATM   20  C           1     -31.089  -6.691 -17.351  0.00  0.00     0.007 A 
ENDBRANCH  14  15
ENDBRANCH   1  14
BRANCH   1  21
HETATM   21  N           1     -33.204  -3.277 -17.462  0.00  0.00    -0.066 N 
HETATM   22  H           1     -34.181  -3.334 -17.830  0.00  0.00     0.275 HD
HETATM   23  H           1     -33.107  -2.426 -16.864  0.00  0.00     0.275 HD
HETATM   24  H           1     -32.534  -3.221 -18.262  0.00  0.00     0.275 HD
ENDBRANCH   1  21
TORSDOF 9
ENDMDL
MODEL 2
REMARK VINA RESULT:      -6.7     14.137     15.026
REMARK  9 active torsions:
REMARK  status: ('A' for Active; 'I' for Inactive)
REMARK    1  A    between atoms: C_2  and  C_17 
REMARK    2  A    between atoms: C_2  and  C_9 
REMARK    3  A    between atoms: C_2  and  N_7 
REMARK    4  A    between atoms: C_9  and  C_12 
REMARK    5  A    between atoms: C_10  and  S_13 
REMARK    6  A    between atoms: C_10  and  C_14 
REMARK    7  A    between atoms: C_14  and  C_15 
REMARK    8  A    between atoms: C_15  and  C_21 
REMARK    9  A    between atoms: C_15  and  N_24 
REMARK       I    between atoms: C_17  and  N_24 
ROOT
HETATM    1  C           1     -22.251  -5.158  -6.821  0.00  0.00     0.278 C 
ENDROOT
BRANCH   1   2
HETATM    2  C           1     -21.360  -5.604  -5.687  0.00  0.00     0.249 C 
HETATM    3  O           1     -20.519  -4.857  -5.249  0.00  0.00    -0.271 OA
HETATM    4  N           1     -21.506  -6.857  -5.155  0.00  0.00    -0.345 N 
HETATM    5  H           1     -22.210  -7.483  -5.522  0.00  0.00     0.163 HD
BRANCH   4   6
HETATM    6  C           1     -20.650  -7.287  -4.066  0.00  0.00     0.186 C 
BRANCH   6   7
HETATM    7  C           1     -21.506  -7.845  -2.938  0.00  0.00     0.046 C 
BRANCH   7   8
HETATM    8  C           1     -21.936  -6.711  -2.016  0.00  0.00     0.076 C 
BRANCH   8   9
HETATM    9  S           1     -22.365  -7.385  -0.386  0.00  0.00    -0.173 SA
HETATM   10  C           1     -21.133  -8.718  -0.391  0.00  0.00     0.089 C 
ENDBRANCH   8   9
ENDBRANCH   7   8
ENDBRANCH   6   7
BRANCH   6  11
HETATM   11  C           1     -19.708  -8.358  -4.559  0.00  0.00     0.196 C 
HETATM   12  O           1     -19.016  -9.005  -3.743  0.00  0.00    -0.646 OA
HETATM   13  O           1     -19.620  -8.598  -5.783  0.00  0.00    -0.646 OA
ENDBRANCH   6  11
ENDBRANCH   4   6
ENDBRANCH   1   2
BRANCH   1  14
HETATM   14  C           1     -21.709  -3.863  -7.412  0.00  0.00     0.081 C 
BRANCH  14  15
HETATM   15  C           1     -21.646  -3.984  -8.903  0.00  0.00    -0.056 A 
HETATM   16  C           1     -20.415  -4.123  -9.541  0.00  0.00     0.007 A 
HETATM   17  C           1     -20.356  -4.237 -10.930  0.00  0.00     0.001 A 
HETATM   18  C           1     -21.531  -4.211 -11.681  0.00  0.00     0.000 A 
HETATM   19  C           1     -22.764  -4.072 -11.044  0.00  0.00     0.001 A 
HETATM   20  C           1     -22.822  -3.958  -9.654  0.00  0.00     0.007 A 
ENDBRANCH  14  15
ENDBRANCH   1  14
BRANCH   1  21
HETATM   21  N           1     -23.640  -4.927  -6.303  0.00  0.00    -0.066 N 
HETATM   22  H           1     -23.969  -3.979  -6.597  0.00  0.00     0.275 HD
HETATM   23  H           1     -24.281  -5.654  -6.693  0.00  0.00     0.275 HD
HETATM   24  H           1     -23.637  -4.986  -5.260  0.00  0.00     0.275 HD
ENDBRANCH   1  21
TORSDOF 9
ENDMDL
MODEL 3
REMARK VINA RESULT:      -6.5     14.505     15.449
REMARK  9 active torsions:
REMARK  status: ('A' for Active; 'I' for Inactive)
REMARK    1  A    between atoms: C_2  and  C_17 
REMARK    2  A    between atoms: C_2  and  C_9 
REMARK    3  A    between atoms: C_2  and  N_7 
REMARK    4  A    between atoms: C_9  and  C_12 
REMARK    5  A    between atoms: C_10  and  S_13 
REMARK    6  A    between atoms: C_10  and  C_14 
REMARK    7  A    between atoms: C_14  and  C_15 
REMARK    8  A    between atoms: C_15  and  C_21 
REMARK    9  A    between atoms: C_15  and  N_24 
REMARK       I    between atoms: C_17  and  N_24 
ROOT
HETATM    1  C           1     -20.999  -4.958  -6.325  0.00  0.00     0.278 C 
ENDROOT
BRANCH   1   2
HETATM    2  C           1     -21.702  -5.906  -5.384  0.00  0.00     0.249 C 
HETATM    3  O           1     -22.908  -5.964  -5.373  0.00  0.00    -0.271 OA
HETATM    4  N           1     -20.971  -6.699  -4.541  0.00  0.00    -0.345 N 
HETATM    5  H           1     -19.961  -6.650  -4.550  0.00  0.00     0.163 HD
BRANCH   4   6
HETATM    6  C           1     -21.645  -7.610  -3.636  0.00  0.00     0.186 C 
BRANCH   6   7
HETATM    7  C           1     -20.899  -8.937  -3.602  0.00  0.00     0.046 C 
BRANCH   7   8
HETATM    8  C           1     -19.615  -8.819  -4.412  0.00  0.00     0.076 C 
BRANCH   8   9
HETATM    9  S           1     -18.231  -9.501  -3.457  0.00  0.00    -0.173 SA
HETATM   10  C           1     -17.200  -9.939  -4.885  0.00  0.00     0.089 C 
ENDBRANCH   8   9
ENDBRANCH   7   8
ENDBRANCH   6   7
BRANCH   6  11
HETATM   11  C           1     -21.672  -7.014  -2.250  0.00  0.00     0.196 C 
HETATM   12  O           1     -22.314  -5.963  -2.034  0.00  0.00    -0.646 OA
HETATM   13  O           1     -21.051  -7.569  -1.318  0.00  0.00    -0.646 OA
ENDBRANCH   6  11
ENDBRANCH   4   6
ENDBRANCH   1   2
BRANCH   1  14
HETATM   14  C           1     -20.615  -5.699  -7.600  0.00  0.00     0.081 C 
BRANCH  14  15
HETATM   15  C           1     -21.031  -4.893  -8.790  0.00  0.00    -0.056 A 
HETATM   16  C           1     -20.122  -4.648  -9.819  0.00  0.00     0.007 A 
HETATM   17  C           1     -20.510  -3.897 -10.930  0.00  0.00     0.001 A 
HETATM   18  C           1     -21.807  -3.391 -11.009  0.00  0.00     0.000 A 
HETATM   19  C           1     -22.716  -3.635  -9.981  0.00  0.00     0.001 A 
HETATM   20  C           1     -22.328  -4.387  -8.871  0.00  0.00     0.007 A 
ENDBRANCH  14  15
ENDBRANCH   1  14
BRANCH   1  21
HETATM   21  N           1     -19.762  -4.425  -5.666  0.00  0.00    -0.066 N 
HETATM   22  H           1     -19.972  -3.502  -5.223  0.00  0.00     0.275 HD
HETATM   23  H           1     -19.442  -5.098  -4.933  0.00  0.00     0.275 HD
HETATM   24  H           1     -19.010  -4.304  -6.382  0.00  0.00     0.275 HD
ENDBRANCH   1  21
TORSDOF 9
ENDMDL
MODEL 4
REMARK VINA RESULT:      -6.4     14.487     15.408
REMARK  9 active torsions:
REMARK  status: ('A' for Active; 'I' for Inactive)
REMARK    1  A    between atoms: C_2  and  C_17 
REMARK    2  A    between atoms: C_2  and  C_9 
REMARK    3  A    between atoms: C_2  and  N_7 
REMARK    4  A    between atoms: C_9  and  C_12 
REMARK    5  A    between atoms: C_10  and  S_13 
REMARK    6  A    between atoms: C_10  and  C_14 
REMARK    7  A    between atoms: C_14  and  C_15 
REMARK    8  A    between atoms: C_15  and  C_21 
REMARK    9  A    between atoms: C_15  and  N_24 
REMARK       I    between atoms: C_17  and  N_24 
ROOT
HETATM    1  C           1     -21.650  -5.899  -6.558  0.00  0.00     0.278 C 
ENDROOT
BRANCH   1   2
HETATM    2  C           1     -20.585  -6.851  -6.069  0.00  0.00     0.249 C 
HETATM    3  O           1     -19.503  -6.874  -6.605  0.00  0.00    -0.271 OA
HETATM    4  N           1     -20.847  -7.690  -5.020  0.00  0.00    -0.345 N 
HETATM    5  H           1     -21.754  -7.671  -4.571  0.00  0.00     0.163 HD
BRANCH   4   6
HETATM    6  C           1     -19.825  -8.605  -4.550  0.00  0.00     0.186 C 
BRANCH   6   7
HETATM    7  C           1     -19.900  -8.714  -3.033  0.00  0.00     0.046 C 
BRANCH   7   8
HETATM    8  C           1     -21.358  -8.747  -2.597  0.00  0.00     0.076 C 
BRANCH   8   9
HETATM    9  S           1     -21.558  -7.778  -1.075  0.00  0.00    -0.173 SA
HETATM   10  C           1     -22.205  -6.283  -1.875  0.00  0.00     0.089 C 
ENDBRANCH   8   9
ENDBRANCH   7   8
ENDBRANCH   6   7
BRANCH   6  11
HETATM   11  C           1     -20.049  -9.965  -5.163  0.00  0.00     0.196 C 
HETATM   12  O           1     -20.986 -10.140  -5.973  0.00  0.00    -0.646 OA
HETATM   13  O           1     -19.298 -10.919  -4.861  0.00  0.00    -0.646 OA
ENDBRANCH   6  11
ENDBRANCH   4   6
ENDBRANCH   1   2
BRANCH   1  14
HETATM   14  C           1     -21.007  -4.572  -6.942  0.00  0.00     0.081 C 
BRANCH  14  15
HETATM   15  C           1     -21.191  -4.336  -8.409  0.00  0.00    -0.056 A 
HETATM   16  C           1     -20.153  -4.616  -9.297  0.00  0.00     0.007 A 
HETATM   17  C           1     -20.325  -4.396 -10.664  0.00  0.00     0.001 A 
HETATM   18  C           1     -21.536  -3.896 -11.142  0.00  0.00     0.000 A 
HETATM   19  C           1     -22.574  -3.616 -10.255  0.00  0.00     0.001 A 
HETATM   20  C           1     -22.402  -3.836  -8.888  0.00  0.00     0.007 A 
ENDBRANCH  14  15
ENDBRANCH   1  14
BRANCH   1  21
HETATM   21  N           1     -22.653  -5.669  -5.466  0.00  0.00    -0.066 N 
HETATM   22  H           1     -22.784  -6.551  -4.922  0.00  0.00     0.275 HD
HETATM   23  H           1     -22.307  -4.915  -4.830  0.00  0.00     0.275 HD
HETATM   24  H           1     -23.565  -5.380  -5.887  0.00  0.00     0.275 HD
ENDBRANCH   1  21
TORSDOF 9
ENDMDL
MODEL 5
REMARK VINA RESULT:      -6.4     14.228     15.172
REMARK  9 active torsions:
REMARK  status: ('A' for Active; 'I' for Inactive)
REMARK    1  A    between atoms: C_2  and  C_17 
REMARK    2  A    between atoms: C_2  and  C_9 
REMARK    3  A    between atoms: C_2  and  N_7 
REMARK    4  A    between atoms: C_9  and  C_12 
REMARK    5  A    between atoms: C_10  and  S_13 
REMARK    6  A    between atoms: C_10  and  C_14 
REMARK    7  A    between atoms: C_14  and  C_15 
REMARK    8  A    between atoms: C_15  and  C_21 
REMARK    9  A    between atoms: C_15  and  N_24 
REMARK       I    between atoms: C_17  and  N_24 
ROOT
HETATM    1  C           1     -21.059  -5.028  -6.238  0.00  0.00     0.278 C 
ENDROOT
BRANCH   1   2
HETATM    2  C           1     -21.728  -6.010  -5.307  0.00  0.00     0.249 C 
HETATM    3  O           1     -22.933  -6.060  -5.246  0.00  0.00    -0.271 OA
HETATM    4  N           1     -20.969  -6.843  -4.530  0.00  0.00    -0.345 N 
HETATM    5  H           1     -19.959  -6.801  -4.581  0.00  0.00     0.163 HD
BRANCH   4   6
HETATM    6  C           1     -21.611  -7.786  -3.635  0.00  0.00     0.186 C 
BRANCH   6   7
HETATM    7  C           1     -20.948  -9.150  -3.773  0.00  0.00     0.046 C 
BRANCH   7   8
HETATM    8  C           1     -21.991 -10.244  -3.589  0.00  0.00     0.076 C 
BRANCH   8   9
HETATM    9  S           1     -21.624 -11.184  -2.081  0.00  0.00    -0.173 SA
HETATM   10  C           1     -23.018 -10.550  -1.107  0.00  0.00     0.089 C 
ENDBRANCH   8   9
ENDBRANCH   7   8
ENDBRANCH   6   7
BRANCH   6  11
HETATM   11  C           1     -21.474  -7.303  -2.212  0.00  0.00     0.196 C 
HETATM   12  O           1     -20.537  -7.722  -1.498  0.00  0.00    -0.646 OA
HETATM   13  O           1     -22.296  -6.483  -1.748  0.00  0.00    -0.646 OA
ENDBRANCH   6  11
ENDBRANCH   4   6
ENDBRANCH   1   2
BRANCH   1  14
HETATM   14  C           1     -20.655  -5.741  -7.522  0.00  0.00     0.081 C 
BRANCH  14  15
HETATM   15  C           1     -21.063  -4.914  -8.701  0.00  0.00    -0.056 A 
HETATM   16  C           1     -20.149  -4.654  -9.721  0.00  0.00     0.007 A 
HETATM   17  C           1     -20.529  -3.883 -10.820  0.00  0.00     0.001 A 
HETATM   18  C           1     -21.826  -3.374 -10.899  0.00  0.00     0.000 A 
HETATM   19  C           1     -22.741  -3.635  -9.880  0.00  0.00     0.001 A 
HETATM   20  C           1     -22.359  -4.406  -8.780  0.00  0.00     0.007 A 
ENDBRANCH  14  15
ENDBRANCH   1  14
BRANCH   1  21
HETATM   21  N           1     -19.837  -4.465  -5.574  0.00  0.00    -0.066 N 
HETATM   22  H           1     -20.113  -3.973  -4.695  0.00  0.00     0.275 HD
HETATM   23  H           1     -19.176  -5.242  -5.346  0.00  0.00     0.275 HD
HETATM   24  H           1     -19.371  -3.788  -6.220  0.00  0.00     0.275 HD
ENDBRANCH   1  21
TORSDOF 9
ENDMDL
MODEL 6
REMARK VINA RESULT:      -5.9     15.600     16.768
REMARK  9 active torsions:
REMARK  status: ('A' for Active; 'I' for Inactive)
REMARK    1  A    between atoms: C_2  and  C_17 
REMARK    2  A    between atoms: C_2  and  C_9 
REMARK    3  A    between atoms: C_2  and  N_7 
REMARK    4  A    between atoms: C_9  and  C_12 
REMARK    5  A    between atoms: C_10  and  S_13 
REMARK    6  A    between atoms: C_10  and  C_14 
REMARK    7  A    between atoms: C_14  and  C_15 
REMARK    8  A    between atoms: C_15  and  C_21 
REMARK    9  A    between atoms: C_15  and  N_24 
REMARK       I    between atoms: C_17  and  N_24 
ROOT
HETATM    1  C           1     -20.826  -7.575  -4.777  0.00  0.00     0.278 C 
ENDROOT
BRANCH   1   2
HETATM    2  C           1     -21.383  -8.416  -3.654  0.00  0.00     0.249 C 
HETATM    3  O           1     -22.010  -9.418  -3.903  0.00  0.00    -0.271 OA
HETATM    4  N           1     -21.178  -8.044  -2.353  0.00  0.00    -0.345 N 
HETATM    5  H           1     -20.652  -7.204  -2.145  0.00  0.00     0.163 HD
BRANCH   4   6
HETATM    6  C           1     -21.713  -8.851  -1.274  0.00  0.00     0.186 C 
BRANCH   6   7
HETATM    7  C           1     -20.619  -9.761  -0.731  0.00  0.00     0.046 C 
BRANCH   7   8
HETATM    8  C           1     -20.995 -11.215  -0.983  0.00  0.00     0.076 C 
BRANCH   8   9
HETATM    9  S           1     -21.581 -11.966   0.562  0.00  0.00    -0.173 SA
HETATM   10  C           1     -23.351 -11.880   0.166  0.00  0.00     0.089 C 
ENDBRANCH   8   9
ENDBRANCH   7   8
ENDBRANCH   6   7
BRANCH   6  11
HETATM   11  C           1     -22.210  -7.950  -0.171  0.00  0.00     0.196 C 
HETATM   12  O           1     -22.947  -6.977  -0.443  0.00  0.00    -0.646 OA
HETATM   13  O           1     -21.886  -8.175   1.015  0.00  0.00    -0.646 OA
ENDBRANCH   6  11
ENDBRANCH   4   6
ENDBRANCH   1   2
BRANCH   1  14
HETATM   14  C           1     -21.435  -6.180  -4.716  0.00  0.00     0.081 C 
BRANCH  14  15
HETATM   15  C           1     -21.043  -5.411  -5.939  0.00  0.00    -0.056 A 
HETATM   16  C           1     -22.025  -4.891  -6.781  0.00  0.00     0.007 A 
HETATM   17  C           1     -21.660  -4.173  -7.920  0.00  0.00     0.001 A 
HETATM   18  C           1     -20.311  -3.976  -8.217  0.00  0.00     0.000 A 
HETATM   19  C           1     -19.328  -4.495  -7.375  0.00  0.00     0.001 A 
HETATM   20  C           1     -19.694  -5.213  -6.235  0.00  0.00     0.007 A 
ENDBRANCH  14  15
ENDBRANCH   1  14
BRANCH   1  21
HETATM   21  N           1     -21.167  -8.210  -6.093  0.00  0.00    -0.066 N 
HETATM   22  H           1     -21.885  -8.955  -5.945  0.00  0.00     0.275 HD
HETATM   23  H           1     -21.547  -7.484  -6.741  0.00  0.00     0.275 HD
HETATM   24  H           1     -20.306  -8.634  -6.508  0.00  0.00     0.275 HD
ENDBRANCH   1  21
TORSDOF 9
ENDMDL
MODEL 7
REMARK VINA RESULT:      -5.9     27.103     28.855
REMARK  9 active torsions:
REMARK  status: ('A' for Active; 'I' for Inactive)
REMARK    1  A    between atoms: C_2  and  C_17 
REMARK    2  A    between atoms: C_2  and  C_9 
REMARK    3  A    between atoms: C_2  and  N_7 
REMARK    4  A    between atoms: C_9  and  C_12 
REMARK    5  A    between atoms: C_10  and  S_13 
REMARK    6  A    between atoms: C_10  and  C_14 
REMARK    7  A    between atoms: C_14  and  C_15 
REMARK    8  A    between atoms: C_15  and  C_21 
REMARK    9  A    between atoms: C_15  and  N_24 
REMARK       I    between atoms: C_17  and  N_24 
ROOT
HETATM    1  C           1     -15.095   9.287   5.651  0.00  0.00     0.278 C 
ENDROOT
BRANCH   1   2
HETATM    2  C           1     -16.448   9.847   5.284  0.00  0.00     0.249 C 
HETATM    3  O           1     -16.603  11.041   5.193  0.00  0.00    -0.271 OA
HETATM    4  N           1     -17.499   9.001   5.055  0.00  0.00    -0.345 N 
HETATM    5  H           1     -17.368   8.000   5.132  0.00  0.00     0.163 HD
BRANCH   4   6
HETATM    6  C           1     -18.799   9.538   4.703  0.00  0.00     0.186 C 
BRANCH   6   7
HETATM    7  C           1     -19.219   9.000   3.342  0.00  0.00     0.046 C 
BRANCH   7   8
HETATM    8  C           1     -19.864  10.116   2.531  0.00  0.00     0.076 C 
BRANCH   8   9
HETATM    9  S           1     -18.715  11.515   2.403  0.00  0.00    -0.173 SA
HETATM   10  C           1     -17.388  10.605   1.561  0.00  0.00     0.089 C 
ENDBRANCH   8   9
ENDBRANCH   7   8
ENDBRANCH   6   7
BRANCH   6  11
HETATM   11  C           1     -19.812   9.122   5.741  0.00  0.00     0.196 C 
HETATM   12  O           1     -19.553   9.257   6.957  0.00  0.00    -0.646 OA
HETATM   13  O           1     -20.911   8.641   5.386  0.00  0.00    -0.646 OA
ENDBRANCH   6  11
ENDBRANCH   4   6
ENDBRANCH   1   2
BRANCH   1  14
HETATM   14  C           1     -14.803   8.061   4.795  0.00  0.00     0.081 C 
BRANCH  14  15
HETATM   15  C           1     -14.342   8.497   3.440  0.00  0.00    -0.056 A 
HETATM   16  C           1     -13.346   9.465   3.319  0.00  0.00     0.007 A 
HETATM   17  C           1     -12.916   9.871   2.055  0.00  0.00     0.001 A 
HETATM   18  C           1     -13.483   9.308   0.912  0.00  0.00     0.000 A 
HETATM   19  C           1     -14.479   8.340   1.032  0.00  0.00     0.001 A 
HETATM   20  C           1     -14.909   7.934   2.296  0.00  0.00     0.007 A 
ENDBRANCH  14  15
ENDBRANCH   1  14
BRANCH   1  21
HETATM   21  N           1     -15.092   8.897   7.099  0.00  0.00    -0.066 N 
HETATM   22  H           1     -14.256   9.310   7.570  0.00  0.00     0.275 HD
HETATM   23  H           1     -15.961   9.254   7.557  0.00  0.00     0.275 HD
HETATM   24  H           1     -15.058   7.856   7.179  0.00  0.00     0.275 HD
ENDBRANCH   1  21
TORSDOF 9
ENDMDL
MODEL 8
REMARK VINA RESULT:      -5.9     15.840     16.932
REMARK  9 active torsions:
REMARK  status: ('A' for Active; 'I' for Inactive)
REMARK    1  A    between atoms: C_2  and  C_17 
REMARK    2  A    between atoms: C_2  and  C_9 
REMARK    3  A    between atoms: C_2  and  N_7 
REMARK    4  A    between atoms: C_9  and  C_12 
REMARK    5  A    between atoms: C_10  and  S_13 
REMARK    6  A    between atoms: C_10  and  C_14 
REMARK    7  A    between atoms: C_14  and  C_15 
REMARK    8  A    between atoms: C_15  and  C_21 
REMARK    9  A    between atoms: C_15  and  N_24 
REMARK       I    between atoms: C_17  and  N_24 
ROOT
HETATM    1  C           1     -21.546  -6.288  -4.911  0.00  0.00     0.278 C 
ENDROOT
BRANCH   1   2
HETATM    2  C           1     -20.941  -7.668  -5.003  0.00  0.00     0.249 C 
HETATM    3  O           1     -21.025  -8.297  -6.030  0.00  0.00    -0.271 OA
HETATM    4  N           1     -20.299  -8.208  -3.921  0.00  0.00    -0.345 N 
HETATM    5  H           1     -20.229  -7.681  -3.060  0.00  0.00     0.163 HD
BRANCH   4   6
HETATM    6  C           1     -19.719  -9.534  -4.009  0.00  0.00     0.186 C 
BRANCH   6   7
HETATM    7  C           1     -18.200  -9.425  -4.007  0.00  0.00     0.046 C 
BRANCH   7   8
HETATM    8  C           1     -17.615 -10.456  -4.963  0.00  0.00     0.076 C 
BRANCH   8   9
HETATM    9  S           1     -15.886 -10.037  -5.323  0.00  0.00    -0.173 SA
HETATM   10  C           1     -15.529 -11.508  -6.324  0.00  0.00     0.089 C 
ENDBRANCH   8   9
ENDBRANCH   7   8
ENDBRANCH   6   7
BRANCH   6  11
HETATM   11  C           1     -20.164 -10.357  -2.825  0.00  0.00     0.196 C 
HETATM   12  O           1     -21.317 -10.840  -2.798  0.00  0.00    -0.646 OA
HETATM   13  O           1     -19.381 -10.555  -1.871  0.00  0.00    -0.646 OA
ENDBRANCH   6  11
ENDBRANCH   4   6
ENDBRANCH   1   2
BRANCH   1  14
HETATM   14  C           1     -20.530  -5.257  -5.386  0.00  0.00     0.081 C 
BRANCH  14  15
HETATM   15  C           1     -20.835  -4.871  -6.800  0.00  0.00    -0.056 A 
HETATM   16  C           1     -22.134  -4.517  -7.162  0.00  0.00     0.007 A 
HETATM   17  C           1     -22.418  -4.158  -8.480  0.00  0.00     0.001 A 
HETATM   18  C           1     -21.402  -4.152  -9.435  0.00  0.00     0.000 A 
HETATM   19  C           1     -20.102  -4.505  -9.073  0.00  0.00     0.001 A 
HETATM   20  C           1     -19.819  -4.865  -7.755  0.00  0.00     0.007 A 
ENDBRANCH  14  15
ENDBRANCH   1  14
BRANCH   1  21
HETATM   21  N           1     -21.919  -6.001  -3.486  0.00  0.00    -0.066 N 
HETATM   22  H           1     -22.222  -5.004  -3.399  0.00  0.00     0.275 HD
HETATM   23  H           1     -22.704  -6.629  -3.200  0.00  0.00     0.275 HD
HETATM   24  H           1     -21.093  -6.169  -2.869  0.00  0.00     0.275 HD
ENDBRANCH   1  21
TORSDOF 9
ENDMDL
MODEL 9
REMARK VINA RESULT:      -5.8      3.420      6.717
REMARK  9 active torsions:
REMARK  status: ('A' for Active; 'I' for Inactive)
REMARK    1  A    between atoms: C_2  and  C_17 
REMARK    2  A    between atoms: C_2  and  C_9 
REMARK    3  A    between atoms: C_2  and  N_7 
REMARK    4  A    between atoms: C_9  and  C_12 
REMARK    5  A    between atoms: C_10  and  S_13 
REMARK    6  A    between atoms: C_10  and  C_14 
REMARK    7  A    between atoms: C_14  and  C_15 
REMARK    8  A    between atoms: C_15  and  C_21 
REMARK    9  A    between atoms: C_15  and  N_24 
REMARK       I    between atoms: C_17  and  N_24 
ROOT
HETATM    1  C           1     -33.904  -3.204 -15.840  0.00  0.00     0.278 C 
ENDROOT
BRANCH   1   2
HETATM    2  C           1     -32.729  -3.743 -16.620  0.00  0.00     0.249 C 
HETATM    3  O           1     -32.426  -3.245 -17.678  0.00  0.00    -0.271 OA
HETATM    4  N           1     -32.007  -4.797 -16.129  0.00  0.00    -0.345 N 
HETATM    5  H           1     -32.261  -5.214 -15.242  0.00  0.00     0.163 HD
BRANCH   4   6
HETATM    6  C           1     -30.879  -5.316 -16.877  0.00  0.00     0.186 C 
BRANCH   6   7
HETATM    7  C           1     -29.682  -5.470 -15.949  0.00  0.00     0.046 C 
BRANCH   7   8
HETATM    8  C           1     -28.493  -4.709 -16.521  0.00  0.00     0.076 C 
BRANCH   8   9
HETATM    9  S           1     -27.149  -5.872 -16.890  0.00  0.00    -0.173 SA
HETATM   10  C           1     -27.614  -7.113 -15.649  0.00  0.00     0.089 C 
ENDBRANCH   8   9
ENDBRANCH   7   8
ENDBRANCH   6   7
BRANCH   6  11
HETATM   11  C           1     -31.238  -6.660 -17.461  0.00  0.00     0.196 C 
HETATM   12  O           1     -30.339  -7.416 -17.889  0.00  0.00    -0.646 OA
HETATM   13  O           1     -32.435  -7.018 -17.518  0.00  0.00    -0.646 OA
ENDBRANCH   6  11
ENDBRANCH   4   6
ENDBRANCH   1   2
BRANCH   1  14
HETATM   14  C           1     -34.310  -4.212 -14.772  0.00  0.00     0.081 C 
BRANCH  14  15
HETATM   15  C           1     -34.074  -3.623 -13.416  0.00  0.00    -0.056 A 
HETATM   16  C           1     -33.193  -4.240 -12.531  0.00  0.00     0.007 A 
HETATM   17  C           1     -32.973  -3.691 -11.267  0.00  0.00     0.001 A 
HETATM   18  C           1     -33.636  -2.523 -10.890  0.00  0.00     0.000 A 
HETATM   19  C           1     -34.517  -1.904 -11.776  0.00  0.00     0.001 A 
HETATM   20  C           1     -34.736  -2.454 -13.040  0.00  0.00     0.007 A 
ENDBRANCH  14  15
ENDBRANCH   1  14
BRANCH   1  21
HETATM   21  N           1     -35.057  -2.972 -16.771  0.00  0.00    -0.066 N 
HETATM   22  H           1     -34.914  -2.075 -17.287  0.00  0.00     0.275 HD
HETATM   23  H           1     -35.115  -3.761 -17.455  0.00  0.00     0.275 HD
HETATM   24  H           1     -35.944  -2.920 -16.221  0.00  0.00     0.275 HD
ENDBRANCH   1  21
TORSDOF 9
ENDMDL
