MODEL 1
REMARK VINA RESULT:      -6.3      0.000      0.000
REMARK  8 active torsions:
REMARK  status: ('A' for Active; 'I' for Inactive)
REMARK    1  A    between atoms: C_2  and  C_3 
REMARK    2  A    between atoms: C_2  and  C_15 
REMARK    3  A    between atoms: C_6  and  C_7 
REMARK    4  A    between atoms: C_6  and  C_14 
REMARK    5  A    between atoms: C_7  and  C_8 
REMARK    6  A    between atoms: C_7  and  N_11 
REMARK       I    between atoms: C_8  and  N_20 
REMARK    7  A    between atoms: C_15  and  C_16 
REMARK    8  A    between atoms: C_15  and  N_20 
ROOT
HETATM    1  O           1     -33.520  -1.739 -10.638  0.00  0.00    -0.271 OA
HETATM    2  C           1     -34.119  -2.373 -11.475  0.00  0.00     0.249 C 
HETATM    3  N           1     -35.100  -1.770 -12.216  0.00  0.00    -0.344 N 
HETATM    4  H           1     -35.601  -2.300 -12.918  0.00  0.00     0.163 HD
ENDROOT
BRANCH   2   5
HETATM    5  C           1     -33.786  -3.826 -11.703  0.00  0.00     0.275 C 
BRANCH   5   6
HETATM    6  C           1     -34.147  -4.630 -10.460  0.00  0.00     0.046 C 
BRANCH   6   7
HETATM    7  C           1     -34.238  -6.107 -10.820  0.00  0.00    -0.020 C 
HETATM    8  C           1     -35.097  -6.274 -12.066  0.00  0.00     0.009 C 
HETATM    9  C           1     -34.869  -6.873  -9.664  0.00  0.00     0.009 C 
ENDBRANCH   6   7
ENDBRANCH   5   6
BRANCH   5  10
HETATM   10  N           1     -32.319  -3.965 -11.979  0.00  0.00    -0.066 N 
HETATM   11  H           1     -32.176  -4.205 -12.987  0.00  0.00     0.275 HD
HETATM   12  H           1     -31.837  -3.062 -11.765  0.00  0.00     0.275 HD
HETATM   13  H           1     -31.922  -4.723 -11.381  0.00  0.00     0.275 HD
ENDBRANCH   5  10
ENDBRANCH   2   5
BRANCH   3  14
HETATM   14  C           1     -35.419  -0.373 -11.999  0.00  0.00     0.189 C 
BRANCH  14  15
HETATM   15  C           1     -35.742   0.288 -13.332  0.00  0.00     0.014 C 
HETATM   16  C           1     -34.595   1.206 -13.733  0.00  0.00     0.012 C 
BRANCH  15  17
HETATM   17  C           1     -35.930  -0.785 -14.397  0.00  0.00     0.002 C 
HETATM   18  C           1     -35.747  -0.170 -15.777  0.00  0.00     0.005 C 
ENDBRANCH  15  17
ENDBRANCH  14  15
BRANCH  14  19
HETATM   19  C           1     -36.615  -0.269 -11.083  0.00  0.00     0.197 C 
HETATM   20  O           1     -36.616   0.561 -10.148  0.00  0.00    -0.646 OA
HETATM   21  O           1     -37.605  -1.011 -11.261  0.00  0.00    -0.646 OA
ENDBRANCH  14  19
ENDBRANCH   3  14
TORSDOF 8
ENDMDL
MODEL 2
REMARK VINA RESULT:      -6.1     10.125     11.463
REMARK  8 active torsions:
REMARK  status: ('A' for Active; 'I' for Inactive)
REMARK    1  A    between atoms: C_2  and  C_3 
REMARK    2  A    between atoms: C_2  and  C_15 
REMARK    3  A    between atoms: C_6  and  C_7 
REMARK    4  A    between atoms: C_6  and  C_14 
REMARK    5  A    between atoms: C_7  and  C_8 
REMARK    6  A    between atoms: C_7  and  N_11 
REMARK       I    between atoms: C_8  and  N_20 
REMARK    7  A    between atoms: C_15  and  C_16 
REMARK    8  A    between atoms: C_15  and  N_20 
ROOT
HETATM    1  O           1     -25.575  -6.020 -16.587  0.00  0.00    -0.271 OA
HETATM    2  C           1     -25.958  -6.281 -17.703  0.00  0.00     0.249 C 
HETATM    3  N           1     -27.299  -6.376 -17.961  0.00  0.00    -0.344 N 
HETATM    4  H           1     -27.621  -6.594 -18.895  0.00  0.00     0.163 HD
ENDROOT
BRANCH   2   5
HETATM    5  C           1     -24.959  -6.503 -18.812  0.00  0.00     0.275 C 
BRANCH   5   6
HETATM    6  C           1     -25.688  -6.557 -20.149  0.00  0.00     0.046 C 
BRANCH   6   7
HETATM    7  C           1     -25.437  -7.905 -20.810  0.00  0.00    -0.020 C 
HETATM    8  C           1     -24.493  -7.724 -21.991  0.00  0.00     0.009 C 
HETATM    9  C           1     -26.758  -8.484 -21.301  0.00  0.00     0.009 C 
ENDBRANCH   6   7
ENDBRANCH   5   6
BRANCH   5  10
HETATM   10  N           1     -24.239  -7.799 -18.583  0.00  0.00    -0.066 N 
HETATM   11  H           1     -23.403  -7.630 -17.978  0.00  0.00     0.275 HD
HETATM   12  H           1     -24.880  -8.474 -18.108  0.00  0.00     0.275 HD
HETATM   13  H           1     -23.933  -8.193 -19.499  0.00  0.00     0.275 HD
ENDBRANCH   5  10
ENDBRANCH   2   5
BRANCH   3  14
HETATM   14  C           1     -28.259  -6.162 -16.896  0.00  0.00     0.189 C 
BRANCH  14  15
HETATM   15  C           1     -29.558  -5.626 -17.483  0.00  0.00     0.014 C 
HETATM   16  C           1     -30.517  -5.272 -16.355  0.00  0.00     0.012 C 
BRANCH  15  17
HETATM   17  C           1     -29.264  -4.379 -18.308  0.00  0.00     0.002 C 
HETATM   18  C           1     -29.122  -3.178 -17.383  0.00  0.00     0.005 C 
ENDBRANCH  15  17
ENDBRANCH  14  15
BRANCH  14  19
HETATM   19  C           1     -28.528  -7.469 -16.192  0.00  0.00     0.197 C 
HETATM   20  O           1     -28.057  -7.674 -15.052  0.00  0.00    -0.646 OA
HETATM   21  O           1     -29.222  -8.348 -16.748  0.00  0.00    -0.646 OA
ENDBRANCH  14  19
ENDBRANCH   3  14
TORSDOF 8
ENDMDL
MODEL 3
REMARK VINA RESULT:      -6.0      2.128      2.968
REMARK  8 active torsions:
REMARK  status: ('A' for Active; 'I' for Inactive)
REMARK    1  A    between atoms: C_2  and  C_3 
REMARK    2  A    between atoms: C_2  and  C_15 
REMARK    3  A    between atoms: C_6  and  C_7 
REMARK    4  A    between atoms: C_6  and  C_14 
REMARK    5  A    between atoms: C_7  and  C_8 
REMARK    6  A    between atoms: C_7  and  N_11 
REMARK       I    between atoms: C_8  and  N_20 
REMARK    7  A    between atoms: C_15  and  C_16 
REMARK    8  A    between atoms: C_15  and  N_20 
ROOT
HETATM    1  O           1     -34.389  -2.870 -13.573  0.00  0.00    -0.271 OA
HETATM    2  C           1     -34.477  -2.367 -12.477  0.00  0.00     0.249 C 
HETATM    3  N           1     -35.148  -1.184 -12.320  0.00  0.00    -0.344 N 
HETATM    4  H           1     -35.223  -0.763 -11.403  0.00  0.00     0.163 HD
ENDROOT
BRANCH   2   5
HETATM    5  C           1     -33.847  -3.041 -11.283  0.00  0.00     0.275 C 
BRANCH   5   6
HETATM    6  C           1     -34.788  -4.114 -10.751  0.00  0.00     0.046 C 
BRANCH   6   7
HETATM    7  C           1     -34.295  -5.486 -11.190  0.00  0.00    -0.020 C 
HETATM    8  C           1     -34.556  -6.498 -10.082  0.00  0.00     0.009 C 
HETATM    9  C           1     -32.800  -5.421 -11.474  0.00  0.00     0.009 C 
ENDBRANCH   6   7
ENDBRANCH   5   6
BRANCH   5  10
HETATM   10  N           1     -33.593  -2.023 -10.212  0.00  0.00    -0.066 N 
HETATM   11  H           1     -33.939  -2.388  -9.296  0.00  0.00     0.275 HD
HETATM   12  H           1     -32.566  -1.836 -10.146  0.00  0.00     0.275 HD
HETATM   13  H           1     -34.095  -1.138 -10.447  0.00  0.00     0.275 HD
ENDBRANCH   5  10
ENDBRANCH   2   5
BRANCH   3  14
HETATM   14  C           1     -35.754  -0.536 -13.467  0.00  0.00     0.189 C 
BRANCH  14  15
HETATM   15  C           1     -37.054   0.133 -13.044  0.00  0.00     0.014 C 
HETATM   16  C           1     -38.075   0.014 -14.167  0.00  0.00     0.012 C 
BRANCH  15  17
HETATM   17  C           1     -37.593  -0.552 -11.794  0.00  0.00     0.002 C 
HETATM   18  C           1     -37.451   0.383 -10.600  0.00  0.00     0.005 C 
ENDBRANCH  15  17
ENDBRANCH  14  15
BRANCH  14  19
HETATM   19  C           1     -34.807   0.504 -14.013  0.00  0.00     0.197 C 
HETATM   20  O           1     -34.390   1.421 -13.272  0.00  0.00    -0.646 OA
HETATM   21  O           1     -34.439   0.450 -15.206  0.00  0.00    -0.646 OA
ENDBRANCH  14  19
ENDBRANCH   3  14
TORSDOF 8
ENDMDL
MODEL 4
REMARK VINA RESULT:      -6.0     11.139     12.560
REMARK  8 active torsions:
REMARK  status: ('A' for Active; 'I' for Inactive)
REMARK    1  A    between atoms: C_2  and  C_3 
REMARK    2  A    between atoms: C_2  and  C_15 
REMARK    3  A    between atoms: C_6  and  C_7 
REMARK    4  A    between atoms: C_6  and  C_14 
REMARK    5  A    between atoms: C_7  and  C_8 
REMARK    6  A    between atoms: C_7  and  N_11 
REMARK       I    between atoms: C_8  and  N_20 
REMARK    7  A    between atoms: C_15  and  C_16 
REMARK    8  A    between atoms: C_15  and  N_20 
ROOT
HETATM    1  O           1     -24.570  -6.416 -18.018  0.00  0.00    -0.271 OA
HETATM    2  C           1     -25.545  -6.801 -18.622  0.00  0.00     0.249 C 
HETATM    3  N           1     -26.793  -6.623 -18.088  0.00  0.00    -0.344 N 
HETATM    4  H           1     -27.610  -6.944 -18.593  0.00  0.00     0.163 HD
ENDROOT
BRANCH   2   5
HETATM    5  C           1     -25.386  -7.475 -19.962  0.00  0.00     0.275 C 
BRANCH   5   6
HETATM    6  C           1     -24.002  -7.174 -20.521  0.00  0.00     0.046 C 
BRANCH   6   7
HETATM    7  C           1     -23.573  -8.301 -21.451  0.00  0.00    -0.020 C 
HETATM    8  C           1     -22.135  -8.696 -21.141  0.00  0.00     0.009 C 
HETATM    9  C           1     -23.668  -7.831 -22.897  0.00  0.00     0.009 C 
ENDBRANCH   6   7
ENDBRANCH   5   6
BRANCH   5  10
HETATM   10  N           1     -26.430  -6.960 -20.907  0.00  0.00    -0.066 N 
HETATM   11  H           1     -26.076  -6.097 -21.380  0.00  0.00     0.275 HD
HETATM   12  H           1     -26.640  -7.689 -21.626  0.00  0.00     0.275 HD
HETATM   13  H           1     -27.300  -6.733 -20.374  0.00  0.00     0.275 HD
ENDBRANCH   5  10
ENDBRANCH   2   5
BRANCH   3  14
HETATM   14  C           1     -26.946  -5.974 -16.801  0.00  0.00     0.189 C 
BRANCH  14  15
HETATM   15  C           1     -28.316  -5.313 -16.725  0.00  0.00     0.014 C 
HETATM   16  C           1     -28.154  -3.801 -16.785  0.00  0.00     0.012 C 
BRANCH  15  17
HETATM   17  C           1     -29.169  -5.780 -17.898  0.00  0.00     0.002 C 
HETATM   18  C           1     -30.388  -6.528 -17.375  0.00  0.00     0.005 C 
ENDBRANCH  15  17
ENDBRANCH  14  15
BRANCH  14  19
HETATM   19  C           1     -26.822  -7.002 -15.703  0.00  0.00     0.197 C 
HETATM   20  O           1     -25.692  -7.386 -15.331  0.00  0.00    -0.646 OA
HETATM   21  O           1     -27.849  -7.468 -15.164  0.00  0.00    -0.646 OA
ENDBRANCH  14  19
ENDBRANCH   3  14
TORSDOF 8
ENDMDL
MODEL 5
REMARK VINA RESULT:      -5.9     13.969     16.566
REMARK  8 active torsions:
REMARK  status: ('A' for Active; 'I' for Inactive)
REMARK    1  A    between atoms: C_2  and  C_3 
REMARK    2  A    between atoms: C_2  and  C_15 
REMARK    3  A    between atoms: C_6  and  C_7 
REMARK    4  A    between atoms: C_6  and  C_14 
REMARK    5  A    between atoms: C_7  and  C_8 
REMARK    6  A    between atoms: C_7  and  N_11 
REMARK       I    between atoms: C_8  and  N_20 
REMARK    7  A    between atoms: C_15  and  C_16 
REMARK    8  A    between atoms: C_15  and  N_20 
ROOT
HETATM    1  O           1     -19.896  -5.025  -6.116  0.00  0.00    -0.271 OA
HETATM    2  C           1     -21.048  -5.365  -6.253  0.00  0.00     0.249 C 
HETATM    3  N           1     -21.524  -6.455  -5.575  0.00  0.00    -0.344 N 
HETATM    4  H           1     -22.489  -6.740  -5.690  0.00  0.00     0.163 HD
ENDROOT
BRANCH   2   5
HETATM    5  C           1     -21.959  -4.589  -7.172  0.00  0.00     0.275 C 
BRANCH   5   6
HETATM    6  C           1     -21.767  -5.072  -8.604  0.00  0.00     0.046 C 
BRANCH   6   7
HETATM    7  C           1     -22.397  -4.072  -9.565  0.00  0.00    -0.020 C 
HETATM    8  C           1     -23.651  -4.679 -10.179  0.00  0.00     0.009 C 
HETATM    9  C           1     -21.404  -3.736 -10.670  0.00  0.00     0.009 C 
ENDBRANCH   6   7
ENDBRANCH   5   6
BRANCH   5  10
HETATM   10  N           1     -21.627  -3.129  -7.087  0.00  0.00    -0.066 N 
HETATM   11  H           1     -22.158  -2.697  -6.297  0.00  0.00     0.275 HD
HETATM   12  H           1     -20.602  -3.014  -6.922  0.00  0.00     0.275 HD
HETATM   13  H           1     -21.892  -2.660  -7.982  0.00  0.00     0.275 HD
ENDBRANCH   5  10
ENDBRANCH   2   5
BRANCH   3  14
HETATM   14  C           1     -20.649  -7.200  -4.692  0.00  0.00     0.189 C 
BRANCH  14  15
HETATM   15  C           1     -21.392  -7.539  -3.408  0.00  0.00     0.014 C 
HETATM   16  C           1     -20.449  -8.253  -2.449  0.00  0.00     0.012 C 
BRANCH  15  17
HETATM   17  C           1     -21.898  -6.256  -2.761  0.00  0.00     0.002 C 
HETATM   18  C           1     -22.271  -6.529  -1.310  0.00  0.00     0.005 C 
ENDBRANCH  15  17
ENDBRANCH  14  15
BRANCH  14  19
HETATM   19  C           1     -20.215  -8.475  -5.374  0.00  0.00     0.197 C 
HETATM   20  O           1     -21.063  -9.343  -5.675  0.00  0.00    -0.646 OA
HETATM   21  O           1     -19.008  -8.662  -5.640  0.00  0.00    -0.646 OA
ENDBRANCH  14  19
ENDBRANCH   3  14
TORSDOF 8
ENDMDL
MODEL 6
REMARK VINA RESULT:      -5.7     10.022     11.452
REMARK  8 active torsions:
REMARK  status: ('A' for Active; 'I' for Inactive)
REMARK    1  A    between atoms: C_2  and  C_3 
REMARK    2  A    between atoms: C_2  and  C_15 
REMARK    3  A    between atoms: C_6  and  C_7 
REMARK    4  A    between atoms: C_6  and  C_14 
REMARK    5  A    between atoms: C_7  and  C_8 
REMARK    6  A    between atoms: C_7  and  N_11 
REMARK       I    between atoms: C_8  and  N_20 
REMARK    7  A    between atoms: C_15  and  C_16 
REMARK    8  A    between atoms: C_15  and  N_20 
ROOT
HETATM    1  O           1     -25.289  -5.547 -15.898  0.00  0.00    -0.271 OA
HETATM    2  C           1     -25.539  -6.250 -16.849  0.00  0.00     0.249 C 
HETATM    3  N           1     -26.838  -6.432 -17.241  0.00  0.00    -0.344 N 
HETATM    4  H           1     -27.049  -7.020 -18.037  0.00  0.00     0.163 HD
ENDROOT
BRANCH   2   5
HETATM    5  C           1     -24.422  -6.927 -17.603  0.00  0.00     0.275 C 
BRANCH   5   6
HETATM    6  C           1     -24.989  -7.626 -18.832  0.00  0.00     0.046 C 
BRANCH   6   7
HETATM    7  C           1     -24.414  -6.988 -20.089  0.00  0.00    -0.020 C 
HETATM    8  C           1     -25.508  -6.211 -20.810  0.00  0.00     0.009 C 
HETATM    9  C           1     -23.875  -8.075 -21.010  0.00  0.00     0.009 C 
ENDBRANCH   6   7
ENDBRANCH   5   6
BRANCH   5  10
HETATM   10  N           1     -23.761  -7.938 -16.714  0.00  0.00    -0.066 N 
HETATM   11  H           1     -23.736  -7.576 -15.733  0.00  0.00     0.275 HD
HETATM   12  H           1     -24.303  -8.832 -16.740  0.00  0.00     0.275 HD
HETATM   13  H           1     -22.786  -8.110 -17.046  0.00  0.00     0.275 HD
ENDBRANCH   5  10
ENDBRANCH   2   5
BRANCH   3  14
HETATM   14  C           1     -27.913  -5.781 -16.517  0.00  0.00     0.189 C 
BRANCH  14  15
HETATM   15  C           1     -29.124  -5.635 -17.428  0.00  0.00     0.014 C 
HETATM   16  C           1     -29.133  -4.241 -18.041  0.00  0.00     0.012 C 
BRANCH  15  17
HETATM   17  C           1     -29.051  -6.676 -18.538  0.00  0.00     0.002 C 
HETATM   18  C           1     -30.221  -7.642 -18.407  0.00  0.00     0.005 C 
ENDBRANCH  15  17
ENDBRANCH  14  15
BRANCH  14  19
HETATM   19  C           1     -28.285  -6.615 -15.315  0.00  0.00     0.197 C 
HETATM   20  O           1     -29.122  -6.186 -14.492  0.00  0.00    -0.646 OA
HETATM   21  O           1     -27.758  -7.735 -15.144  0.00  0.00    -0.646 OA
ENDBRANCH  14  19
ENDBRANCH   3  14
TORSDOF 8
ENDMDL
MODEL 7
REMARK VINA RESULT:      -5.6     14.340     16.903
REMARK  8 active torsions:
REMARK  status: ('A' for Active; 'I' for Inactive)
REMARK    1  A    between atoms: C_2  and  C_3 
REMARK    2  A    between atoms: C_2  and  C_15 
REMARK    3  A    between atoms: C_6  and  C_7 
REMARK    4  A    between atoms: C_6  and  C_14 
REMARK    5  A    between atoms: C_7  and  C_8 
REMARK    6  A    between atoms: C_7  and  N_11 
REMARK       I    between atoms: C_8  and  N_20 
REMARK    7  A    between atoms: C_15  and  C_16 
REMARK    8  A    between atoms: C_15  and  N_20 
ROOT
HETATM    1  O           1     -22.956  -5.934  -5.448  0.00  0.00    -0.271 OA
HETATM    2  C           1     -21.753  -5.829  -5.485  0.00  0.00     0.249 C 
HETATM    3  N           1     -20.975  -6.587  -4.651  0.00  0.00    -0.344 N 
HETATM    4  H           1     -19.967  -6.500  -4.682  0.00  0.00     0.163 HD
ENDROOT
BRANCH   2   5
HETATM    5  C           1     -21.108  -4.864  -6.449  0.00  0.00     0.275 C 
BRANCH   5   6
HETATM    6  C           1     -21.351  -5.334  -7.877  0.00  0.00     0.046 C 
BRANCH   6   7
HETATM    7  C           1     -21.370  -4.131  -8.811  0.00  0.00    -0.020 C 
HETATM    8  C           1     -22.790  -3.900  -9.313  0.00  0.00     0.009 C 
HETATM    9  C           1     -20.451  -4.394  -9.997  0.00  0.00     0.009 C 
ENDBRANCH   6   7
ENDBRANCH   5   6
BRANCH   5  10
HETATM   10  N           1     -19.632  -4.808  -6.186  0.00  0.00    -0.066 N 
HETATM   11  H           1     -19.464  -4.762  -5.155  0.00  0.00     0.275 HD
HETATM   12  H           1     -19.177  -5.665  -6.574  0.00  0.00     0.275 HD
HETATM   13  H           1     -19.229  -3.960  -6.643  0.00  0.00     0.275 HD
ENDBRANCH   5  10
ENDBRANCH   2   5
BRANCH   3  14
HETATM   14  C           1     -21.594  -7.515  -3.725  0.00  0.00     0.189 C 
BRANCH  14  15
HETATM   15  C           1     -20.809  -8.820  -3.713  0.00  0.00     0.014 C 
HETATM   16  C           1     -21.718  -9.962  -4.146  0.00  0.00     0.012 C 
BRANCH  15  17
HETATM   17  C           1     -19.634  -8.712  -4.676  0.00  0.00     0.002 C 
HETATM   18  C           1     -18.390  -9.308  -4.030  0.00  0.00     0.005 C 
ENDBRANCH  15  17
ENDBRANCH  14  15
BRANCH  14  19
HETATM   19  C           1     -21.595  -6.916  -2.340  0.00  0.00     0.197 C 
HETATM   20  O           1     -22.325  -5.933  -2.084  0.00  0.00    -0.646 OA
HETATM   21  O           1     -20.868  -7.403  -1.448  0.00  0.00    -0.646 OA
ENDBRANCH  14  19
ENDBRANCH   3  14
TORSDOF 8
ENDMDL
MODEL 8
REMARK VINA RESULT:      -5.3     17.591     19.833
REMARK  8 active torsions:
REMARK  status: ('A' for Active; 'I' for Inactive)
REMARK    1  A    between atoms: C_2  and  C_3 
REMARK    2  A    between atoms: C_2  and  C_15 
REMARK    3  A    between atoms: C_6  and  C_7 
REMARK    4  A    between atoms: C_6  and  C_14 
REMARK    5  A    between atoms: C_7  and  C_8 
REMARK    6  A    between atoms: C_7  and  N_11 
REMARK       I    between atoms: C_8  and  N_20 
REMARK    7  A    between atoms: C_15  and  C_16 
REMARK    8  A    between atoms: C_15  and  N_20 
ROOT
HETATM    1  O           1     -19.549 -11.224  -0.394  0.00  0.00    -0.271 OA
HETATM    2  C           1     -19.705 -10.701  -1.472  0.00  0.00     0.249 C 
HETATM    3  N           1     -20.847  -9.992  -1.730  0.00  0.00    -0.344 N 
HETATM    4  H           1     -20.978  -9.553  -2.632  0.00  0.00     0.163 HD
ENDROOT
BRANCH   2   5
HETATM    5  C           1     -18.641 -10.829  -2.534  0.00  0.00     0.275 C 
BRANCH   5   6
HETATM    6  C           1     -18.022  -9.463  -2.800  0.00  0.00     0.046 C 
BRANCH   6   7
HETATM    7  C           1     -16.505  -9.590  -2.835  0.00  0.00    -0.020 C 
HETATM    8  C           1     -16.042  -9.752  -4.277  0.00  0.00     0.009 C 
HETATM    9  C           1     -16.080 -10.809  -2.027  0.00  0.00     0.009 C 
ENDBRANCH   6   7
ENDBRANCH   5   6
BRANCH   5  10
HETATM   10  N           1     -19.258 -11.353  -3.797  0.00  0.00    -0.066 N 
HETATM   11  H           1     -18.539 -11.883  -4.341  0.00  0.00     0.275 HD
HETATM   12  H           1     -20.052 -11.989  -3.559  0.00  0.00     0.275 HD
HETATM   13  H           1     -19.609 -10.553  -4.371  0.00  0.00     0.275 HD
ENDBRANCH   5  10
ENDBRANCH   2   5
BRANCH   3  14
HETATM   14  C           1     -21.870  -9.868  -0.709  0.00  0.00     0.189 C 
BRANCH  14  15
HETATM   15  C           1     -22.242  -8.402  -0.538  0.00  0.00     0.014 C 
HETATM   16  C           1     -21.974  -7.975   0.899  0.00  0.00     0.012 C 
BRANCH  15  17
HETATM   17  C           1     -21.403  -7.553  -1.485  0.00  0.00     0.002 C 
HETATM   18  C           1     -22.171  -6.291  -1.853  0.00  0.00     0.005 C 
ENDBRANCH  15  17
ENDBRANCH  14  15
BRANCH  14  19
HETATM   19  C           1     -23.091 -10.652  -1.125  0.00  0.00     0.197 C 
HETATM   20  O           1     -23.188 -11.086  -2.293  0.00  0.00    -0.646 OA
HETATM   21  O           1     -24.005 -10.868  -0.300  0.00  0.00    -0.646 OA
ENDBRANCH  14  19
ENDBRANCH   3  14
TORSDOF 8
ENDMDL
MODEL 9
REMARK VINA RESULT:      -5.3      2.199      2.708
REMARK  8 active torsions:
REMARK  status: ('A' for Active; 'I' for Inactive)
REMARK    1  A    between atoms: C_2  and  C_3 
REMARK    2  A    between atoms: C_2  and  C_15 
REMARK    3  A    between atoms: C_6  and  C_7 
REMARK    4  A    between atoms: C_6  and  C_14 
REMARK    5  A    between atoms: C_7  and  C_8 
REMARK    6  A    between atoms: C_7  and  N_11 
REMARK       I    between atoms: C_8  and  N_20 
REMARK    7  A    between atoms: C_15  and  C_16 
REMARK    8  A    between atoms: C_15  and  N_20 
ROOT
HETATM    1  O           1     -34.636  -2.989 -13.629  0.00  0.00    -0.271 OA
HETATM    2  C           1     -34.622  -2.217 -12.699  0.00  0.00     0.249 C 
HETATM    3  N           1     -35.009  -0.917 -12.884  0.00  0.00    -0.344 N 
HETATM    4  H           1     -34.998  -0.270 -12.105  0.00  0.00     0.163 HD
ENDROOT
BRANCH   2   5
HETATM    5  C           1     -34.179  -2.686 -11.335  0.00  0.00     0.275 C 
BRANCH   5   6
HETATM    6  C           1     -34.932  -3.959 -10.967  0.00  0.00     0.046 C 
BRANCH   6   7
HETATM    7  C           1     -33.940  -5.022 -10.514  0.00  0.00    -0.020 C 
HETATM    8  C           1     -32.829  -5.153 -11.547  0.00  0.00     0.009 C 
HETATM    9  C           1     -34.658  -6.358 -10.370  0.00  0.00     0.009 C 
ENDBRANCH   6   7
ENDBRANCH   5   6
BRANCH   5  10
HETATM   10  N           1     -34.474  -1.621 -10.322  0.00  0.00    -0.066 N 
HETATM   11  H           1     -35.471  -1.320 -10.412  0.00  0.00     0.275 HD
HETATM   12  H           1     -34.311  -1.999  -9.361  0.00  0.00     0.275 HD
HETATM   13  H           1     -33.847  -0.802 -10.486  0.00  0.00     0.275 HD
ENDBRANCH   5  10
ENDBRANCH   2   5
BRANCH   3  14
HETATM   14  C           1     -35.435  -0.466 -14.194  0.00  0.00     0.189 C 
BRANCH  14  15
HETATM   15  C           1     -36.934  -0.685 -14.344  0.00  0.00     0.014 C 
HETATM   16  C           1     -37.671   0.095 -13.264  0.00  0.00     0.012 C 
BRANCH  15  17
HETATM   17  C           1     -37.382  -0.199 -15.717  0.00  0.00     0.002 C 
HETATM   18  C           1     -36.733  -1.056 -16.796  0.00  0.00     0.005 C 
ENDBRANCH  15  17
ENDBRANCH  14  15
BRANCH  14  19
HETATM   19  C           1     -35.124   1.003 -14.345  0.00  0.00     0.197 C 
HETATM   20  O           1     -34.543   1.617 -13.423  0.00  0.00    -0.646 OA
HETATM   21  O           1     -35.445   1.606 -15.391  0.00  0.00    -0.646 OA
ENDBRANCH  14  19
ENDBRANCH   3  14
TORSDOF 8
ENDMDL
